MODEL 1
REMARK VINA RESULT:      -8.5      0.000      0.000
REMARK  Name = 23728517
REMARK  4 active torsions:
REMARK  status: ('A' for Active; 'I' for Inactive)
REMARK    1  A    between atoms: C_6  and  C_23
REMARK    2  A    between atoms: C_7  and  O_19
REMARK    3  A    between atoms: C_18  and  O_21
REMARK    4  A    between atoms: C_23  and  O_24
REMARK                            x       y       z     vdW  Elec       q    Type
REMARK                         _______ _______ _______ _____ _____    ______ ____
ROOT
ATOM      1  C   UNL     1      31.734 -23.770 -14.831  0.00  0.00    +0.025 C 
ATOM      2  C   UNL     1      32.577 -23.548 -16.102  0.00  0.00    +0.003 C 
ATOM      3  C   UNL     1      34.048 -23.276 -15.786  0.00  0.00    +0.005 C 
ATOM      4  C   UNL     1      34.634 -24.556 -15.108  0.00  0.00    +0.024 C 
ATOM      5  C   UNL     1      32.299 -24.986 -14.075  0.00  0.00    +0.005 C 
ATOM      6  C   UNL     1      33.833 -24.935 -13.815  0.00  0.00    +0.034 C 
ATOM      7  C   UNL     1      30.361 -24.010 -15.496  0.00  0.00    +0.110 C 
ATOM      8  C   UNL     1      31.759 -22.534 -16.894  0.00  0.00    +0.003 C 
ATOM      9  C   UNL     1      30.301 -22.954 -16.621  0.00  0.00    +0.029 C 
ATOM     10  C   UNL     1      34.861 -22.936 -17.037  0.00  0.00    +0.005 C 
ATOM     11  C   UNL     1      31.634 -22.544 -13.888  0.00  0.00    +0.002 C 
ATOM     12  C   UNL     1      36.155 -24.514 -14.979  0.00  0.00    -0.026 C 
ATOM     13  C   UNL     1      36.287 -22.575 -16.635  0.00  0.00    +0.026 C 
ATOM     14  C   UNL     1      36.922 -23.592 -15.722  0.00  0.00    -0.023 C 
ATOM     15  C   UNL     1      36.834 -25.463 -14.194  0.00  0.00    -0.001 C 
ATOM     16  C   UNL     1      38.322 -23.586 -15.598  0.00  0.00    +0.032 C 
ATOM     17  C   UNL     1      38.226 -25.456 -14.089  0.00  0.00    +0.036 C 
ATOM     18  C   UNL     1      38.970 -24.511 -14.784  0.00  0.00    +0.133 C 
ENDROOT
BRANCH   7  19
ATOM     19  O   UNL     1      29.266 -23.870 -14.611  0.00  0.00    -0.384 OA
ATOM     20  H   UNL     1      28.452 -23.736 -15.122  0.00  0.00    +0.210 HD
ENDBRANCH   7  19
BRANCH  18  21
ATOM     21  O   UNL     1      40.326 -24.497 -14.679  0.00  0.00    -0.506 OA
ATOM     22  H   UNL     1      40.758 -25.098 -14.104  0.00  0.00    +0.292 HD
ENDBRANCH  18  21
BRANCH   6  23
ATOM     23  C   UNL     1      34.197 -24.074 -12.599  0.00  0.00    +0.143 C 
BRANCH  23  24
ATOM     24  O   UNL     1      34.806 -24.907 -11.635  0.00  0.00    -0.351 OA
ATOM     25  C   UNL     1      35.777 -24.205 -10.864  0.00  0.00    +0.174 C 
ENDBRANCH  23  24
ENDBRANCH   6  23
TORSDOF 4
ENDMDL
MODEL 2
REMARK VINA RESULT:      -8.1      1.721      6.596
REMARK  Name = 23728517
REMARK  4 active torsions:
REMARK  status: ('A' for Active; 'I' for Inactive)
REMARK    1  A    between atoms: C_6  and  C_23
REMARK    2  A    between atoms: C_7  and  O_19
REMARK    3  A    between atoms: C_18  and  O_21
REMARK    4  A    between atoms: C_23  and  O_24
REMARK                            x       y       z     vdW  Elec       q    Type
REMARK                         _______ _______ _______ _____ _____    ______ ____
ROOT
ATOM      1  C   UNL     1      37.383 -24.212 -13.894  0.00  0.00    +0.025 C 
ATOM      2  C   UNL     1      36.103 -24.886 -13.367  0.00  0.00    +0.003 C 
ATOM      3  C   UNL     1      34.841 -24.092 -13.711  0.00  0.00    +0.005 C 
ATOM      4  C   UNL     1      34.700 -24.073 -15.267  0.00  0.00    +0.024 C 
ATOM      5  C   UNL     1      37.284 -24.102 -15.426  0.00  0.00    +0.005 C 
ATOM      6  C   UNL     1      35.969 -23.454 -15.947  0.00  0.00    +0.034 C 
ATOM      7  C   UNL     1      38.418 -25.243 -13.392  0.00  0.00    +0.110 C 
ATOM      8  C   UNL     1      36.442 -25.201 -11.914  0.00  0.00    +0.003 C 
ATOM      9  C   UNL     1      37.931 -25.598 -11.970  0.00  0.00    +0.029 C 
ATOM     10  C   UNL     1      33.582 -24.696 -13.085  0.00  0.00    +0.005 C 
ATOM     11  C   UNL     1      37.701 -22.829 -13.271  0.00  0.00    +0.002 C 
ATOM     12  C   UNL     1      33.348 -23.538 -15.732  0.00  0.00    -0.026 C 
ATOM     13  C   UNL     1      32.386 -23.798 -13.380  0.00  0.00    +0.026 C 
ATOM     14  C   UNL     1      32.261 -23.437 -14.838  0.00  0.00    -0.023 C 
ATOM     15  C   UNL     1      33.126 -23.232 -17.086  0.00  0.00    -0.001 C 
ATOM     16  C   UNL     1      31.021 -22.957 -15.296  0.00  0.00    +0.032 C 
ATOM     17  C   UNL     1      31.886 -22.769 -17.532  0.00  0.00    +0.036 C 
ATOM     18  C   UNL     1      30.835 -22.623 -16.635  0.00  0.00    +0.133 C 
ENDROOT
BRANCH   7  19
ATOM     19  O   UNL     1      39.745 -24.752 -13.364  0.00  0.00    -0.384 OA
ATOM     20  H   UNL     1      39.758 -23.836 -13.680  0.00  0.00    +0.210 HD
ENDBRANCH   7  19
BRANCH  18  21
ATOM     21  O   UNL     1      29.628 -22.167 -17.064  0.00  0.00    -0.506 OA
ATOM     22  H   UNL     1      28.981 -22.772 -17.370  0.00  0.00    +0.292 HD
ENDBRANCH  18  21
BRANCH   6  23
ATOM     23  C   UNL     1      36.003 -21.921 -15.890  0.00  0.00    +0.143 C 
BRANCH  23  24
ATOM     24  O   UNL     1      37.015 -21.470 -16.766  0.00  0.00    -0.351 OA
ATOM     25  C   UNL     1      36.641 -21.624 -18.133  0.00  0.00    +0.174 C 
ENDBRANCH  23  24
ENDBRANCH   6  23
TORSDOF 4
ENDMDL
MODEL 3
REMARK VINA RESULT:      -8.1     13.358     15.923
REMARK  Name = 23728517
REMARK  4 active torsions:
REMARK  status: ('A' for Active; 'I' for Inactive)
REMARK    1  A    between atoms: C_6  and  C_23
REMARK    2  A    between atoms: C_7  and  O_19
REMARK    3  A    between atoms: C_18  and  O_21
REMARK    4  A    between atoms: C_23  and  O_24
REMARK                            x       y       z     vdW  Elec       q    Type
REMARK                         _______ _______ _______ _____ _____    ______ ____
ROOT
ATOM      1  C   UNL     1      33.069 -13.860 -22.350  0.00  0.00    +0.025 C 
ATOM      2  C   UNL     1      32.241 -13.292 -21.181  0.00  0.00    +0.003 C 
ATOM      3  C   UNL     1      32.453 -11.790 -20.991  0.00  0.00    +0.005 C 
ATOM      4  C   UNL     1      31.926 -11.068 -22.272  0.00  0.00    +0.024 C 
ATOM      5  C   UNL     1      32.643 -13.144 -23.644  0.00  0.00    +0.005 C 
ATOM      6  C   UNL     1      32.652 -11.589 -23.560  0.00  0.00    +0.034 C 
ATOM      7  C   UNL     1      32.625 -15.337 -22.259  0.00  0.00    +0.110 C 
ATOM      8  C   UNL     1      32.531 -14.262 -20.040  0.00  0.00    +0.003 C 
ATOM      9  C   UNL     1      32.615 -15.631 -20.744  0.00  0.00    +0.029 C 
ATOM     10  C   UNL     1      31.728 -11.248 -19.757  0.00  0.00    +0.005 C 
ATOM     11  C   UNL     1      34.606 -13.779 -22.165  0.00  0.00    +0.002 C 
ATOM     12  C   UNL     1      31.840  -9.553 -22.105  0.00  0.00    -0.026 C 
ATOM     13  C   UNL     1      32.069  -9.774 -19.571  0.00  0.00    +0.026 C 
ATOM     14  C   UNL     1      31.885  -8.960 -20.826  0.00  0.00    -0.023 C 
ATOM     15  C   UNL     1      31.610  -8.722 -23.216  0.00  0.00    -0.001 C 
ATOM     16  C   UNL     1      31.786  -7.563 -20.698  0.00  0.00    +0.032 C 
ATOM     17  C   UNL     1      31.500  -7.336 -23.075  0.00  0.00    +0.036 C 
ATOM     18  C   UNL     1      31.597  -6.756 -21.817  0.00  0.00    +0.133 C 
ENDROOT
BRANCH   7  19
ATOM     19  O   UNL     1      33.482 -16.232 -22.943  0.00  0.00    -0.384 OA
ATOM     20  H   UNL     1      34.312 -16.325 -22.451  0.00  0.00    +0.210 HD
ENDBRANCH   7  19
BRANCH  18  21
ATOM     21  O   UNL     1      31.496  -5.407 -21.677  0.00  0.00    -0.506 OA
ATOM     22  H   UNL     1      31.541  -5.020 -20.825  0.00  0.00    +0.292 HD
ENDBRANCH  18  21
BRANCH   6  23
ATOM     23  C   UNL     1      34.053 -10.996 -23.752  0.00  0.00    +0.143 C 
BRANCH  23  24
ATOM     24  O   UNL     1      34.461 -11.248 -25.080  0.00  0.00    -0.351 OA
ATOM     25  C   UNL     1      35.397 -10.277 -25.541  0.00  0.00    +0.174 C 
ENDBRANCH  23  24
ENDBRANCH   6  23
TORSDOF 4
ENDMDL
MODEL 4
REMARK VINA RESULT:      -7.9     11.281     13.523
REMARK  Name = 23728517
REMARK  4 active torsions:
REMARK  status: ('A' for Active; 'I' for Inactive)
REMARK    1  A    between atoms: C_6  and  C_23
REMARK    2  A    between atoms: C_7  and  O_19
REMARK    3  A    between atoms: C_18  and  O_21
REMARK    4  A    between atoms: C_23  and  O_24
REMARK                            x       y       z     vdW  Elec       q    Type
REMARK                         _______ _______ _______ _____ _____    ______ ____
ROOT
ATOM      1  C   UNL     1      32.146 -11.268 -22.160  0.00  0.00    +0.025 C 
ATOM      2  C   UNL     1      32.468 -12.122 -20.919  0.00  0.00    +0.003 C 
ATOM      3  C   UNL     1      32.526 -13.617 -21.239  0.00  0.00    +0.005 C 
ATOM      4  C   UNL     1      33.713 -13.846 -22.229  0.00  0.00    +0.024 C 
ATOM      5  C   UNL     1      33.248 -11.495 -23.210  0.00  0.00    +0.005 C 
ATOM      6  C   UNL     1      33.542 -12.990 -23.531  0.00  0.00    +0.034 C 
ATOM      7  C   UNL     1      32.169  -9.872 -21.499  0.00  0.00    +0.110 C 
ATOM      8  C   UNL     1      31.496 -11.597 -19.868  0.00  0.00    +0.003 C 
ATOM      9  C   UNL     1      31.438 -10.083 -20.156  0.00  0.00    +0.029 C 
ATOM     10  C   UNL     1      32.725 -14.475 -19.987  0.00  0.00    +0.005 C 
ATOM     11  C   UNL     1      30.747 -11.514 -22.781  0.00  0.00    +0.002 C 
ATOM     12  C   UNL     1      34.044 -15.324 -22.425  0.00  0.00    -0.026 C 
ATOM     13  C   UNL     1      32.668 -15.950 -20.366  0.00  0.00    +0.026 C 
ATOM     14  C   UNL     1      33.565 -16.300 -21.527  0.00  0.00    -0.023 C 
ATOM     15  C   UNL     1      34.919 -15.733 -23.446  0.00  0.00    -0.001 C 
ATOM     16  C   UNL     1      33.898 -17.652 -21.719  0.00  0.00    +0.032 C 
ATOM     17  C   UNL     1      35.255 -17.077 -23.619  0.00  0.00    +0.036 C 
ATOM     18  C   UNL     1      34.737 -18.039 -22.761  0.00  0.00    +0.133 C 
ENDROOT
BRANCH   7  19
ATOM     19  O   UNL     1      31.534  -8.867 -22.268  0.00  0.00    -0.384 OA
ATOM     20  H   UNL     1      31.042  -9.278 -22.995  0.00  0.00    +0.210 HD
ENDBRANCH   7  19
BRANCH  18  21
ATOM     21  O   UNL     1      35.057 -19.350 -22.930  0.00  0.00    -0.506 OA
ATOM     22  H   UNL     1      35.583 -19.613 -23.660  0.00  0.00    +0.292 HD
ENDBRANCH  18  21
BRANCH   6  23
ATOM     23  C   UNL     1      32.540 -13.588 -24.527  0.00  0.00    +0.143 C 
BRANCH  23  24
ATOM     24  O   UNL     1      33.170 -13.672 -25.788  0.00  0.00    -0.351 OA
ATOM     25  C   UNL     1      32.954 -14.939 -26.405  0.00  0.00    +0.174 C 
ENDBRANCH  23  24
ENDBRANCH   6  23
TORSDOF 4
ENDMDL
MODEL 5
REMARK VINA RESULT:      -7.4      9.945     12.404
REMARK  Name = 23728517
REMARK  4 active torsions:
REMARK  status: ('A' for Active; 'I' for Inactive)
REMARK    1  A    between atoms: C_6  and  C_23
REMARK    2  A    between atoms: C_7  and  O_19
REMARK    3  A    between atoms: C_18  and  O_21
REMARK    4  A    between atoms: C_23  and  O_24
REMARK                            x       y       z     vdW  Elec       q    Type
REMARK                         _______ _______ _______ _____ _____    ______ ____
ROOT
ATOM      1  C   UNL     1      34.716 -18.365 -21.347  0.00  0.00    +0.025 C 
ATOM      2  C   UNL     1      35.132 -18.296 -22.828  0.00  0.00    +0.003 C 
ATOM      3  C   UNL     1      34.342 -17.244 -23.608  0.00  0.00    +0.005 C 
ATOM      4  C   UNL     1      34.688 -15.845 -23.005  0.00  0.00    +0.024 C 
ATOM      5  C   UNL     1      34.972 -16.992 -20.701  0.00  0.00    +0.005 C 
ATOM      6  C   UNL     1      34.361 -15.787 -21.474  0.00  0.00    +0.034 C 
ATOM      7  C   UNL     1      35.678 -19.481 -20.882  0.00  0.00    +0.110 C 
ATOM      8  C   UNL     1      35.114 -19.756 -23.268  0.00  0.00    +0.003 C 
ATOM      9  C   UNL     1      35.636 -20.512 -22.030  0.00  0.00    +0.029 C 
ATOM     10  C   UNL     1      34.668 -17.258 -25.103  0.00  0.00    +0.005 C 
ATOM     11  C   UNL     1      33.254 -18.818 -21.097  0.00  0.00    +0.002 C 
ATOM     12  C   UNL     1      34.170 -14.689 -23.857  0.00  0.00    -0.026 C 
ATOM     13  C   UNL     1      33.771 -16.261 -25.829  0.00  0.00    +0.026 C 
ATOM     14  C   UNL     1      33.764 -14.895 -25.192  0.00  0.00    -0.023 C 
ATOM     15  C   UNL     1      34.183 -13.373 -23.363  0.00  0.00    -0.001 C 
ATOM     16  C   UNL     1      33.307 -13.810 -25.961  0.00  0.00    +0.032 C 
ATOM     17  C   UNL     1      33.739 -12.300 -24.140  0.00  0.00    +0.036 C 
ATOM     18  C   UNL     1      33.293 -12.521 -25.437  0.00  0.00    +0.133 C 
ENDROOT
BRANCH   7  19
ATOM     19  O   UNL     1      35.308 -20.078 -19.653  0.00  0.00    -0.384 OA
ATOM     20  H   UNL     1      34.366 -19.916 -19.485  0.00  0.00    +0.210 HD
ENDBRANCH   7  19
BRANCH  18  21
ATOM     21  O   UNL     1      32.855 -11.480 -26.195  0.00  0.00    -0.506 OA
ATOM     22  H   UNL     1      33.390 -10.717 -26.297  0.00  0.00    +0.292 HD
ENDBRANCH  18  21
BRANCH   6  23
ATOM     23  C   UNL     1      32.868 -15.591 -21.177  0.00  0.00    +0.143 C 
BRANCH  23  24
ATOM     24  O   UNL     1      32.747 -14.685 -20.100  0.00  0.00    -0.351 OA
ATOM     25  C   UNL     1      32.306 -13.401 -20.534  0.00  0.00    +0.174 C 
ENDBRANCH  23  24
ENDBRANCH   6  23
TORSDOF 4
ENDMDL
MODEL 6
REMARK VINA RESULT:      -7.3      2.158      7.189
REMARK  Name = 23728517
REMARK  4 active torsions:
REMARK  status: ('A' for Active; 'I' for Inactive)
REMARK    1  A    between atoms: C_6  and  C_23
REMARK    2  A    between atoms: C_7  and  O_19
REMARK    3  A    between atoms: C_18  and  O_21
REMARK    4  A    between atoms: C_23  and  O_24
REMARK                            x       y       z     vdW  Elec       q    Type
REMARK                         _______ _______ _______ _____ _____    ______ ____
ROOT
ATOM      1  C   UNL     1      34.804 -23.873 -15.569  0.00  0.00    +0.025 C 
ATOM      2  C   UNL     1      33.834 -24.114 -14.397  0.00  0.00    +0.003 C 
ATOM      3  C   UNL     1      32.527 -23.334 -14.553  0.00  0.00    +0.005 C 
ATOM      4  C   UNL     1      31.798 -23.875 -15.825  0.00  0.00    +0.024 C 
ATOM      5  C   UNL     1      34.122 -24.328 -16.872  0.00  0.00    +0.005 C 
ATOM      6  C   UNL     1      32.699 -23.740 -17.100  0.00  0.00    +0.034 C 
ATOM      7  C   UNL     1      35.966 -24.779 -15.104  0.00  0.00    +0.110 C 
ATOM      8  C   UNL     1      34.710 -23.910 -13.166  0.00  0.00    +0.003 C 
ATOM      9  C   UNL     1      36.068 -24.507 -13.588  0.00  0.00    +0.029 C 
ATOM     10  C   UNL     1      31.613 -23.476 -13.334  0.00  0.00    +0.005 C 
ATOM     11  C   UNL     1      35.319 -22.417 -15.707  0.00  0.00    +0.002 C 
ATOM     12  C   UNL     1      30.364 -23.365 -15.947  0.00  0.00    -0.026 C 
ATOM     13  C   UNL     1      30.384 -22.592 -13.513  0.00  0.00    +0.026 C 
ATOM     14  C   UNL     1      29.703 -22.785 -14.844  0.00  0.00    -0.023 C 
ATOM     15  C   UNL     1      29.634 -23.557 -17.133  0.00  0.00    -0.001 C 
ATOM     16  C   UNL     1      28.376 -22.340 -14.978  0.00  0.00    +0.032 C 
ATOM     17  C   UNL     1      28.312 -23.122 -17.251  0.00  0.00    +0.036 C 
ATOM     18  C   UNL     1      27.686 -22.505 -16.176  0.00  0.00    +0.133 C 
ENDROOT
BRANCH   7  19
ATOM     19  O   UNL     1      37.196 -24.507 -15.750  0.00  0.00    -0.384 OA
ATOM     20  H   UNL     1      37.299 -25.100 -16.511  0.00  0.00    +0.210 HD
ENDBRANCH   7  19
BRANCH  18  21
ATOM     21  O   UNL     1      26.400 -22.075 -16.288  0.00  0.00    -0.506 OA
ATOM     22  H   UNL     1      26.200 -21.165 -16.187  0.00  0.00    +0.292 HD
ENDBRANCH  18  21
BRANCH   6  23
ATOM     23  C   UNL     1      32.733 -22.318 -17.674  0.00  0.00    +0.143 C 
BRANCH  23  24
ATOM     24  O   UNL     1      32.926 -22.410 -19.070  0.00  0.00    -0.351 OA
ATOM     25  C   UNL     1      34.055 -21.654 -19.501  0.00  0.00    +0.174 C 
ENDBRANCH  23  24
ENDBRANCH   6  23
TORSDOF 4
ENDMDL
MODEL 7
REMARK VINA RESULT:      -6.9     11.160     13.939
REMARK  Name = 23728517
REMARK  4 active torsions:
REMARK  status: ('A' for Active; 'I' for Inactive)
REMARK    1  A    between atoms: C_6  and  C_23
REMARK    2  A    between atoms: C_7  and  O_19
REMARK    3  A    between atoms: C_18  and  O_21
REMARK    4  A    between atoms: C_23  and  O_24
REMARK                            x       y       z     vdW  Elec       q    Type
REMARK                         _______ _______ _______ _____ _____    ______ ____
ROOT
ATOM      1  C   UNL     1      34.202 -16.306 -24.224  0.00  0.00    +0.025 C 
ATOM      2  C   UNL     1      33.548 -16.583 -22.857  0.00  0.00    +0.003 C 
ATOM      3  C   UNL     1      33.445 -15.325 -21.993  0.00  0.00    +0.005 C 
ATOM      4  C   UNL     1      32.493 -14.323 -22.723  0.00  0.00    +0.024 C 
ATOM      5  C   UNL     1      33.346 -15.271 -24.976  0.00  0.00    +0.005 C 
ATOM      6  C   UNL     1      33.014 -13.987 -24.162  0.00  0.00    +0.034 C 
ATOM      7  C   UNL     1      34.143 -17.734 -24.810  0.00  0.00    +0.110 C 
ATOM      8  C   UNL     1      34.301 -17.808 -22.348  0.00  0.00    +0.003 C 
ATOM      9  C   UNL     1      34.540 -18.640 -23.624  0.00  0.00    +0.029 C 
ATOM     10  C   UNL     1      32.908 -15.621 -20.592  0.00  0.00    +0.005 C 
ATOM     11  C   UNL     1      35.681 -15.843 -24.162  0.00  0.00    +0.002 C 
ATOM     12  C   UNL     1      32.100 -13.137 -21.847  0.00  0.00    -0.026 C 
ATOM     13  C   UNL     1      32.932 -14.345 -19.757  0.00  0.00    +0.026 C 
ATOM     14  C   UNL     1      32.290 -13.171 -20.449  0.00  0.00    -0.023 C 
ATOM     15  C   UNL     1      31.442 -12.024 -22.401  0.00  0.00    -0.001 C 
ATOM     16  C   UNL     1      31.903 -12.072 -19.663  0.00  0.00    +0.032 C 
ATOM     17  C   UNL     1      31.050 -10.943 -21.608  0.00  0.00    +0.036 C 
ATOM     18  C   UNL     1      31.288 -10.963 -20.240  0.00  0.00    +0.133 C 
ENDROOT
BRANCH   7  19
ATOM     19  O   UNL     1      35.009 -17.935 -25.911  0.00  0.00    -0.384 OA
ATOM     20  H   UNL     1      35.457 -18.790 -25.818  0.00  0.00    +0.210 HD
ENDBRANCH   7  19
BRANCH  18  21
ATOM     21  O   UNL     1      30.912  -9.910 -19.465  0.00  0.00    -0.506 OA
ATOM     22  H   UNL     1      31.208  -9.852 -18.577  0.00  0.00    +0.292 HD
ENDBRANCH  18  21
BRANCH   6  23
ATOM     23  C   UNL     1      34.162 -12.969 -24.173  0.00  0.00    +0.143 C 
BRANCH  23  24
ATOM     24  O   UNL     1      33.791 -11.895 -25.012  0.00  0.00    -0.351 OA
ATOM     25  C   UNL     1      34.153 -10.635 -24.452  0.00  0.00    +0.174 C 
ENDBRANCH  23  24
ENDBRANCH   6  23
TORSDOF 4
ENDMDL
MODEL 8
REMARK VINA RESULT:      -6.9      9.567     11.883
REMARK  Name = 23728517
REMARK  4 active torsions:
REMARK  status: ('A' for Active; 'I' for Inactive)
REMARK    1  A    between atoms: C_6  and  C_23
REMARK    2  A    between atoms: C_7  and  O_19
REMARK    3  A    between atoms: C_18  and  O_21
REMARK    4  A    between atoms: C_23  and  O_24
REMARK                            x       y       z     vdW  Elec       q    Type
REMARK                         _______ _______ _______ _____ _____    ______ ____
ROOT
ATOM      1  C   UNL     1      33.632 -13.792 -23.659  0.00  0.00    +0.025 C 
ATOM      2  C   UNL     1      33.082 -14.025 -22.239  0.00  0.00    +0.003 C 
ATOM      3  C   UNL     1      32.778 -15.498 -21.965  0.00  0.00    +0.005 C 
ATOM      4  C   UNL     1      34.127 -16.284 -22.030  0.00  0.00    +0.024 C 
ATOM      5  C   UNL     1      34.937 -14.593 -23.816  0.00  0.00    +0.005 C 
ATOM      6  C   UNL     1      34.831 -16.094 -23.417  0.00  0.00    +0.034 C 
ATOM      7  C   UNL     1      33.824 -12.261 -23.591  0.00  0.00    +0.110 C 
ATOM      8  C   UNL     1      31.985 -12.974 -22.109  0.00  0.00    +0.003 C 
ATOM      9  C   UNL     1      32.559 -11.758 -22.863  0.00  0.00    +0.029 C 
ATOM     10  C   UNL     1      32.119 -15.715 -20.601  0.00  0.00    +0.005 C 
ATOM     11  C   UNL     1      32.647 -14.130 -24.807  0.00  0.00    +0.002 C 
ATOM     12  C   UNL     1      34.003 -17.717 -21.520  0.00  0.00    -0.026 C 
ATOM     13  C   UNL     1      31.750 -17.186 -20.441  0.00  0.00    +0.026 C 
ATOM     14  C   UNL     1      32.890 -18.121 -20.753  0.00  0.00    -0.023 C 
ATOM     15  C   UNL     1      35.046 -18.640 -21.715  0.00  0.00    -0.001 C 
ATOM     16  C   UNL     1      32.808 -19.443 -20.280  0.00  0.00    +0.032 C 
ATOM     17  C   UNL     1      34.960 -19.946 -21.229  0.00  0.00    +0.036 C 
ATOM     18  C   UNL     1      33.836 -20.351 -20.519  0.00  0.00    +0.133 C 
ENDROOT
BRANCH   7  19
ATOM     19  O   UNL     1      33.956 -11.646 -24.859  0.00  0.00    -0.384 OA
ATOM     20  H   UNL     1      33.898 -12.321 -25.553  0.00  0.00    +0.210 HD
ENDBRANCH   7  19
BRANCH  18  21
ATOM     21  O   UNL     1      33.746 -21.624 -20.049  0.00  0.00    -0.506 OA
ATOM     22  H   UNL     1      33.039 -21.866 -19.484  0.00  0.00    +0.292 HD
ENDBRANCH  18  21
BRANCH   6  23
ATOM     23  C   UNL     1      34.226 -16.958 -24.531  0.00  0.00    +0.143 C 
BRANCH  23  24
ATOM     24  O   UNL     1      35.152 -17.976 -24.851  0.00  0.00    -0.351 OA
ATOM     25  C   UNL     1      34.513 -19.238 -25.025  0.00  0.00    +0.174 C 
ENDBRANCH  23  24
ENDBRANCH   6  23
TORSDOF 4
ENDMDL
MODEL 9
REMARK VINA RESULT:      -6.3      3.021      4.725
REMARK  Name = 23728517
REMARK  4 active torsions:
REMARK  status: ('A' for Active; 'I' for Inactive)
REMARK    1  A    between atoms: C_6  and  C_23
REMARK    2  A    between atoms: C_7  and  O_19
REMARK    3  A    between atoms: C_18  and  O_21
REMARK    4  A    between atoms: C_23  and  O_24
REMARK                            x       y       z     vdW  Elec       q    Type
REMARK                         _______ _______ _______ _____ _____    ______ ____
ROOT
ATOM      1  C   UNL     1      32.970 -23.875 -15.076  0.00  0.00    +0.025 C 
ATOM      2  C   UNL     1      32.206 -23.655 -16.396  0.00  0.00    +0.003 C 
ATOM      3  C   UNL     1      32.782 -22.501 -17.218  0.00  0.00    +0.005 C 
ATOM      4  C   UNL     1      34.238 -22.891 -17.631  0.00  0.00    +0.024 C 
ATOM      5  C   UNL     1      34.437 -24.202 -15.408  0.00  0.00    +0.005 C 
ATOM      6  C   UNL     1      35.124 -23.196 -16.376  0.00  0.00    +0.034 C 
ATOM      7  C   UNL     1      32.155 -25.067 -14.527  0.00  0.00    +0.110 C 
ATOM      8  C   UNL     1      30.745 -23.636 -15.959  0.00  0.00    +0.003 C 
ATOM      9  C   UNL     1      30.690 -24.694 -14.839  0.00  0.00    +0.029 C 
ATOM     10  C   UNL     1      31.952 -22.203 -18.469  0.00  0.00    +0.005 C 
ATOM     11  C   UNL     1      32.891 -22.699 -14.069  0.00  0.00    +0.002 C 
ATOM     12  C   UNL     1      34.831 -21.943 -18.670  0.00  0.00    -0.026 C 
ATOM     13  C   UNL     1      32.521 -20.980 -19.179  0.00  0.00    +0.026 C 
ATOM     14  C   UNL     1      34.009 -21.066 -19.408  0.00  0.00    -0.023 C 
ATOM     15  C   UNL     1      36.200 -21.996 -18.989  0.00  0.00    -0.001 C 
ATOM     16  C   UNL     1      34.578 -20.215 -20.372  0.00  0.00    +0.032 C 
ATOM     17  C   UNL     1      36.753 -21.155 -19.958  0.00  0.00    +0.036 C 
ATOM     18  C   UNL     1      35.943 -20.258 -20.643  0.00  0.00    +0.133 C 
ENDROOT
BRANCH   7  19
ATOM     19  O   UNL     1      32.336 -25.292 -13.141  0.00  0.00    -0.384 OA
ATOM     20  H   UNL     1      32.025 -24.518 -12.646  0.00  0.00    +0.210 HD
ENDBRANCH   7  19
BRANCH  18  21
ATOM     21  O   UNL     1      36.479 -19.434 -21.583  0.00  0.00    -0.506 OA
ATOM     22  H   UNL     1      37.223 -19.713 -22.081  0.00  0.00    +0.292 HD
ENDBRANCH  18  21
BRANCH   6  23
ATOM     23  C   UNL     1      35.621 -21.934 -15.659  0.00  0.00    +0.143 C 
BRANCH  23  24
ATOM     24  O   UNL     1      37.008 -21.810 -15.894  0.00  0.00    -0.351 OA
ATOM     25  C   UNL     1      37.694 -23.043 -15.683  0.00  0.00    +0.174 C 
ENDBRANCH  23  24
ENDBRANCH   6  23
TORSDOF 4
ENDMDL
