MODEL 1
REMARK VINA RESULT:      -9.9      0.000      0.000
REMARK  Name = 25229552
REMARK  4 active torsions:
REMARK  status: ('A' for Active; 'I' for Inactive)
REMARK    1  A    between atoms: C_1  and  C_11
REMARK    2  A    between atoms: C_2  and  N_17
REMARK    3  A    between atoms: C_4  and  S_20
REMARK    4  A    between atoms: S_20  and  C_24
REMARK                            x       y       z     vdW  Elec       q    Type
REMARK                         _______ _______ _______ _____ _____    ______ ____
ROOT
ATOM      1  C   UNL     1      33.755 -14.982 -23.819  0.00  0.00    +0.067 C 
ATOM      2  C   UNL     1      33.509 -15.515 -25.085  0.00  0.00    +0.049 C 
ATOM      3  C   UNL     1      34.511 -15.703 -22.893  0.00  0.00    +0.012 C 
ATOM      4  C   UNL     1      35.019 -16.957 -23.234  0.00  0.00    +0.032 C 
ATOM      5  C   UNL     1      34.017 -16.769 -25.425  0.00  0.00    +0.015 C 
ATOM      6  C   UNL     1      34.773 -17.489 -24.500  0.00  0.00    +0.008 C 
ENDROOT
BRANCH   1  11
ATOM      7  S   UNL     1      34.809 -10.104 -24.412  0.00  0.00    -0.060 S 
ATOM      8  O   UNL     1      32.199 -13.617 -22.756  0.00  0.00    -0.270 OA
ATOM      9  N   UNL     1      33.966 -12.572 -23.893  0.00  0.00    -0.251 N 
ATOM     10  N   UNL     1      32.691 -10.660 -23.039  0.00  0.00    -0.388 NA
ATOM     11  C   UNL     1      33.237 -13.676 -23.433  0.00  0.00    +0.253 C 
ATOM     12  C   UNL     1      33.695 -11.195 -23.699  0.00  0.00    +0.213 C 
ATOM     13  C   UNL     1      32.803  -9.285 -23.096  0.00  0.00    +0.101 C 
ATOM     14  C   UNL     1      33.886  -8.796 -23.796  0.00  0.00    +0.120 C 
ATOM     15  C   UNL     1      31.777  -8.468 -22.417  0.00  0.00    +0.063 C 
ATOM     16  H   UNL     1      34.772 -12.780 -24.419  0.00  0.00    +0.158 HD
ENDBRANCH   1  11
BRANCH   2  17
ATOM     17  N   UNL     1      32.747 -14.801 -26.036  0.00  0.00    -0.331 N 
ATOM     18  C   UNL     1      33.340 -13.961 -27.030  0.00  0.00    +0.109 C 
ATOM     19  H   UNL     1      31.767 -14.886 -26.015  0.00  0.00    +0.147 HD
ENDBRANCH   2  17
BRANCH   4  20
ATOM     20  S   UNL     1      35.984 -17.878 -22.052  0.00  0.00    -0.051 S 
BRANCH  20  24
ATOM     21  N   UNL     1      35.018 -20.020 -20.566  0.00  0.00    -0.246 N 
ATOM     22  N   UNL     1      33.431 -18.753 -21.380  0.00  0.00    -0.124 NA
ATOM     23  N   UNL     1      32.846 -19.778 -20.664  0.00  0.00    -0.128 NA
ATOM     24  C   UNL     1      34.734 -18.915 -21.310  0.00  0.00    +0.189 C 
ATOM     25  C   UNL     1      36.309 -20.572 -20.230  0.00  0.00    +0.121 C 
ATOM     26  C   UNL     1      33.814 -20.526 -20.184  0.00  0.00    +0.193 C 
ENDBRANCH  20  24
ENDBRANCH   4  20
TORSDOF 4
ENDMDL
MODEL 2
REMARK VINA RESULT:      -9.4      2.039      8.266
REMARK  Name = 25229552
REMARK  4 active torsions:
REMARK  status: ('A' for Active; 'I' for Inactive)
REMARK    1  A    between atoms: C_1  and  C_11
REMARK    2  A    between atoms: C_2  and  N_17
REMARK    3  A    between atoms: C_4  and  S_20
REMARK    4  A    between atoms: S_20  and  C_24
REMARK                            x       y       z     vdW  Elec       q    Type
REMARK                         _______ _______ _______ _____ _____    ______ ____
ROOT
ATOM      1  C   UNL     1      34.183 -16.246 -23.175  0.00  0.00    +0.067 C 
ATOM      2  C   UNL     1      34.179 -16.336 -24.567  0.00  0.00    +0.049 C 
ATOM      3  C   UNL     1      33.582 -15.156 -22.544  0.00  0.00    +0.012 C 
ATOM      4  C   UNL     1      32.977 -14.156 -23.307  0.00  0.00    +0.032 C 
ATOM      5  C   UNL     1      33.574 -15.336 -25.329  0.00  0.00    +0.015 C 
ATOM      6  C   UNL     1      32.972 -14.247 -24.698  0.00  0.00    +0.008 C 
ENDROOT
BRANCH   1  11
ATOM      7  S   UNL     1      32.923 -20.285 -20.462  0.00  0.00    -0.060 S 
ATOM      8  O   UNL     1      36.040 -17.268 -22.214  0.00  0.00    -0.270 OA
ATOM      9  N   UNL     1      33.936 -18.217 -21.790  0.00  0.00    -0.251 N 
ATOM     10  N   UNL     1      35.442 -19.717 -20.568  0.00  0.00    -0.388 NA
ATOM     11  C   UNL     1      34.807 -17.274 -22.351  0.00  0.00    +0.253 C 
ATOM     12  C   UNL     1      34.253 -19.331 -20.974  0.00  0.00    +0.213 C 
ATOM     13  C   UNL     1      35.302 -20.851 -19.793  0.00  0.00    +0.101 C 
ATOM     14  C   UNL     1      34.013 -21.309 -19.621  0.00  0.00    +0.120 C 
ATOM     15  C   UNL     1      36.518 -21.465 -19.223  0.00  0.00    +0.063 C 
ATOM     16  H   UNL     1      32.980 -18.088 -21.989  0.00  0.00    +0.158 HD
ENDBRANCH   1  11
BRANCH   2  17
ATOM     17  N   UNL     1      34.781 -17.431 -25.225  0.00  0.00    -0.331 N 
ATOM     18  C   UNL     1      34.192 -18.733 -25.258  0.00  0.00    +0.109 C 
ATOM     19  H   UNL     1      35.643 -17.293 -25.680  0.00  0.00    +0.147 HD
ENDBRANCH   2  17
BRANCH   4  20
ATOM     20  S   UNL     1      32.209 -12.764 -22.502  0.00  0.00    -0.051 S 
BRANCH  20  24
ATOM     21  N   UNL     1      32.717 -10.096 -23.095  0.00  0.00    -0.246 N 
ATOM     22  N   UNL     1      34.148 -11.470 -24.019  0.00  0.00    -0.124 NA
ATOM     23  N   UNL     1      34.490 -10.181 -24.375  0.00  0.00    -0.128 NA
ATOM     24  C   UNL     1      33.082 -11.399 -23.252  0.00  0.00    +0.189 C 
ATOM     25  C   UNL     1      31.613  -9.555 -22.340  0.00  0.00    +0.121 C 
ATOM     26  C   UNL     1      33.621  -9.372 -23.811  0.00  0.00    +0.193 C 
ENDBRANCH  20  24
ENDBRANCH   4  20
TORSDOF 4
ENDMDL
MODEL 3
REMARK VINA RESULT:      -9.3      9.786     12.675
REMARK  Name = 25229552
REMARK  4 active torsions:
REMARK  status: ('A' for Active; 'I' for Inactive)
REMARK    1  A    between atoms: C_1  and  C_11
REMARK    2  A    between atoms: C_2  and  N_17
REMARK    3  A    between atoms: C_4  and  S_20
REMARK    4  A    between atoms: S_20  and  C_24
REMARK                            x       y       z     vdW  Elec       q    Type
REMARK                         _______ _______ _______ _____ _____    ______ ____
ROOT
ATOM      1  C   UNL     1      35.538 -23.302 -16.174  0.00  0.00    +0.067 C 
ATOM      2  C   UNL     1      36.389 -22.415 -16.833  0.00  0.00    +0.049 C 
ATOM      3  C   UNL     1      36.045 -24.165 -15.202  0.00  0.00    +0.012 C 
ATOM      4  C   UNL     1      37.405 -24.140 -14.890  0.00  0.00    +0.032 C 
ATOM      5  C   UNL     1      37.748 -22.390 -16.520  0.00  0.00    +0.015 C 
ATOM      6  C   UNL     1      38.256 -23.252 -15.548  0.00  0.00    +0.008 C 
ENDROOT
BRANCH   1  11
ATOM      7  S   UNL     1      31.102 -23.315 -13.810  0.00  0.00    -0.060 S 
ATOM      8  O   UNL     1      33.753 -23.386 -17.665  0.00  0.00    -0.270 OA
ATOM      9  N   UNL     1      33.253 -23.334 -15.373  0.00  0.00    -0.251 N 
ATOM     10  N   UNL     1      31.024 -23.384 -16.393  0.00  0.00    -0.388 NA
ATOM     11  C   UNL     1      34.113 -23.352 -16.478  0.00  0.00    +0.253 C 
ATOM     12  C   UNL     1      31.837 -23.349 -15.359  0.00  0.00    +0.213 C 
ATOM     13  C   UNL     1      29.721 -23.385 -15.935  0.00  0.00    +0.101 C 
ATOM     14  C   UNL     1      29.563 -23.351 -14.566  0.00  0.00    +0.120 C 
ATOM     15  C   UNL     1      28.629 -23.422 -16.928  0.00  0.00    +0.063 C 
ATOM     16  H   UNL     1      33.690 -23.308 -14.491  0.00  0.00    +0.158 HD
ENDBRANCH   1  11
BRANCH   2  17
ATOM     17  N   UNL     1      35.895 -21.533 -17.820  0.00  0.00    -0.331 N 
ATOM     18  C   UNL     1      36.479 -21.420 -19.119  0.00  0.00    +0.109 C 
ATOM     19  H   UNL     1      35.116 -20.973 -17.603  0.00  0.00    +0.147 HD
ENDBRANCH   2  17
BRANCH   4  20
ATOM     20  S   UNL     1      38.054 -25.241 -13.648  0.00  0.00    -0.051 S 
BRANCH  20  24
ATOM     21  N   UNL     1      36.995 -23.689 -11.599  0.00  0.00    -0.246 N 
ATOM     22  N   UNL     1      36.088 -25.676 -11.729  0.00  0.00    -0.124 NA
ATOM     23  N   UNL     1      35.493 -24.993 -10.688  0.00  0.00    -0.128 NA
ATOM     24  C   UNL     1      36.986 -24.878 -12.263  0.00  0.00    +0.189 C 
ATOM     25  C   UNL     1      37.816 -22.528 -11.843  0.00  0.00    +0.121 C 
ATOM     26  C   UNL     1      36.050 -23.804 -10.626  0.00  0.00    +0.193 C 
ENDBRANCH  20  24
ENDBRANCH   4  20
TORSDOF 4
ENDMDL
MODEL 4
REMARK VINA RESULT:      -9.3      9.528     12.692
REMARK  Name = 25229552
REMARK  4 active torsions:
REMARK  status: ('A' for Active; 'I' for Inactive)
REMARK    1  A    between atoms: C_1  and  C_11
REMARK    2  A    between atoms: C_2  and  N_17
REMARK    3  A    between atoms: C_4  and  S_20
REMARK    4  A    between atoms: S_20  and  C_24
REMARK                            x       y       z     vdW  Elec       q    Type
REMARK                         _______ _______ _______ _____ _____    ______ ____
ROOT
ATOM      1  C   UNL     1      34.927 -23.007 -16.305  0.00  0.00    +0.067 C 
ATOM      2  C   UNL     1      35.756 -22.376 -17.233  0.00  0.00    +0.049 C 
ATOM      3  C   UNL     1      35.455 -23.473 -15.101  0.00  0.00    +0.012 C 
ATOM      4  C   UNL     1      36.813 -23.307 -14.826  0.00  0.00    +0.032 C 
ATOM      5  C   UNL     1      37.113 -22.211 -16.957  0.00  0.00    +0.015 C 
ATOM      6  C   UNL     1      37.641 -22.676 -15.753  0.00  0.00    +0.008 C 
ENDROOT
BRANCH   1  11
ATOM      7  S   UNL     1      30.801 -24.738 -14.016  0.00  0.00    -0.060 S 
ATOM      8  O   UNL     1      33.040 -22.834 -17.656  0.00  0.00    -0.270 OA
ATOM      9  N   UNL     1      32.765 -23.761 -15.518  0.00  0.00    -0.251 N 
ATOM     10  N   UNL     1      30.482 -23.819 -16.410  0.00  0.00    -0.388 NA
ATOM     11  C   UNL     1      33.505 -23.195 -16.564  0.00  0.00    +0.253 C 
ATOM     12  C   UNL     1      31.376 -24.038 -15.471  0.00  0.00    +0.213 C 
ATOM     13  C   UNL     1      29.247 -24.234 -15.954  0.00  0.00    +0.101 C 
ATOM     14  C   UNL     1      29.219 -24.760 -14.680  0.00  0.00    +0.120 C 
ATOM     15  C   UNL     1      28.082 -24.085 -16.849  0.00  0.00    +0.063 C 
ATOM     16  H   UNL     1      33.277 -23.997 -14.711  0.00  0.00    +0.158 HD
ENDBRANCH   1  11
BRANCH   2  17
ATOM     17  N   UNL     1      35.240 -21.896 -18.458  0.00  0.00    -0.331 N 
ATOM     18  C   UNL     1      36.061 -21.290 -19.459  0.00  0.00    +0.109 C 
ATOM     19  H   UNL     1      34.275 -21.983 -18.630  0.00  0.00    +0.147 HD
ENDBRANCH   2  17
BRANCH   4  20
ATOM     20  S   UNL     1      37.489 -23.903 -13.287  0.00  0.00    -0.051 S 
BRANCH  20  24
ATOM     21  N   UNL     1      38.708 -26.092 -14.492  0.00  0.00    -0.246 N 
ATOM     22  N   UNL     1      40.138 -24.601 -13.769  0.00  0.00    -0.124 NA
ATOM     23  N   UNL     1      40.844 -25.637 -14.346  0.00  0.00    -0.128 NA
ATOM     24  C   UNL     1      38.859 -24.892 -13.865  0.00  0.00    +0.189 C 
ATOM     25  C   UNL     1      37.489 -26.795 -14.809  0.00  0.00    +0.121 C 
ATOM     26  C   UNL     1      39.969 -26.521 -14.773  0.00  0.00    +0.193 C 
ENDBRANCH  20  24
ENDBRANCH   4  20
TORSDOF 4
ENDMDL
MODEL 5
REMARK VINA RESULT:      -9.2      8.247     11.539
REMARK  Name = 25229552
REMARK  4 active torsions:
REMARK  status: ('A' for Active; 'I' for Inactive)
REMARK    1  A    between atoms: C_1  and  C_11
REMARK    2  A    between atoms: C_2  and  N_17
REMARK    3  A    between atoms: C_4  and  S_20
REMARK    4  A    between atoms: S_20  and  C_24
REMARK                            x       y       z     vdW  Elec       q    Type
REMARK                         _______ _______ _______ _____ _____    ______ ____
ROOT
ATOM      1  C   UNL     1      34.441 -22.368 -17.555  0.00  0.00    +0.067 C 
ATOM      2  C   UNL     1      35.200 -21.842 -18.601  0.00  0.00    +0.049 C 
ATOM      3  C   UNL     1      35.067 -22.789 -16.381  0.00  0.00    +0.012 C 
ATOM      4  C   UNL     1      36.452 -22.684 -16.254  0.00  0.00    +0.032 C 
ATOM      5  C   UNL     1      36.585 -21.737 -18.472  0.00  0.00    +0.015 C 
ATOM      6  C   UNL     1      37.211 -22.157 -17.299  0.00  0.00    +0.008 C 
ENDROOT
BRANCH   1  11
ATOM      7  S   UNL     1      30.522 -23.989 -14.857  0.00  0.00    -0.060 S 
ATOM      8  O   UNL     1      32.426 -22.083 -18.683  0.00  0.00    -0.270 OA
ATOM      9  N   UNL     1      32.349 -23.053 -16.548  0.00  0.00    -0.251 N 
ATOM     10  N   UNL     1      29.981 -22.995 -17.182  0.00  0.00    -0.388 NA
ATOM     11  C   UNL     1      32.992 -22.491 -17.658  0.00  0.00    +0.253 C 
ATOM     12  C   UNL     1      30.963 -23.275 -16.353  0.00  0.00    +0.213 C 
ATOM     13  C   UNL     1      28.787 -23.371 -16.600  0.00  0.00    +0.101 C 
ATOM     14  C   UNL     1      28.877 -23.928 -15.341  0.00  0.00    +0.120 C 
ATOM     15  C   UNL     1      27.538 -23.151 -17.356  0.00  0.00    +0.063 C 
ATOM     16  H   UNL     1      32.936 -23.331 -15.808  0.00  0.00    +0.158 HD
ENDBRANCH   1  11
BRANCH   2  17
ATOM     17  N   UNL     1      34.586 -21.409 -19.797  0.00  0.00    -0.331 N 
ATOM     18  C   UNL     1      35.010 -20.243 -20.507  0.00  0.00    +0.109 C 
ATOM     19  H   UNL     1      33.835 -21.933 -20.157  0.00  0.00    +0.147 HD
ENDBRANCH   2  17
BRANCH   4  20
ATOM     20  S   UNL     1      37.253 -23.221 -14.754  0.00  0.00    -0.051 S 
BRANCH  20  24
ATOM     21  N   UNL     1      37.938 -25.871 -14.266  0.00  0.00    -0.246 N 
ATOM     22  N   UNL     1      36.209 -25.660 -15.590  0.00  0.00    -0.124 NA
ATOM     23  N   UNL     1      36.461 -27.006 -15.414  0.00  0.00    -0.128 NA
ATOM     24  C   UNL     1      37.105 -24.996 -14.895  0.00  0.00    +0.189 C 
ATOM     25  C   UNL     1      39.059 -25.586 -13.403  0.00  0.00    +0.121 C 
ATOM     26  C   UNL     1      37.501 -27.112 -14.618  0.00  0.00    +0.193 C 
ENDBRANCH  20  24
ENDBRANCH   4  20
TORSDOF 4
ENDMDL
MODEL 6
REMARK VINA RESULT:      -9.2      1.545      1.712
REMARK  Name = 25229552
REMARK  4 active torsions:
REMARK  status: ('A' for Active; 'I' for Inactive)
REMARK    1  A    between atoms: C_1  and  C_11
REMARK    2  A    between atoms: C_2  and  N_17
REMARK    3  A    between atoms: C_4  and  S_20
REMARK    4  A    between atoms: S_20  and  C_24
REMARK                            x       y       z     vdW  Elec       q    Type
REMARK                         _______ _______ _______ _____ _____    ______ ____
ROOT
ATOM      1  C   UNL     1      33.872 -14.898 -23.990  0.00  0.00    +0.067 C 
ATOM      2  C   UNL     1      33.506 -15.542 -25.172  0.00  0.00    +0.049 C 
ATOM      3  C   UNL     1      34.609 -15.580 -23.022  0.00  0.00    +0.012 C 
ATOM      4  C   UNL     1      34.979 -16.909 -23.236  0.00  0.00    +0.032 C 
ATOM      5  C   UNL     1      33.877 -16.870 -25.386  0.00  0.00    +0.015 C 
ATOM      6  C   UNL     1      34.614 -17.553 -24.418  0.00  0.00    +0.008 C 
ENDROOT
BRANCH   1  11
ATOM      7  S   UNL     1      31.431 -12.139 -20.570  0.00  0.00    -0.060 S 
ATOM      8  O   UNL     1      33.858 -12.636 -24.540  0.00  0.00    -0.270 OA
ATOM      9  N   UNL     1      32.770 -13.281 -22.563  0.00  0.00    -0.251 N 
ATOM     10  N   UNL     1      32.443 -10.851 -22.570  0.00  0.00    -0.388 NA
ATOM     11  C   UNL     1      33.500 -13.511 -23.736  0.00  0.00    +0.253 C 
ATOM     12  C   UNL     1      32.296 -12.049 -22.049  0.00  0.00    +0.213 C 
ATOM     13  C   UNL     1      31.829  -9.928 -21.748  0.00  0.00    +0.101 C 
ATOM     14  C   UNL     1      31.226 -10.436 -20.616  0.00  0.00    +0.120 C 
ATOM     15  C   UNL     1      31.866  -8.505 -22.138  0.00  0.00    +0.063 C 
ATOM     16  H   UNL     1      32.559 -14.080 -22.027  0.00  0.00    +0.158 HD
ENDBRANCH   1  11
BRANCH   2  17
ATOM     17  N   UNL     1      32.761 -14.868 -26.165  0.00  0.00    -0.331 N 
ATOM     18  C   UNL     1      33.374 -14.149 -27.237  0.00  0.00    +0.109 C 
ATOM     19  H   UNL     1      31.779 -14.895 -26.117  0.00  0.00    +0.147 HD
ENDBRANCH   2  17
BRANCH   4  20
ATOM     20  S   UNL     1      35.920 -17.782 -22.000  0.00  0.00    -0.051 S 
BRANCH  20  24
ATOM     21  N   UNL     1      34.945 -19.973 -20.592  0.00  0.00    -0.246 N 
ATOM     22  N   UNL     1      33.365 -18.644 -21.316  0.00  0.00    -0.124 NA
ATOM     23  N   UNL     1      32.776 -19.690 -20.635  0.00  0.00    -0.128 NA
ATOM     24  C   UNL     1      34.666 -18.831 -21.280  0.00  0.00    +0.189 C 
ATOM     25  C   UNL     1      36.232 -20.561 -20.308  0.00  0.00    +0.121 C 
ATOM     26  C   UNL     1      33.739 -20.475 -20.209  0.00  0.00    +0.193 C 
ENDBRANCH  20  24
ENDBRANCH   4  20
TORSDOF 4
ENDMDL
MODEL 7
REMARK VINA RESULT:      -9.2      6.139     10.140
REMARK  Name = 25229552
REMARK  4 active torsions:
REMARK  status: ('A' for Active; 'I' for Inactive)
REMARK    1  A    between atoms: C_1  and  C_11
REMARK    2  A    between atoms: C_2  and  N_17
REMARK    3  A    between atoms: C_4  and  S_20
REMARK    4  A    between atoms: S_20  and  C_24
REMARK                            x       y       z     vdW  Elec       q    Type
REMARK                         _______ _______ _______ _____ _____    ______ ____
ROOT
ATOM      1  C   UNL     1      34.422 -22.411 -17.845  0.00  0.00    +0.067 C 
ATOM      2  C   UNL     1      33.342 -22.925 -17.127  0.00  0.00    +0.049 C 
ATOM      3  C   UNL     1      35.715 -22.513 -17.331  0.00  0.00    +0.012 C 
ATOM      4  C   UNL     1      35.927 -23.130 -16.097  0.00  0.00    +0.032 C 
ATOM      5  C   UNL     1      33.556 -23.542 -15.894  0.00  0.00    +0.015 C 
ATOM      6  C   UNL     1      34.848 -23.645 -15.379  0.00  0.00    +0.008 C 
ENDROOT
BRANCH   1  11
ATOM      7  S   UNL     1      36.684 -19.055 -20.826  0.00  0.00    -0.060 S 
ATOM      8  O   UNL     1      33.243 -22.062 -19.821  0.00  0.00    -0.270 OA
ATOM      9  N   UNL     1      35.224 -20.845 -19.508  0.00  0.00    -0.251 N 
ATOM     10  N   UNL     1      34.488 -20.084 -21.720  0.00  0.00    -0.388 NA
ATOM     11  C   UNL     1      34.232 -21.761 -19.136  0.00  0.00    +0.253 C 
ATOM     12  C   UNL     1      35.320 -20.087 -20.701  0.00  0.00    +0.213 C 
ATOM     13  C   UNL     1      34.955 -19.204 -22.675  0.00  0.00    +0.101 C 
ATOM     14  C   UNL     1      36.132 -18.552 -22.370  0.00  0.00    +0.120 C 
ATOM     15  C   UNL     1      34.174 -19.035 -23.916  0.00  0.00    +0.063 C 
ATOM     16  H   UNL     1      35.950 -20.710 -18.855  0.00  0.00    +0.158 HD
ENDBRANCH   1  11
BRANCH   2  17
ATOM     17  N   UNL     1      32.026 -22.833 -17.630  0.00  0.00    -0.331 N 
ATOM     18  C   UNL     1      30.874 -22.799 -16.784  0.00  0.00    +0.109 C 
ATOM     19  H   UNL     1      31.896 -22.789 -18.605  0.00  0.00    +0.147 HD
ENDBRANCH   2  17
BRANCH   4  20
ATOM     20  S   UNL     1      37.579 -23.261 -15.440  0.00  0.00    -0.051 S 
BRANCH  20  24
ATOM     21  N   UNL     1      37.371 -24.847 -13.166  0.00  0.00    -0.246 N 
ATOM     22  N   UNL     1      37.472 -26.008 -15.018  0.00  0.00    -0.124 NA
ATOM     23  N   UNL     1      37.370 -26.886 -13.959  0.00  0.00    -0.128 NA
ATOM     24  C   UNL     1      37.471 -24.790 -14.523  0.00  0.00    +0.189 C 
ATOM     25  C   UNL     1      37.335 -23.759 -12.219  0.00  0.00    +0.121 C 
ATOM     26  C   UNL     1      37.311 -26.172 -12.857  0.00  0.00    +0.193 C 
ENDBRANCH  20  24
ENDBRANCH   4  20
TORSDOF 4
ENDMDL
MODEL 8
REMARK VINA RESULT:      -9.2      2.010      2.262
REMARK  Name = 25229552
REMARK  4 active torsions:
REMARK  status: ('A' for Active; 'I' for Inactive)
REMARK    1  A    between atoms: C_1  and  C_11
REMARK    2  A    between atoms: C_2  and  N_17
REMARK    3  A    between atoms: C_4  and  S_20
REMARK    4  A    between atoms: S_20  and  C_24
REMARK                            x       y       z     vdW  Elec       q    Type
REMARK                         _______ _______ _______ _____ _____    ______ ____
ROOT
ATOM      1  C   UNL     1      34.016 -15.911 -22.132  0.00  0.00    +0.067 C 
ATOM      2  C   UNL     1      34.046 -15.941 -23.527  0.00  0.00    +0.049 C 
ATOM      3  C   UNL     1      34.657 -16.910 -21.398  0.00  0.00    +0.012 C 
ATOM      4  C   UNL     1      35.327 -17.939 -22.060  0.00  0.00    +0.032 C 
ATOM      5  C   UNL     1      34.716 -16.971 -24.187  0.00  0.00    +0.015 C 
ATOM      6  C   UNL     1      35.357 -17.969 -23.454  0.00  0.00    +0.008 C 
ENDROOT
BRANCH   1  11
ATOM      7  S   UNL     1      32.341 -11.229 -22.867  0.00  0.00    -0.060 S 
ATOM      8  O   UNL     1      32.965 -15.051 -20.242  0.00  0.00    -0.270 OA
ATOM      9  N   UNL     1      33.099 -13.670 -22.134  0.00  0.00    -0.251 N 
ATOM     10  N   UNL     1      31.893 -12.254 -20.537  0.00  0.00    -0.388 NA
ATOM     11  C   UNL     1      33.324 -14.849 -21.412  0.00  0.00    +0.253 C 
ATOM     12  C   UNL     1      32.439 -12.490 -21.709  0.00  0.00    +0.213 C 
ATOM     13  C   UNL     1      31.355 -10.982 -20.544  0.00  0.00    +0.101 C 
ATOM     14  C   UNL     1      31.500 -10.273 -21.718  0.00  0.00    +0.120 C 
ATOM     15  C   UNL     1      30.685 -10.496 -19.322  0.00  0.00    +0.063 C 
ATOM     16  H   UNL     1      33.446 -13.659 -23.056  0.00  0.00    +0.158 HD
ENDBRANCH   1  11
BRANCH   2  17
ATOM     17  N   UNL     1      33.404 -14.939 -24.288  0.00  0.00    -0.331 N 
ATOM     18  C   UNL     1      33.240 -15.030 -25.705  0.00  0.00    +0.109 C 
ATOM     19  H   UNL     1      33.055 -14.145 -23.823  0.00  0.00    +0.147 HD
ENDBRANCH   2  17
BRANCH   4  20
ATOM     20  S   UNL     1      36.145 -19.216 -21.123  0.00  0.00    -0.051 S 
BRANCH  20  24
ATOM     21  N   UNL     1      34.856 -21.165 -19.617  0.00  0.00    -0.246 N 
ATOM     22  N   UNL     1      33.501 -20.058 -20.931  0.00  0.00    -0.124 NA
ATOM     23  N   UNL     1      32.764 -20.993 -20.233  0.00  0.00    -0.128 NA
ATOM     24  C   UNL     1      34.753 -20.177 -20.549  0.00  0.00    +0.189 C 
ATOM     25  C   UNL     1      36.034 -21.635 -18.928  0.00  0.00    +0.121 C 
ATOM     26  C   UNL     1      33.594 -21.646 -19.451  0.00  0.00    +0.193 C 
ENDBRANCH  20  24
ENDBRANCH   4  20
TORSDOF 4
ENDMDL
MODEL 9
REMARK VINA RESULT:      -8.9      7.054     11.958
REMARK  Name = 25229552
REMARK  4 active torsions:
REMARK  status: ('A' for Active; 'I' for Inactive)
REMARK    1  A    between atoms: C_1  and  C_11
REMARK    2  A    between atoms: C_2  and  N_17
REMARK    3  A    between atoms: C_4  and  S_20
REMARK    4  A    between atoms: S_20  and  C_24
REMARK                            x       y       z     vdW  Elec       q    Type
REMARK                         _______ _______ _______ _____ _____    ______ ____
ROOT
ATOM      1  C   UNL     1      34.951 -22.959 -16.059  0.00  0.00    +0.067 C 
ATOM      2  C   UNL     1      35.994 -22.676 -15.176  0.00  0.00    +0.049 C 
ATOM      3  C   UNL     1      35.060 -22.606 -17.405  0.00  0.00    +0.012 C 
ATOM      4  C   UNL     1      36.213 -21.969 -17.866  0.00  0.00    +0.032 C 
ATOM      5  C   UNL     1      37.145 -22.039 -15.638  0.00  0.00    +0.015 C 
ATOM      6  C   UNL     1      37.255 -21.686 -16.983  0.00  0.00    +0.008 C 
ENDROOT
BRANCH   1  11
ATOM      7  S   UNL     1      29.967 -22.645 -16.622  0.00  0.00    -0.060 S 
ATOM      8  O   UNL     1      33.830 -24.605 -14.855  0.00  0.00    -0.270 OA
ATOM      9  N   UNL     1      32.534 -23.093 -16.095  0.00  0.00    -0.251 N 
ATOM     10  N   UNL     1      30.830 -24.553 -15.108  0.00  0.00    -0.388 NA
ATOM     11  C   UNL     1      33.735 -23.624 -15.607  0.00  0.00    +0.253 C 
ATOM     12  C   UNL     1      31.211 -23.538 -15.852  0.00  0.00    +0.213 C 
ATOM     13  C   UNL     1      29.453 -24.639 -15.143  0.00  0.00    +0.101 C 
ATOM     14  C   UNL     1      28.808 -23.691 -15.910  0.00  0.00    +0.120 C 
ATOM     15  C   UNL     1      28.796 -25.714 -14.373  0.00  0.00    +0.063 C 
ATOM     16  H   UNL     1      32.621 -22.308 -16.684  0.00  0.00    +0.158 HD
ENDBRANCH   1  11
BRANCH   2  17
ATOM     17  N   UNL     1      35.903 -23.027 -13.811  0.00  0.00    -0.331 N 
ATOM     18  C   UNL     1      36.994 -23.597 -13.084  0.00  0.00    +0.109 C 
ATOM     19  H   UNL     1      35.053 -22.871 -13.339  0.00  0.00    +0.147 HD
ENDBRANCH   2  17
BRANCH   4  20
ATOM     20  S   UNL     1      36.353 -21.517 -19.584  0.00  0.00    -0.051 S 
BRANCH  20  24
ATOM     21  N   UNL     1      34.450 -19.781 -20.631  0.00  0.00    -0.246 N 
ATOM     22  N   UNL     1      33.572 -21.473 -19.558  0.00  0.00    -0.124 NA
ATOM     23  N   UNL     1      32.547 -20.681 -20.034  0.00  0.00    -0.128 NA
ATOM     24  C   UNL     1      34.705 -20.917 -19.925  0.00  0.00    +0.189 C 
ATOM     25  C   UNL     1      35.389 -18.859 -21.224  0.00  0.00    +0.121 C 
ATOM     26  C   UNL     1      33.094 -19.671 -20.675  0.00  0.00    +0.193 C 
ENDBRANCH  20  24
ENDBRANCH   4  20
TORSDOF 4
ENDMDL
