MODEL 1
REMARK VINA RESULT:      -9.7      0.000      0.000
REMARK  Name = 11674979
REMARK  4 active torsions:
REMARK  status: ('A' for Active; 'I' for Inactive)
REMARK    1  A    between atoms: C_4  and  C_20
REMARK    2  A    between atoms: C_5  and  C_13
REMARK    3  A    between atoms: C_20  and  C_21
REMARK    4  A    between atoms: C_24  and  O_27
REMARK                            x       y       z     vdW  Elec       q    Type
REMARK                         _______ _______ _______ _____ _____    ______ ____
ROOT
ATOM      1  N   UNL     1      34.824 -11.151 -24.960  0.00  0.00    -0.297 N 
ATOM      2  N   UNL     1      33.075 -12.382 -23.852  0.00  0.00    -0.229 NA
ATOM      3  C   UNL     1      33.521  -9.988 -23.568  0.00  0.00    +0.036 C 
ATOM      4  C   UNL     1      34.490  -9.113 -24.130  0.00  0.00    +0.056 C 
ATOM      5  C   UNL     1      32.461  -9.862 -22.657  0.00  0.00    +0.005 C 
ATOM      6  C   UNL     1      33.757 -11.249 -24.107  0.00  0.00    +0.132 C 
ATOM      7  C   UNL     1      35.277  -9.857 -24.983  0.00  0.00    +0.066 C 
ATOM      8  C   UNL     1      31.721 -11.004 -22.357  0.00  0.00    +0.021 C 
ATOM      9  C   UNL     1      32.066 -12.202 -22.968  0.00  0.00    +0.100 C 
ATOM     10  H   UNL     1      35.207 -11.895 -25.479  0.00  0.00    +0.154 HD
ENDROOT
BRANCH   5  13
ATOM     11  F   UNL     1      30.132  -5.631 -22.719  0.00  0.00    -0.204 F 
ATOM     12  F   UNL     1      33.013  -6.643 -19.099  0.00  0.00    -0.204 F 
ATOM     13  C   UNL     1      32.157  -8.586 -22.058  0.00  0.00    +0.005 C 
ATOM     14  C   UNL     1      32.743  -8.222 -20.844  0.00  0.00    +0.030 C 
ATOM     15  C   UNL     1      31.273  -7.706 -22.690  0.00  0.00    +0.030 C 
ATOM     16  C   UNL     1      30.979  -6.472 -22.111  0.00  0.00    +0.142 C 
ATOM     17  C   UNL     1      32.449  -6.988 -20.264  0.00  0.00    +0.142 C 
ATOM     18  C   UNL     1      31.567  -6.113 -20.897  0.00  0.00    +0.059 C 
ENDBRANCH   5  13
BRANCH   4  20
ATOM     19  O   UNL     1      35.239  -7.292 -22.869  0.00  0.00    -0.287 OA
ATOM     20  C   UNL     1      34.674  -7.709 -23.903  0.00  0.00    +0.197 C 
BRANCH  20  21
ATOM     21  C   UNL     1      34.211  -6.654 -24.872  0.00  0.00    +0.042 C 
ATOM     22  C   UNL     1      32.966  -6.111 -24.692  0.00  0.00    +0.040 C 
ATOM     23  C   UNL     1      35.059  -6.288 -25.885  0.00  0.00    +0.003 C 
ATOM     24  C   UNL     1      32.537  -5.132 -25.588  0.00  0.00    +0.139 C 
ATOM     25  C   UNL     1      34.630  -5.310 -26.782  0.00  0.00    +0.003 C 
ATOM     26  C   UNL     1      33.369  -4.732 -26.634  0.00  0.00    +0.037 C 
BRANCH  24  27
ATOM     27  O   UNL     1      31.308  -4.569 -25.443  0.00  0.00    -0.471 OA
ATOM     28  C   UNL     1      31.255  -3.265 -24.863  0.00  0.00    +0.252 C 
ENDBRANCH  24  27
ENDBRANCH  20  21
ENDBRANCH   4  20
TORSDOF 4
ENDMDL
MODEL 2
REMARK VINA RESULT:      -9.4      2.544      5.127
REMARK  Name = 11674979
REMARK  4 active torsions:
REMARK  status: ('A' for Active; 'I' for Inactive)
REMARK    1  A    between atoms: C_4  and  C_20
REMARK    2  A    between atoms: C_5  and  C_13
REMARK    3  A    between atoms: C_20  and  C_21
REMARK    4  A    between atoms: C_24  and  O_27
REMARK                            x       y       z     vdW  Elec       q    Type
REMARK                         _______ _______ _______ _____ _____    ______ ____
ROOT
ATOM      1  N   UNL     1      34.041  -5.066 -26.555  0.00  0.00    -0.297 N 
ATOM      2  N   UNL     1      31.933  -4.043 -25.998  0.00  0.00    -0.229 NA
ATOM      3  C   UNL     1      32.979  -5.890 -24.773  0.00  0.00    +0.036 C 
ATOM      4  C   UNL     1      34.194  -6.604 -24.955  0.00  0.00    +0.056 C 
ATOM      5  C   UNL     1      31.912  -5.937 -23.861  0.00  0.00    +0.005 C 
ATOM      6  C   UNL     1      32.914  -4.939 -25.786  0.00  0.00    +0.132 C 
ATOM      7  C   UNL     1      34.826  -6.074 -26.059  0.00  0.00    +0.066 C 
ATOM      8  C   UNL     1      30.868  -5.030 -24.034  0.00  0.00    +0.021 C 
ATOM      9  C   UNL     1      30.932  -4.133 -25.092  0.00  0.00    +0.100 C 
ATOM     10  H   UNL     1      34.255  -4.516 -27.344  0.00  0.00    +0.154 HD
ENDROOT
BRANCH   5  13
ATOM     11  F   UNL     1      30.910 -10.341 -22.151  0.00  0.00    -0.204 F 
ATOM     12  F   UNL     1      32.899  -7.135 -19.288  0.00  0.00    -0.204 F 
ATOM     13  C   UNL     1      31.909  -6.896 -22.785  0.00  0.00    +0.005 C 
ATOM     14  C   UNL     1      32.415  -6.546 -21.531  0.00  0.00    +0.030 C 
ATOM     15  C   UNL     1      31.401  -8.182 -22.991  0.00  0.00    +0.030 C 
ATOM     16  C   UNL     1      31.398  -9.110 -21.950  0.00  0.00    +0.142 C 
ATOM     17  C   UNL     1      32.413  -7.475 -20.489  0.00  0.00    +0.142 C 
ATOM     18  C   UNL     1      31.905  -8.757 -20.699  0.00  0.00    +0.059 C 
ENDBRANCH   5  13
BRANCH   4  20
ATOM     19  O   UNL     1      35.310  -7.466 -23.089  0.00  0.00    -0.287 OA
ATOM     20  C   UNL     1      34.730  -7.683 -24.175  0.00  0.00    +0.197 C 
BRANCH  20  21
ATOM     21  C   UNL     1      34.637  -9.124 -24.596  0.00  0.00    +0.042 C 
ATOM     22  C   UNL     1      33.901  -9.980 -23.819  0.00  0.00    +0.040 C 
ATOM     23  C   UNL     1      35.291  -9.509 -25.738  0.00  0.00    +0.003 C 
ATOM     24  C   UNL     1      33.814 -11.316 -24.210  0.00  0.00    +0.139 C 
ATOM     25  C   UNL     1      35.204 -10.845 -26.128  0.00  0.00    +0.003 C 
ATOM     26  C   UNL     1      34.465 -11.749 -25.364  0.00  0.00    +0.037 C 
BRANCH  24  27
ATOM     27  O   UNL     1      33.093 -12.197 -23.465  0.00  0.00    -0.471 OA
ATOM     28  C   UNL     1      33.631 -13.510 -23.310  0.00  0.00    +0.252 C 
ENDBRANCH  24  27
ENDBRANCH  20  21
ENDBRANCH   4  20
TORSDOF 4
ENDMDL
MODEL 3
REMARK VINA RESULT:      -9.4      2.541      5.265
REMARK  Name = 11674979
REMARK  4 active torsions:
REMARK  status: ('A' for Active; 'I' for Inactive)
REMARK    1  A    between atoms: C_4  and  C_20
REMARK    2  A    between atoms: C_5  and  C_13
REMARK    3  A    between atoms: C_20  and  C_21
REMARK    4  A    between atoms: C_24  and  O_27
REMARK                            x       y       z     vdW  Elec       q    Type
REMARK                         _______ _______ _______ _____ _____    ______ ____
ROOT
ATOM      1  N   UNL     1      34.036  -5.067 -26.559  0.00  0.00    -0.297 N 
ATOM      2  N   UNL     1      31.931  -4.039 -25.996  0.00  0.00    -0.229 NA
ATOM      3  C   UNL     1      32.978  -5.885 -24.770  0.00  0.00    +0.036 C 
ATOM      4  C   UNL     1      34.191  -6.602 -24.955  0.00  0.00    +0.056 C 
ATOM      5  C   UNL     1      31.915  -5.928 -23.855  0.00  0.00    +0.005 C 
ATOM      6  C   UNL     1      32.912  -4.937 -25.786  0.00  0.00    +0.132 C 
ATOM      7  C   UNL     1      34.820  -6.076 -26.063  0.00  0.00    +0.066 C 
ATOM      8  C   UNL     1      30.872  -5.020 -24.026  0.00  0.00    +0.021 C 
ATOM      9  C   UNL     1      30.933  -4.125 -25.086  0.00  0.00    +0.100 C 
ATOM     10  H   UNL     1      34.248  -4.520 -27.350  0.00  0.00    +0.154 HD
ENDROOT
BRANCH   5  13
ATOM     11  F   UNL     1      32.909  -7.114 -19.279  0.00  0.00    -0.204 F 
ATOM     12  F   UNL     1      30.915 -10.327 -22.130  0.00  0.00    -0.204 F 
ATOM     13  C   UNL     1      31.914  -6.885 -22.776  0.00  0.00    +0.005 C 
ATOM     14  C   UNL     1      31.405  -8.170 -22.977  0.00  0.00    +0.030 C 
ATOM     15  C   UNL     1      32.421  -6.530 -21.522  0.00  0.00    +0.030 C 
ATOM     16  C   UNL     1      32.421  -7.456 -20.479  0.00  0.00    +0.142 C 
ATOM     17  C   UNL     1      31.404  -9.096 -21.933  0.00  0.00    +0.142 C 
ATOM     18  C   UNL     1      31.912  -8.739 -20.684  0.00  0.00    +0.059 C 
ENDBRANCH   5  13
BRANCH   4  20
ATOM     19  O   UNL     1      35.311  -7.462 -23.090  0.00  0.00    -0.287 OA
ATOM     20  C   UNL     1      34.728  -7.679 -24.174  0.00  0.00    +0.197 C 
BRANCH  20  21
ATOM     21  C   UNL     1      34.634  -9.122 -24.593  0.00  0.00    +0.042 C 
ATOM     22  C   UNL     1      33.893  -9.974 -23.816  0.00  0.00    +0.040 C 
ATOM     23  C   UNL     1      35.290  -9.510 -25.732  0.00  0.00    +0.003 C 
ATOM     24  C   UNL     1      33.804 -11.311 -24.205  0.00  0.00    +0.139 C 
ATOM     25  C   UNL     1      35.201 -10.847 -26.120  0.00  0.00    +0.003 C 
ATOM     26  C   UNL     1      34.458 -11.747 -25.356  0.00  0.00    +0.037 C 
BRANCH  24  27
ATOM     27  O   UNL     1      33.079 -12.188 -23.460  0.00  0.00    -0.471 OA
ATOM     28  C   UNL     1      33.547 -13.536 -23.405  0.00  0.00    +0.252 C 
ENDBRANCH  24  27
ENDBRANCH  20  21
ENDBRANCH   4  20
TORSDOF 4
ENDMDL
MODEL 4
REMARK VINA RESULT:      -9.3      1.054      2.309
REMARK  Name = 11674979
REMARK  4 active torsions:
REMARK  status: ('A' for Active; 'I' for Inactive)
REMARK    1  A    between atoms: C_4  and  C_20
REMARK    2  A    between atoms: C_5  and  C_13
REMARK    3  A    between atoms: C_20  and  C_21
REMARK    4  A    between atoms: C_24  and  O_27
REMARK                            x       y       z     vdW  Elec       q    Type
REMARK                         _______ _______ _______ _____ _____    ______ ____
ROOT
ATOM      1  N   UNL     1      34.863 -11.138 -25.017  0.00  0.00    -0.297 N 
ATOM      2  N   UNL     1      33.119 -12.384 -23.916  0.00  0.00    -0.229 NA
ATOM      3  C   UNL     1      33.547  -9.987 -23.628  0.00  0.00    +0.036 C 
ATOM      4  C   UNL     1      34.511  -9.105 -24.186  0.00  0.00    +0.056 C 
ATOM      5  C   UNL     1      32.483  -9.869 -22.720  0.00  0.00    +0.005 C 
ATOM      6  C   UNL     1      33.794 -11.246 -24.167  0.00  0.00    +0.132 C 
ATOM      7  C   UNL     1      35.306  -9.842 -25.037  0.00  0.00    +0.066 C 
ATOM      8  C   UNL     1      31.751 -11.017 -22.423  0.00  0.00    +0.021 C 
ATOM      9  C   UNL     1      32.107 -12.212 -23.034  0.00  0.00    +0.100 C 
ATOM     10  H   UNL     1      35.253 -11.879 -25.536  0.00  0.00    +0.154 HD
ENDROOT
BRANCH   5  13
ATOM     11  F   UNL     1      32.981  -6.663 -19.143  0.00  0.00    -0.204 F 
ATOM     12  F   UNL     1      30.149  -5.643 -22.799  0.00  0.00    -0.204 F 
ATOM     13  C   UNL     1      32.168  -8.596 -22.121  0.00  0.00    +0.005 C 
ATOM     14  C   UNL     1      31.293  -7.716 -22.761  0.00  0.00    +0.030 C 
ATOM     15  C   UNL     1      32.738  -8.236 -20.896  0.00  0.00    +0.030 C 
ATOM     16  C   UNL     1      32.433  -7.005 -20.317  0.00  0.00    +0.142 C 
ATOM     17  C   UNL     1      30.989  -6.483 -22.182  0.00  0.00    +0.142 C 
ATOM     18  C   UNL     1      31.559  -6.128 -20.960  0.00  0.00    +0.059 C 
ENDBRANCH   5  13
BRANCH   4  20
ATOM     19  O   UNL     1      35.223  -7.278 -22.911  0.00  0.00    -0.287 OA
ATOM     20  C   UNL     1      34.684  -7.699 -23.958  0.00  0.00    +0.197 C 
BRANCH  20  21
ATOM     21  C   UNL     1      34.239  -6.647 -24.938  0.00  0.00    +0.042 C 
ATOM     22  C   UNL     1      35.135  -6.227 -25.887  0.00  0.00    +0.040 C 
ATOM     23  C   UNL     1      32.960  -6.165 -24.835  0.00  0.00    +0.003 C 
ATOM     24  C   UNL     1      34.723  -5.254 -26.797  0.00  0.00    +0.139 C 
ATOM     25  C   UNL     1      32.549  -5.191 -25.745  0.00  0.00    +0.003 C 
ATOM     26  C   UNL     1      33.430  -4.736 -26.726  0.00  0.00    +0.037 C 
BRANCH  24  27
ATOM     27  O   UNL     1      35.582  -4.810 -27.754  0.00  0.00    -0.471 OA
ATOM     28  C   UNL     1      35.235  -3.602 -28.430  0.00  0.00    +0.252 C 
ENDBRANCH  24  27
ENDBRANCH  20  21
ENDBRANCH   4  20
TORSDOF 4
ENDMDL
MODEL 5
REMARK VINA RESULT:      -9.1     13.510     16.881
REMARK  Name = 11674979
REMARK  4 active torsions:
REMARK  status: ('A' for Active; 'I' for Inactive)
REMARK    1  A    between atoms: C_4  and  C_20
REMARK    2  A    between atoms: C_5  and  C_13
REMARK    3  A    between atoms: C_20  and  C_21
REMARK    4  A    between atoms: C_24  and  O_27
REMARK                            x       y       z     vdW  Elec       q    Type
REMARK                         _______ _______ _______ _____ _____    ______ ____
ROOT
ATOM      1  N   UNL     1      30.326 -22.569 -16.641  0.00  0.00    -0.297 N 
ATOM      2  N   UNL     1      30.388 -22.807 -14.244  0.00  0.00    -0.229 NA
ATOM      3  C   UNL     1      32.294 -23.135 -15.750  0.00  0.00    +0.036 C 
ATOM      4  C   UNL     1      32.438 -23.039 -17.161  0.00  0.00    +0.056 C 
ATOM      5  C   UNL     1      33.139 -23.445 -14.673  0.00  0.00    +0.005 C 
ATOM      6  C   UNL     1      30.967 -22.836 -15.460  0.00  0.00    +0.132 C 
ATOM      7  C   UNL     1      31.211 -22.689 -17.681  0.00  0.00    +0.066 C 
ATOM      8  C   UNL     1      32.591 -23.430 -13.392  0.00  0.00    +0.021 C 
ATOM      9  C   UNL     1      31.247 -23.113 -13.244  0.00  0.00    +0.100 C 
ATOM     10  H   UNL     1      29.376 -22.327 -16.729  0.00  0.00    +0.154 HD
ENDROOT
BRANCH   5  13
ATOM     11  F   UNL     1      36.703 -26.682 -15.048  0.00  0.00    -0.204 F 
ATOM     12  F   UNL     1      37.676 -22.081 -15.609  0.00  0.00    -0.204 F 
ATOM     13  C   UNL     1      34.526 -23.766 -14.897  0.00  0.00    +0.005 C 
ATOM     14  C   UNL     1      35.450 -22.749 -15.150  0.00  0.00    +0.030 C 
ATOM     15  C   UNL     1      34.954 -25.096 -14.865  0.00  0.00    +0.030 C 
ATOM     16  C   UNL     1      36.296 -25.406 -15.081  0.00  0.00    +0.142 C 
ATOM     17  C   UNL     1      36.793 -23.059 -15.368  0.00  0.00    +0.142 C 
ATOM     18  C   UNL     1      37.216 -24.388 -15.334  0.00  0.00    +0.059 C 
ENDBRANCH   5  13
BRANCH   4  20
ATOM     19  O   UNL     1      34.155 -24.372 -18.025  0.00  0.00    -0.287 OA
ATOM     20  C   UNL     1      33.609 -23.249 -17.963  0.00  0.00    +0.197 C 
BRANCH  20  21
ATOM     21  C   UNL     1      34.254 -22.158 -18.774  0.00  0.00    +0.042 C 
ATOM     22  C   UNL     1      33.445 -21.340 -19.518  0.00  0.00    +0.040 C 
ATOM     23  C   UNL     1      35.619 -22.035 -18.725  0.00  0.00    +0.003 C 
ATOM     24  C   UNL     1      34.043 -20.327 -20.269  0.00  0.00    +0.139 C 
ATOM     25  C   UNL     1      36.216 -21.023 -19.476  0.00  0.00    +0.003 C 
ATOM     26  C   UNL     1      35.428 -20.169 -20.248  0.00  0.00    +0.037 C 
BRANCH  24  27
ATOM     27  O   UNL     1      33.274 -19.494 -21.021  0.00  0.00    -0.471 OA
ATOM     28  C   UNL     1      33.846 -18.240 -21.391  0.00  0.00    +0.252 C 
ENDBRANCH  24  27
ENDBRANCH  20  21
ENDBRANCH   4  20
TORSDOF 4
ENDMDL
MODEL 6
REMARK VINA RESULT:      -9.1     13.507     16.866
REMARK  Name = 11674979
REMARK  4 active torsions:
REMARK  status: ('A' for Active; 'I' for Inactive)
REMARK    1  A    between atoms: C_4  and  C_20
REMARK    2  A    between atoms: C_5  and  C_13
REMARK    3  A    between atoms: C_20  and  C_21
REMARK    4  A    between atoms: C_24  and  O_27
REMARK                            x       y       z     vdW  Elec       q    Type
REMARK                         _______ _______ _______ _____ _____    ______ ____
ROOT
ATOM      1  N   UNL     1      30.321 -22.568 -16.635  0.00  0.00    -0.297 N 
ATOM      2  N   UNL     1      30.391 -22.802 -14.238  0.00  0.00    -0.229 NA
ATOM      3  C   UNL     1      32.292 -23.133 -15.751  0.00  0.00    +0.036 C 
ATOM      4  C   UNL     1      32.430 -23.040 -17.162  0.00  0.00    +0.056 C 
ATOM      5  C   UNL     1      33.140 -23.441 -14.675  0.00  0.00    +0.005 C 
ATOM      6  C   UNL     1      30.965 -22.833 -15.455  0.00  0.00    +0.132 C 
ATOM      7  C   UNL     1      31.201 -22.690 -17.678  0.00  0.00    +0.066 C 
ATOM      8  C   UNL     1      32.596 -23.424 -13.392  0.00  0.00    +0.021 C 
ATOM      9  C   UNL     1      31.253 -23.107 -13.241  0.00  0.00    +0.100 C 
ATOM     10  H   UNL     1      29.370 -22.326 -16.720  0.00  0.00    +0.154 HD
ENDROOT
BRANCH   5  13
ATOM     11  F   UNL     1      37.676 -22.077 -15.619  0.00  0.00    -0.204 F 
ATOM     12  F   UNL     1      36.701 -26.679 -15.068  0.00  0.00    -0.204 F 
ATOM     13  C   UNL     1      34.527 -23.762 -14.905  0.00  0.00    +0.005 C 
ATOM     14  C   UNL     1      34.954 -25.092 -14.875  0.00  0.00    +0.030 C 
ATOM     15  C   UNL     1      35.451 -22.745 -15.155  0.00  0.00    +0.030 C 
ATOM     16  C   UNL     1      36.793 -23.055 -15.377  0.00  0.00    +0.142 C 
ATOM     17  C   UNL     1      36.296 -25.403 -15.096  0.00  0.00    +0.142 C 
ATOM     18  C   UNL     1      37.216 -24.385 -15.347  0.00  0.00    +0.059 C 
ENDBRANCH   5  13
BRANCH   4  20
ATOM     19  O   UNL     1      34.140 -24.376 -18.034  0.00  0.00    -0.287 OA
ATOM     20  C   UNL     1      33.598 -23.251 -17.968  0.00  0.00    +0.197 C 
BRANCH  20  21
ATOM     21  C   UNL     1      34.244 -22.160 -18.778  0.00  0.00    +0.042 C 
ATOM     22  C   UNL     1      33.435 -21.344 -19.526  0.00  0.00    +0.040 C 
ATOM     23  C   UNL     1      35.608 -22.036 -18.726  0.00  0.00    +0.003 C 
ATOM     24  C   UNL     1      34.034 -20.331 -20.275  0.00  0.00    +0.139 C 
ATOM     25  C   UNL     1      36.206 -21.023 -19.477  0.00  0.00    +0.003 C 
ATOM     26  C   UNL     1      35.419 -20.171 -20.251  0.00  0.00    +0.037 C 
BRANCH  24  27
ATOM     27  O   UNL     1      33.266 -19.500 -21.030  0.00  0.00    -0.471 OA
ATOM     28  C   UNL     1      33.837 -18.246 -21.402  0.00  0.00    +0.252 C 
ENDBRANCH  24  27
ENDBRANCH  20  21
ENDBRANCH   4  20
TORSDOF 4
ENDMDL
MODEL 7
REMARK VINA RESULT:      -8.6      3.964      6.728
REMARK  Name = 11674979
REMARK  4 active torsions:
REMARK  status: ('A' for Active; 'I' for Inactive)
REMARK    1  A    between atoms: C_4  and  C_20
REMARK    2  A    between atoms: C_5  and  C_13
REMARK    3  A    between atoms: C_20  and  C_21
REMARK    4  A    between atoms: C_24  and  O_27
REMARK                            x       y       z     vdW  Elec       q    Type
REMARK                         _______ _______ _______ _____ _____    ______ ____
ROOT
ATOM      1  N   UNL     1      32.932 -15.666 -20.032  0.00  0.00    -0.297 N 
ATOM      2  N   UNL     1      34.554 -16.902 -21.314  0.00  0.00    -0.229 NA
ATOM      3  C   UNL     1      33.453 -14.835 -22.039  0.00  0.00    +0.036 C 
ATOM      4  C   UNL     1      32.491 -13.988 -21.426  0.00  0.00    +0.056 C 
ATOM      5  C   UNL     1      34.147 -14.850 -23.259  0.00  0.00    +0.005 C 
ATOM      6  C   UNL     1      33.706 -15.870 -21.144  0.00  0.00    +0.132 C 
ATOM      7  C   UNL     1      32.190 -14.525 -20.192  0.00  0.00    +0.066 C 
ATOM      8  C   UNL     1      35.038 -15.897 -23.487  0.00  0.00    +0.021 C 
ATOM      9  C   UNL     1      35.195 -16.866 -22.506  0.00  0.00    +0.100 C 
ATOM     10  H   UNL     1      32.913 -16.249 -19.239  0.00  0.00    +0.154 HD
ENDROOT
BRANCH   5  13
ATOM     11  F   UNL     1      32.542 -13.393 -27.575  0.00  0.00    -0.204 F 
ATOM     12  F   UNL     1      34.515 -10.239 -24.644  0.00  0.00    -0.204 F 
ATOM     13  C   UNL     1      33.935 -13.811 -24.235  0.00  0.00    +0.005 C 
ATOM     14  C   UNL     1      34.335 -12.500 -23.964  0.00  0.00    +0.030 C 
ATOM     15  C   UNL     1      33.327 -14.109 -25.459  0.00  0.00    +0.030 C 
ATOM     16  C   UNL     1      33.123 -13.103 -26.403  0.00  0.00    +0.142 C 
ATOM     17  C   UNL     1      34.130 -11.494 -24.908  0.00  0.00    +0.142 C 
ATOM     18  C   UNL     1      33.524 -11.795 -26.128  0.00  0.00    +0.059 C 
ENDBRANCH   5  13
BRANCH   4  20
ATOM     19  O   UNL     1      31.337 -12.761 -23.048  0.00  0.00    -0.287 OA
ATOM     20  C   UNL     1      31.899 -12.783 -21.932  0.00  0.00    +0.197 C 
BRANCH  20  21
ATOM     21  C   UNL     1      31.910 -11.483 -21.174  0.00  0.00    +0.042 C 
ATOM     22  C   UNL     1      32.166 -10.330 -21.870  0.00  0.00    +0.040 C 
ATOM     23  C   UNL     1      31.661 -11.517 -19.827  0.00  0.00    +0.003 C 
ATOM     24  C   UNL     1      32.175  -9.125 -21.168  0.00  0.00    +0.139 C 
ATOM     25  C   UNL     1      31.671 -10.311 -19.125  0.00  0.00    +0.003 C 
ATOM     26  C   UNL     1      31.928  -9.115 -19.796  0.00  0.00    +0.037 C 
BRANCH  24  27
ATOM     27  O   UNL     1      32.425  -7.959 -21.823  0.00  0.00    -0.471 OA
ATOM     28  C   UNL     1      31.845  -6.772 -21.281  0.00  0.00    +0.252 C 
ENDBRANCH  24  27
ENDBRANCH  20  21
ENDBRANCH   4  20
TORSDOF 4
ENDMDL
MODEL 8
REMARK VINA RESULT:      -8.6      5.748      9.467
REMARK  Name = 11674979
REMARK  4 active torsions:
REMARK  status: ('A' for Active; 'I' for Inactive)
REMARK    1  A    between atoms: C_4  and  C_20
REMARK    2  A    between atoms: C_5  and  C_13
REMARK    3  A    between atoms: C_20  and  C_21
REMARK    4  A    between atoms: C_24  and  O_27
REMARK                            x       y       z     vdW  Elec       q    Type
REMARK                         _______ _______ _______ _____ _____    ______ ____
ROOT
ATOM      1  N   UNL     1      33.208 -14.590 -19.857  0.00  0.00    -0.297 N 
ATOM      2  N   UNL     1      31.771 -12.678 -20.140  0.00  0.00    -0.229 NA
ATOM      3  C   UNL     1      33.060 -13.758 -21.924  0.00  0.00    +0.036 C 
ATOM      4  C   UNL     1      33.941 -14.872 -21.938  0.00  0.00    +0.056 C 
ATOM      5  C   UNL     1      32.577 -12.845 -22.875  0.00  0.00    +0.005 C 
ATOM      6  C   UNL     1      32.621 -13.609 -20.612  0.00  0.00    +0.132 C 
ATOM      7  C   UNL     1      34.013 -15.363 -20.652  0.00  0.00    +0.066 C 
ATOM      8  C   UNL     1      31.693 -11.859 -22.440  0.00  0.00    +0.021 C 
ATOM      9  C   UNL     1      31.337 -11.826 -21.098  0.00  0.00    +0.100 C 
ATOM     10  H   UNL     1      33.073 -14.720 -18.890  0.00  0.00    +0.154 HD
ENDROOT
BRANCH   5  13
ATOM     11  F   UNL     1      32.590 -15.151 -27.119  0.00  0.00    -0.204 F 
ATOM     12  F   UNL     1      34.963 -11.075 -26.682  0.00  0.00    -0.204 F 
ATOM     13  C   UNL     1      32.988 -12.937 -24.253  0.00  0.00    +0.005 C 
ATOM     14  C   UNL     1      33.793 -11.942 -24.814  0.00  0.00    +0.030 C 
ATOM     15  C   UNL     1      32.582 -14.021 -25.037  0.00  0.00    +0.030 C 
ATOM     16  C   UNL     1      32.980 -14.110 -26.371  0.00  0.00    +0.142 C 
ATOM     17  C   UNL     1      34.191 -12.030 -26.149  0.00  0.00    +0.142 C 
ATOM     18  C   UNL     1      33.785 -13.114 -26.927  0.00  0.00    +0.059 C 
ENDBRANCH   5  13
BRANCH   4  20
ATOM     19  O   UNL     1      35.341 -14.721 -23.807  0.00  0.00    -0.287 OA
ATOM     20  C   UNL     1      34.657 -15.439 -23.045  0.00  0.00    +0.197 C 
BRANCH  20  21
ATOM     21  C   UNL     1      34.639 -16.910 -23.365  0.00  0.00    +0.042 C 
ATOM     22  C   UNL     1      34.813 -17.799 -22.336  0.00  0.00    +0.040 C 
ATOM     23  C   UNL     1      34.449 -17.286 -24.670  0.00  0.00    +0.003 C 
ATOM     24  C   UNL     1      34.795 -19.161 -22.633  0.00  0.00    +0.139 C 
ATOM     25  C   UNL     1      34.432 -18.649 -24.966  0.00  0.00    +0.003 C 
ATOM     26  C   UNL     1      34.605 -19.587 -23.947  0.00  0.00    +0.037 C 
BRANCH  24  27
ATOM     27  O   UNL     1      34.963 -20.075 -21.639  0.00  0.00    -0.471 OA
ATOM     28  C   UNL     1      33.953 -20.135 -20.633  0.00  0.00    +0.252 C 
ENDBRANCH  24  27
ENDBRANCH  20  21
ENDBRANCH   4  20
TORSDOF 4
ENDMDL
MODEL 9
REMARK VINA RESULT:      -8.6      3.949      6.828
REMARK  Name = 11674979
REMARK  4 active torsions:
REMARK  status: ('A' for Active; 'I' for Inactive)
REMARK    1  A    between atoms: C_4  and  C_20
REMARK    2  A    between atoms: C_5  and  C_13
REMARK    3  A    between atoms: C_20  and  C_21
REMARK    4  A    between atoms: C_24  and  O_27
REMARK                            x       y       z     vdW  Elec       q    Type
REMARK                         _______ _______ _______ _____ _____    ______ ____
ROOT
ATOM      1  N   UNL     1      32.940 -15.655 -20.035  0.00  0.00    -0.297 N 
ATOM      2  N   UNL     1      34.555 -16.893 -21.326  0.00  0.00    -0.229 NA
ATOM      3  C   UNL     1      33.455 -14.822 -22.042  0.00  0.00    +0.036 C 
ATOM      4  C   UNL     1      32.497 -13.974 -21.424  0.00  0.00    +0.056 C 
ATOM      5  C   UNL     1      34.144 -14.836 -23.265  0.00  0.00    +0.005 C 
ATOM      6  C   UNL     1      33.710 -15.860 -21.150  0.00  0.00    +0.132 C 
ATOM      7  C   UNL     1      32.200 -14.513 -20.190  0.00  0.00    +0.066 C 
ATOM      8  C   UNL     1      35.032 -15.884 -23.499  0.00  0.00    +0.021 C 
ATOM      9  C   UNL     1      35.191 -16.856 -22.520  0.00  0.00    +0.100 C 
ATOM     10  H   UNL     1      32.923 -16.240 -19.243  0.00  0.00    +0.154 HD
ENDROOT
BRANCH   5  13
ATOM     11  F   UNL     1      34.506 -10.220 -24.637  0.00  0.00    -0.204 F 
ATOM     12  F   UNL     1      32.541 -13.369 -27.577  0.00  0.00    -0.204 F 
ATOM     13  C   UNL     1      33.931 -13.794 -24.238  0.00  0.00    +0.005 C 
ATOM     14  C   UNL     1      33.326 -14.090 -25.463  0.00  0.00    +0.030 C 
ATOM     15  C   UNL     1      34.330 -12.483 -23.963  0.00  0.00    +0.030 C 
ATOM     16  C   UNL     1      34.124 -11.475 -24.904  0.00  0.00    +0.142 C 
ATOM     17  C   UNL     1      33.121 -13.082 -26.405  0.00  0.00    +0.142 C 
ATOM     18  C   UNL     1      33.519 -11.775 -26.126  0.00  0.00    +0.059 C 
ENDBRANCH   5  13
BRANCH   4  20
ATOM     19  O   UNL     1      31.343 -12.740 -23.041  0.00  0.00    -0.287 OA
ATOM     20  C   UNL     1      31.906 -12.767 -21.925  0.00  0.00    +0.197 C 
BRANCH  20  21
ATOM     21  C   UNL     1      31.918 -11.469 -21.163  0.00  0.00    +0.042 C 
ATOM     22  C   UNL     1      32.196 -10.317 -21.851  0.00  0.00    +0.040 C 
ATOM     23  C   UNL     1      31.650 -11.506 -19.819  0.00  0.00    +0.003 C 
ATOM     24  C   UNL     1      32.206  -9.114 -21.145  0.00  0.00    +0.139 C 
ATOM     25  C   UNL     1      31.661 -10.302 -19.113  0.00  0.00    +0.003 C 
ATOM     26  C   UNL     1      31.939  -9.107 -19.776  0.00  0.00    +0.037 C 
BRANCH  24  27
ATOM     27  O   UNL     1      32.476  -7.948 -21.791  0.00  0.00    -0.471 OA
ATOM     28  C   UNL     1      31.806  -6.777 -21.327  0.00  0.00    +0.252 C 
ENDBRANCH  24  27
ENDBRANCH  20  21
ENDBRANCH   4  20
TORSDOF 4
ENDMDL
