MODEL 1
REMARK VINA RESULT:      -7.9      0.000      0.000
REMARK  Name = 446367
REMARK  4 active torsions:
REMARK  status: ('A' for Active; 'I' for Inactive)
REMARK    1  A    between atoms: C_1  and  N_8
REMARK    2  A    between atoms: C_2  and  N_12
REMARK    3  A    between atoms: C_3  and  C_16
REMARK    4  A    between atoms: C_16  and  O_17
REMARK                            x       y       z     vdW  Elec       q    Type
REMARK                         _______ _______ _______ _____ _____    ______ ____
ROOT
ATOM      1  C   UNL     1      34.373 -19.117 -21.076  0.00  0.00    +0.063 C 
ATOM      2  C   UNL     1      35.568 -19.717 -20.676  0.00  0.00    +0.055 C 
ATOM      3  C   UNL     1      34.321 -21.481 -19.595  0.00  0.00    +0.077 C 
ATOM      4  C   UNL     1      33.152 -19.700 -20.735  0.00  0.00    +0.016 C 
ATOM      5  C   UNL     1      35.542 -20.897 -19.935  0.00  0.00    +0.022 C 
ATOM      6  C   UNL     1      33.127 -20.883 -19.995  0.00  0.00    +0.008 C 
ENDROOT
BRANCH   1   8
ATOM      7  O   UNL     1      35.119 -16.311 -20.277  0.00  0.00    -0.275 OA
ATOM      8  N   UNL     1      34.375 -17.932 -21.818  0.00  0.00    -0.283 N 
ATOM      9  C   UNL     1      34.732 -16.648 -21.391  0.00  0.00    +0.227 C 
ATOM     10  C   UNL     1      34.597 -15.636 -22.500  0.00  0.00    +0.095 C 
ATOM     11  H   UNL     1      34.090 -18.012 -22.757  0.00  0.00    +0.155 HD
ENDBRANCH   1   8
BRANCH   2  12
ATOM     12  N   UNL     1      36.816 -19.142 -21.010  0.00  0.00    -0.356 N 
ATOM     13  H   UNL     1      37.229 -18.479 -20.412  0.00  0.00    +0.142 HD
ATOM     14  H   UNL     1      37.271 -19.404 -21.843  0.00  0.00    +0.142 HD
ENDBRANCH   2  12
BRANCH   3  16
ATOM     15  O   UNL     1      34.577 -22.815 -17.626  0.00  0.00    -0.245 OA
ATOM     16  C   UNL     1      34.293 -22.714 -18.824  0.00  0.00    +0.338 C 
BRANCH  16  17
ATOM     17  O   UNL     1      33.910 -23.785 -19.570  0.00  0.00    -0.477 OA
ATOM     18  H   UNL     1      34.172 -23.849 -20.467  0.00  0.00    +0.295 HD
ENDBRANCH  16  17
ENDBRANCH   3  16
TORSDOF 4
ENDMDL
MODEL 2
REMARK VINA RESULT:      -7.3      1.347      2.135
REMARK  Name = 446367
REMARK  4 active torsions:
REMARK  status: ('A' for Active; 'I' for Inactive)
REMARK    1  A    between atoms: C_1  and  N_8
REMARK    2  A    between atoms: C_2  and  N_12
REMARK    3  A    between atoms: C_3  and  C_16
REMARK    4  A    between atoms: C_16  and  O_17
REMARK                            x       y       z     vdW  Elec       q    Type
REMARK                         _______ _______ _______ _____ _____    ______ ____
ROOT
ATOM      1  C   UNL     1      34.865 -20.101 -20.743  0.00  0.00    +0.063 C 
ATOM      2  C   UNL     1      33.618 -20.550 -20.306  0.00  0.00    +0.055 C 
ATOM      3  C   UNL     1      34.700 -22.002 -18.707  0.00  0.00    +0.077 C 
ATOM      4  C   UNL     1      36.030 -20.604 -20.161  0.00  0.00    +0.016 C 
ATOM      5  C   UNL     1      33.536 -21.500 -19.289  0.00  0.00    +0.022 C 
ATOM      6  C   UNL     1      35.947 -21.554 -19.143  0.00  0.00    +0.008 C 
ENDROOT
BRANCH   1   8
ATOM      7  O   UNL     1      35.252 -17.119 -20.599  0.00  0.00    -0.275 OA
ATOM      8  N   UNL     1      34.973 -19.150 -21.761  0.00  0.00    -0.283 N 
ATOM      9  C   UNL     1      35.152 -17.768 -21.635  0.00  0.00    +0.227 C 
ATOM     10  C   UNL     1      35.222 -17.091 -22.980  0.00  0.00    +0.095 C 
ATOM     11  H   UNL     1      34.917 -19.496 -22.682  0.00  0.00    +0.155 HD
ENDBRANCH   1   8
BRANCH   2  12
ATOM     12  N   UNL     1      32.426 -20.054 -20.882  0.00  0.00    -0.356 N 
ATOM     13  H   UNL     1      32.378 -19.119 -21.187  0.00  0.00    +0.142 HD
ATOM     14  H   UNL     1      31.643 -20.643 -20.977  0.00  0.00    +0.142 HD
ENDBRANCH   2  12
BRANCH   3  16
ATOM     15  O   UNL     1      35.379 -23.075 -16.680  0.00  0.00    -0.245 OA
ATOM     16  C   UNL     1      34.614 -22.993 -17.646  0.00  0.00    +0.338 C 
BRANCH  16  17
ATOM     17  O   UNL     1      33.573 -23.852 -17.820  0.00  0.00    -0.477 OA
ATOM     18  H   UNL     1      33.157 -23.920 -18.656  0.00  0.00    +0.295 HD
ENDBRANCH  16  17
ENDBRANCH   3  16
TORSDOF 4
ENDMDL
MODEL 3
REMARK VINA RESULT:      -7.3      3.114      6.540
REMARK  Name = 446367
REMARK  4 active torsions:
REMARK  status: ('A' for Active; 'I' for Inactive)
REMARK    1  A    between atoms: C_1  and  N_8
REMARK    2  A    between atoms: C_2  and  N_12
REMARK    3  A    between atoms: C_3  and  C_16
REMARK    4  A    between atoms: C_16  and  O_17
REMARK                            x       y       z     vdW  Elec       q    Type
REMARK                         _______ _______ _______ _____ _____    ______ ____
ROOT
ATOM      1  C   UNL     1      35.278 -17.861 -22.661  0.00  0.00    +0.063 C 
ATOM      2  C   UNL     1      34.790 -16.621 -22.247  0.00  0.00    +0.055 C 
ATOM      3  C   UNL     1      34.098 -16.137 -24.511  0.00  0.00    +0.077 C 
ATOM      4  C   UNL     1      35.176 -18.238 -24.001  0.00  0.00    +0.016 C 
ATOM      5  C   UNL     1      34.200 -15.759 -23.171  0.00  0.00    +0.022 C 
ATOM      6  C   UNL     1      34.585 -17.376 -24.925  0.00  0.00    +0.008 C 
ENDROOT
BRANCH   1   8
ATOM      7  O   UNL     1      34.079 -20.079 -21.015  0.00  0.00    -0.275 OA
ATOM      8  N   UNL     1      35.874 -18.741 -21.753  0.00  0.00    -0.283 N 
ATOM      9  C   UNL     1      35.263 -19.758 -21.011  0.00  0.00    +0.227 C 
ATOM     10  C   UNL     1      36.257 -20.487 -20.142  0.00  0.00    +0.095 C 
ATOM     11  H   UNL     1      36.843 -18.632 -21.620  0.00  0.00    +0.155 HD
ENDBRANCH   1   8
BRANCH   2  12
ATOM     12  N   UNL     1      34.883 -16.219 -20.895  0.00  0.00    -0.356 N 
ATOM     13  H   UNL     1      34.544 -15.338 -20.618  0.00  0.00    +0.142 HD
ATOM     14  H   UNL     1      35.290 -16.821 -20.230  0.00  0.00    +0.142 HD
ENDBRANCH   2  12
BRANCH   3  16
ATOM     15  O   UNL     1      33.453 -15.412 -26.697  0.00  0.00    -0.245 OA
ATOM     16  C   UNL     1      33.482 -15.238 -25.475  0.00  0.00    +0.338 C 
BRANCH  16  17
ATOM     17  O   UNL     1      32.919 -14.149 -24.884  0.00  0.00    -0.477 OA
ATOM     18  H   UNL     1      32.357 -14.257 -24.143  0.00  0.00    +0.295 HD
ENDBRANCH  16  17
ENDBRANCH   3  16
TORSDOF 4
ENDMDL
MODEL 4
REMARK VINA RESULT:      -7.3      2.509      6.584
REMARK  Name = 446367
REMARK  4 active torsions:
REMARK  status: ('A' for Active; 'I' for Inactive)
REMARK    1  A    between atoms: C_1  and  N_8
REMARK    2  A    between atoms: C_2  and  N_12
REMARK    3  A    between atoms: C_3  and  C_16
REMARK    4  A    between atoms: C_16  and  O_17
REMARK                            x       y       z     vdW  Elec       q    Type
REMARK                         _______ _______ _______ _____ _____    ______ ____
ROOT
ATOM      1  C   UNL     1      35.099 -16.998 -21.462  0.00  0.00    +0.063 C 
ATOM      2  C   UNL     1      35.100 -16.738 -22.832  0.00  0.00    +0.055 C 
ATOM      3  C   UNL     1      34.005 -14.622 -22.431  0.00  0.00    +0.077 C 
ATOM      4  C   UNL     1      34.551 -16.069 -20.576  0.00  0.00    +0.016 C 
ATOM      5  C   UNL     1      34.553 -15.551 -23.317  0.00  0.00    +0.022 C 
ATOM      6  C   UNL     1      34.005 -14.881 -21.061  0.00  0.00    +0.008 C 
ENDROOT
BRANCH   1   8
ATOM      7  O   UNL     1      33.920 -19.762 -21.267  0.00  0.00    -0.275 OA
ATOM      8  N   UNL     1      35.640 -18.182 -20.952  0.00  0.00    -0.283 N 
ATOM      9  C   UNL     1      35.042 -19.445 -20.886  0.00  0.00    +0.227 C 
ATOM     10  C   UNL     1      35.963 -20.465 -20.265  0.00  0.00    +0.095 C 
ATOM     11  H   UNL     1      36.557 -18.119 -20.598  0.00  0.00    +0.155 HD
ENDBRANCH   1   8
BRANCH   2  12
ATOM     12  N   UNL     1      35.650 -17.665 -23.746  0.00  0.00    -0.356 N 
ATOM     13  H   UNL     1      36.308 -18.329 -23.439  0.00  0.00    +0.142 HD
ATOM     14  H   UNL     1      35.376 -17.646 -24.692  0.00  0.00    +0.142 HD
ENDBRANCH   2  12
BRANCH   3  16
ATOM     15  O   UNL     1      32.336 -12.918 -22.620  0.00  0.00    -0.245 OA
ATOM     16  C   UNL     1      33.435 -13.382 -22.937  0.00  0.00    +0.338 C 
BRANCH  16  17
ATOM     17  O   UNL     1      34.257 -12.757 -23.824  0.00  0.00    -0.477 OA
ATOM     18  H   UNL     1      34.608 -11.912 -23.622  0.00  0.00    +0.295 HD
ENDBRANCH  16  17
ENDBRANCH   3  16
TORSDOF 4
ENDMDL
MODEL 5
REMARK VINA RESULT:      -7.2      8.115      9.559
REMARK  Name = 446367
REMARK  4 active torsions:
REMARK  status: ('A' for Active; 'I' for Inactive)
REMARK    1  A    between atoms: C_1  and  N_8
REMARK    2  A    between atoms: C_2  and  N_12
REMARK    3  A    between atoms: C_3  and  C_16
REMARK    4  A    between atoms: C_16  and  O_17
REMARK                            x       y       z     vdW  Elec       q    Type
REMARK                         _______ _______ _______ _____ _____    ______ ____
ROOT
ATOM      1  C   UNL     1      36.365 -25.214 -13.652  0.00  0.00    +0.063 C 
ATOM      2  C   UNL     1      36.833 -26.131 -14.594  0.00  0.00    +0.055 C 
ATOM      3  C   UNL     1      39.109 -25.594 -13.987  0.00  0.00    +0.077 C 
ATOM      4  C   UNL     1      37.270 -24.487 -12.877  0.00  0.00    +0.016 C 
ATOM      5  C   UNL     1      38.203 -26.320 -14.762  0.00  0.00    +0.022 C 
ATOM      6  C   UNL     1      38.642 -24.678 -13.045  0.00  0.00    +0.008 C 
ENDROOT
BRANCH   1   8
ATOM      7  O   UNL     1      34.478 -23.295 -15.003  0.00  0.00    -0.275 OA
ATOM      8  N   UNL     1      34.995 -25.006 -13.467  0.00  0.00    -0.283 N 
ATOM      9  C   UNL     1      34.164 -24.094 -14.126  0.00  0.00    +0.227 C 
ATOM     10  C   UNL     1      32.741 -24.182 -13.637  0.00  0.00    +0.095 C 
ATOM     11  H   UNL     1      34.561 -25.574 -12.789  0.00  0.00    +0.155 HD
ENDBRANCH   1   8
BRANCH   2  12
ATOM     12  N   UNL     1      35.933 -26.877 -15.389  0.00  0.00    -0.356 N 
ATOM     13  H   UNL     1      35.692 -27.796 -15.130  0.00  0.00    +0.142 HD
ATOM     14  H   UNL     1      35.548 -26.479 -16.203  0.00  0.00    +0.142 HD
ENDBRANCH   2  12
BRANCH   3  16
ATOM     15  O   UNL     1      41.157 -26.826 -13.888  0.00  0.00    -0.245 OA
ATOM     16  C   UNL     1      40.539 -25.792 -14.162  0.00  0.00    +0.338 C 
BRANCH  16  17
ATOM     17  O   UNL     1      41.157 -24.693 -14.675  0.00  0.00    -0.477 OA
ATOM     18  H   UNL     1      41.546 -24.729 -15.526  0.00  0.00    +0.295 HD
ENDBRANCH  16  17
ENDBRANCH   3  16
TORSDOF 4
ENDMDL
MODEL 6
REMARK VINA RESULT:      -7.1      7.212      8.811
REMARK  Name = 446367
REMARK  4 active torsions:
REMARK  status: ('A' for Active; 'I' for Inactive)
REMARK    1  A    between atoms: C_1  and  N_8
REMARK    2  A    between atoms: C_2  and  N_12
REMARK    3  A    between atoms: C_3  and  C_16
REMARK    4  A    between atoms: C_16  and  O_17
REMARK                            x       y       z     vdW  Elec       q    Type
REMARK                         _______ _______ _______ _____ _____    ______ ____
ROOT
ATOM      1  C   UNL     1      31.749 -23.576 -14.408  0.00  0.00    +0.063 C 
ATOM      2  C   UNL     1      30.549 -24.209 -14.080  0.00  0.00    +0.055 C 
ATOM      3  C   UNL     1      29.553 -23.375 -16.117  0.00  0.00    +0.077 C 
ATOM      4  C   UNL     1      31.850 -22.843 -15.591  0.00  0.00    +0.016 C 
ATOM      5  C   UNL     1      29.452 -24.108 -14.934  0.00  0.00    +0.022 C 
ATOM      6  C   UNL     1      30.752 -22.743 -16.445  0.00  0.00    +0.008 C 
ENDROOT
BRANCH   1   8
ATOM      7  O   UNL     1      34.486 -24.729 -14.901  0.00  0.00    -0.275 OA
ATOM      8  N   UNL     1      32.862 -23.662 -13.567  0.00  0.00    -0.283 N 
ATOM      9  C   UNL     1      34.116 -24.213 -13.851  0.00  0.00    +0.227 C 
ATOM     10  C   UNL     1      35.050 -24.109 -12.671  0.00  0.00    +0.095 C 
ATOM     11  H   UNL     1      32.749 -23.288 -12.663  0.00  0.00    +0.155 HD
ENDBRANCH   1   8
BRANCH   2  12
ATOM     12  N   UNL     1      30.425 -24.956 -12.887  0.00  0.00    -0.356 N 
ATOM     13  H   UNL     1      30.685 -25.906 -12.871  0.00  0.00    +0.142 HD
ATOM     14  H   UNL     1      30.077 -24.528 -12.072  0.00  0.00    +0.142 HD
ENDBRANCH   2  12
BRANCH   3  16
ATOM     15  O   UNL     1      27.794 -24.223 -17.499  0.00  0.00    -0.245 OA
ATOM     16  C   UNL     1      28.408 -23.271 -17.009  0.00  0.00    +0.338 C 
BRANCH  16  17
ATOM     17  O   UNL     1      28.063 -21.978 -17.261  0.00  0.00    -0.477 OA
ATOM     18  H   UNL     1      27.963 -21.374 -16.554  0.00  0.00    +0.295 HD
ENDBRANCH  16  17
ENDBRANCH   3  16
TORSDOF 4
ENDMDL
MODEL 7
REMARK VINA RESULT:      -7.0      7.518      8.699
REMARK  Name = 446367
REMARK  4 active torsions:
REMARK  status: ('A' for Active; 'I' for Inactive)
REMARK    1  A    between atoms: C_1  and  N_8
REMARK    2  A    between atoms: C_2  and  N_12
REMARK    3  A    between atoms: C_3  and  C_16
REMARK    4  A    between atoms: C_16  and  O_17
REMARK                            x       y       z     vdW  Elec       q    Type
REMARK                         _______ _______ _______ _____ _____    ______ ____
ROOT
ATOM      1  C   UNL     1      35.895 -24.691 -14.944  0.00  0.00    +0.063 C 
ATOM      2  C   UNL     1      36.736 -23.638 -15.301  0.00  0.00    +0.055 C 
ATOM      3  C   UNL     1      38.660 -25.061 -14.973  0.00  0.00    +0.077 C 
ATOM      4  C   UNL     1      36.437 -25.931 -14.601  0.00  0.00    +0.016 C 
ATOM      5  C   UNL     1      38.118 -23.822 -15.316  0.00  0.00    +0.022 C 
ATOM      6  C   UNL     1      37.820 -26.115 -14.616  0.00  0.00    +0.008 C 
ENDROOT
BRANCH   1   8
ATOM      7  O   UNL     1      34.025 -24.166 -12.643  0.00  0.00    -0.275 OA
ATOM      8  N   UNL     1      34.507 -24.530 -14.921  0.00  0.00    -0.283 N 
ATOM      9  C   UNL     1      33.685 -24.287 -13.815  0.00  0.00    +0.227 C 
ATOM     10  C   UNL     1      32.235 -24.173 -14.214  0.00  0.00    +0.095 C 
ATOM     11  H   UNL     1      34.052 -24.593 -15.792  0.00  0.00    +0.155 HD
ENDBRANCH   1   8
BRANCH   2  12
ATOM     12  N   UNL     1      36.208 -22.374 -15.652  0.00  0.00    -0.356 N 
ATOM     13  H   UNL     1      35.613 -21.899 -15.029  0.00  0.00    +0.142 HD
ATOM     14  H   UNL     1      36.433 -21.971 -16.522  0.00  0.00    +0.142 HD
ENDBRANCH   2  12
BRANCH   3  16
ATOM     15  O   UNL     1      40.893 -24.808 -14.152  0.00  0.00    -0.245 OA
ATOM     16  C   UNL     1      40.102 -25.255 -14.988  0.00  0.00    +0.338 C 
BRANCH  16  17
ATOM     17  O   UNL     1      40.514 -26.003 -16.048  0.00  0.00    -0.477 OA
ATOM     18  H   UNL     1      40.519 -25.634 -16.908  0.00  0.00    +0.295 HD
ENDBRANCH  16  17
ENDBRANCH   3  16
TORSDOF 4
ENDMDL
MODEL 8
REMARK VINA RESULT:      -6.9      4.410      5.928
REMARK  Name = 446367
REMARK  4 active torsions:
REMARK  status: ('A' for Active; 'I' for Inactive)
REMARK    1  A    between atoms: C_1  and  N_8
REMARK    2  A    between atoms: C_2  and  N_12
REMARK    3  A    between atoms: C_3  and  C_16
REMARK    4  A    between atoms: C_16  and  O_17
REMARK                            x       y       z     vdW  Elec       q    Type
REMARK                         _______ _______ _______ _____ _____    ______ ____
ROOT
ATOM      1  C   UNL     1      32.754 -14.051 -21.999  0.00  0.00    +0.063 C 
ATOM      2  C   UNL     1      33.866 -14.124 -22.839  0.00  0.00    +0.055 C 
ATOM      3  C   UNL     1      34.473 -16.244 -21.851  0.00  0.00    +0.077 C 
ATOM      4  C   UNL     1      32.502 -15.076 -21.086  0.00  0.00    +0.016 C 
ATOM      5  C   UNL     1      34.726 -15.219 -22.764  0.00  0.00    +0.022 C 
ATOM      6  C   UNL     1      33.362 -16.172 -21.012  0.00  0.00    +0.008 C 
ENDROOT
BRANCH   1   8
ATOM      7  O   UNL     1      31.970 -12.064 -19.878  0.00  0.00    -0.275 OA
ATOM      8  N   UNL     1      31.879 -12.963 -22.055  0.00  0.00    -0.283 N 
ATOM      9  C   UNL     1      31.550 -12.068 -21.031  0.00  0.00    +0.227 C 
ATOM     10  C   UNL     1      30.564 -11.026 -21.497  0.00  0.00    +0.095 C 
ATOM     11  H   UNL     1      31.442 -12.805 -22.923  0.00  0.00    +0.155 HD
ENDBRANCH   1   8
BRANCH   2  12
ATOM     12  N   UNL     1      34.140 -13.098 -23.771  0.00  0.00    -0.356 N 
ATOM     13  H   UNL     1      33.406 -12.549 -24.129  0.00  0.00    +0.142 HD
ATOM     14  H   UNL     1      35.065 -12.933 -24.064  0.00  0.00    +0.142 HD
ENDBRANCH   2  12
BRANCH   3  16
ATOM     15  O   UNL     1      35.561 -18.080 -20.770  0.00  0.00    -0.245 OA
ATOM     16  C   UNL     1      35.369 -17.387 -21.774  0.00  0.00    +0.338 C 
BRANCH  16  17
ATOM     17  O   UNL     1      36.000 -17.634 -22.955  0.00  0.00    -0.477 OA
ATOM     18  H   UNL     1      35.953 -18.485 -23.342  0.00  0.00    +0.295 HD
ENDBRANCH  16  17
ENDBRANCH   3  16
TORSDOF 4
ENDMDL
MODEL 9
REMARK VINA RESULT:      -6.9      2.989      4.383
REMARK  Name = 446367
REMARK  4 active torsions:
REMARK  status: ('A' for Active; 'I' for Inactive)
REMARK    1  A    between atoms: C_1  and  N_8
REMARK    2  A    between atoms: C_2  and  N_12
REMARK    3  A    between atoms: C_3  and  C_16
REMARK    4  A    between atoms: C_16  and  O_17
REMARK                            x       y       z     vdW  Elec       q    Type
REMARK                         _______ _______ _______ _____ _____    ______ ____
ROOT
ATOM      1  C   UNL     1      34.724 -15.491 -22.858  0.00  0.00    +0.063 C 
ATOM      2  C   UNL     1      34.940 -16.642 -23.615  0.00  0.00    +0.055 C 
ATOM      3  C   UNL     1      35.025 -17.958 -21.591  0.00  0.00    +0.077 C 
ATOM      4  C   UNL     1      34.658 -15.574 -21.467  0.00  0.00    +0.016 C 
ATOM      5  C   UNL     1      35.091 -17.875 -22.982  0.00  0.00    +0.022 C 
ATOM      6  C   UNL     1      34.808 -16.807 -20.834  0.00  0.00    +0.008 C 
ENDROOT
BRANCH   1   8
ATOM      7  O   UNL     1      32.324 -13.681 -23.033  0.00  0.00    -0.275 OA
ATOM      8  N   UNL     1      34.571 -14.244 -23.470  0.00  0.00    -0.283 N 
ATOM      9  C   UNL     1      33.424 -13.443 -23.521  0.00  0.00    +0.227 C 
ATOM     10  C   UNL     1      33.672 -12.164 -24.280  0.00  0.00    +0.095 C 
ATOM     11  H   UNL     1      35.369 -13.884 -23.920  0.00  0.00    +0.155 HD
ENDBRANCH   1   8
BRANCH   2  12
ATOM     12  N   UNL     1      35.011 -16.580 -25.026  0.00  0.00    -0.356 N 
ATOM     13  H   UNL     1      35.435 -15.808 -25.464  0.00  0.00    +0.142 HD
ATOM     14  H   UNL     1      34.635 -17.310 -25.570  0.00  0.00    +0.142 HD
ENDBRANCH   2  12
BRANCH   3  16
ATOM     15  O   UNL     1      34.329 -20.137 -20.891  0.00  0.00    -0.245 OA
ATOM     16  C   UNL     1      35.181 -19.245 -20.930  0.00  0.00    +0.338 C 
BRANCH  16  17
ATOM     17  O   UNL     1      36.400 -19.380 -20.339  0.00  0.00    -0.477 OA
ATOM     18  H   UNL     1      36.468 -19.773 -19.492  0.00  0.00    +0.295 HD
ENDBRANCH  16  17
ENDBRANCH   3  16
TORSDOF 4
ENDMDL
