MODEL 1
REMARK VINA RESULT:      -6.1      0.000      0.000
REMARK  Name = 439655
REMARK  7 active torsions:
REMARK  status: ('A' for Active; 'I' for Inactive)
REMARK    1  A    between atoms: C_1  and  O_2
REMARK    2  A    between atoms: C_1  and  C_5
REMARK    3  A    between atoms: C_1  and  C_8
REMARK    4  A    between atoms: C_5  and  O_6
REMARK    5  A    between atoms: C_8  and  O_9
REMARK    6  A    between atoms: C_8  and  C_12
REMARK    7  A    between atoms: C_12  and  O_13
REMARK                            x       y       z     vdW  Elec       q    Type
REMARK                         _______ _______ _______ _____ _____    ______ ____
ROOT
ATOM      1  C   UNL     1      38.588 -24.889 -14.647  0.00  0.00    +0.248 C 
ENDROOT
BRANCH   1   2
ATOM      2  O   UNL     1      38.012 -24.091 -15.667  0.00  0.00    -0.372 OA
ATOM      3  H   UNL     1      38.232 -24.465 -16.534  0.00  0.00    +0.211 HD
ENDBRANCH   1   2
BRANCH   1   5
ATOM      4  O   UNL     1      40.963 -24.984 -14.182  0.00  0.00    -0.247 OA
ATOM      5  C   UNL     1      40.040 -25.220 -14.952  0.00  0.00    +0.344 C 
BRANCH   5   6
ATOM      6  O   UNL     1      40.224 -25.775 -16.175  0.00  0.00    -0.478 OA
ATOM      7  H   UNL     1      40.735 -26.555 -16.264  0.00  0.00    +0.295 HD
ENDBRANCH   5   6
ENDBRANCH   1   5
BRANCH   1   8
ATOM      8  C   UNL     1      37.734 -26.143 -14.457  0.00  0.00    +0.248 C 
BRANCH   8   9
ATOM      9  O   UNL     1      38.564 -27.282 -14.647  0.00  0.00    -0.372 OA
ATOM     10  H   UNL     1      39.326 -27.039 -15.197  0.00  0.00    +0.211 HD
ENDBRANCH   8   9
BRANCH   8  12
ATOM     11  O   UNL     1      35.588 -25.523 -15.426  0.00  0.00    -0.247 OA
ATOM     12  C   UNL     1      36.574 -26.248 -15.432  0.00  0.00    +0.344 C 
BRANCH  12  13
ATOM     13  O   UNL     1      36.734 -27.269 -16.313  0.00  0.00    -0.478 OA
ATOM     14  H   UNL     1      36.894 -28.138 -16.000  0.00  0.00    +0.295 HD
ENDBRANCH  12  13
ENDBRANCH   8  12
ENDBRANCH   1   8
TORSDOF 7
ENDMDL
MODEL 2
REMARK VINA RESULT:      -5.9      0.878      1.301
REMARK  Name = 439655
REMARK  7 active torsions:
REMARK  status: ('A' for Active; 'I' for Inactive)
REMARK    1  A    between atoms: C_1  and  O_2
REMARK    2  A    between atoms: C_1  and  C_5
REMARK    3  A    between atoms: C_1  and  C_8
REMARK    4  A    between atoms: C_5  and  O_6
REMARK    5  A    between atoms: C_8  and  O_9
REMARK    6  A    between atoms: C_8  and  C_12
REMARK    7  A    between atoms: C_12  and  O_13
REMARK                            x       y       z     vdW  Elec       q    Type
REMARK                         _______ _______ _______ _____ _____    ______ ____
ROOT
ATOM      1  C   UNL     1      39.026 -25.205 -14.377  0.00  0.00    +0.248 C 
ENDROOT
BRANCH   1   2
ATOM      2  O   UNL     1      38.601 -24.221 -15.305  0.00  0.00    -0.372 OA
ATOM      3  H   UNL     1      37.788 -24.517 -15.741  0.00  0.00    +0.211 HD
ENDBRANCH   1   2
BRANCH   1   5
ATOM      4  O   UNL     1      41.117 -26.391 -14.083  0.00  0.00    -0.247 OA
ATOM      5  C   UNL     1      40.292 -25.904 -14.846  0.00  0.00    +0.344 C 
BRANCH   5   6
ATOM      6  O   UNL     1      40.439 -25.912 -16.194  0.00  0.00    -0.478 OA
ATOM      7  H   UNL     1      41.291 -26.007 -16.572  0.00  0.00    +0.295 HD
ENDBRANCH   5   6
ENDBRANCH   1   5
BRANCH   1   8
ATOM      8  C   UNL     1      37.878 -26.185 -14.134  0.00  0.00    +0.248 C 
BRANCH   8   9
ATOM      9  O   UNL     1      38.257 -27.455 -14.650  0.00  0.00    -0.372 OA
ATOM     10  H   UNL     1      37.510 -28.070 -14.577  0.00  0.00    +0.211 HD
ENDBRANCH   8   9
BRANCH   8  12
ATOM     11  O   UNL     1      36.115 -26.310 -15.808  0.00  0.00    -0.247 OA
ATOM     12  C   UNL     1      36.576 -25.782 -14.804  0.00  0.00    +0.344 C 
BRANCH  12  13
ATOM     13  O   UNL     1      35.977 -24.737 -14.178  0.00  0.00    -0.478 OA
ATOM     14  H   UNL     1      36.193 -24.537 -13.288  0.00  0.00    +0.295 HD
ENDBRANCH  12  13
ENDBRANCH   8  12
ENDBRANCH   1   8
TORSDOF 7
ENDMDL
MODEL 3
REMARK VINA RESULT:      -5.8      1.811      3.865
REMARK  Name = 439655
REMARK  7 active torsions:
REMARK  status: ('A' for Active; 'I' for Inactive)
REMARK    1  A    between atoms: C_1  and  O_2
REMARK    2  A    between atoms: C_1  and  C_5
REMARK    3  A    between atoms: C_1  and  C_8
REMARK    4  A    between atoms: C_5  and  O_6
REMARK    5  A    between atoms: C_8  and  O_9
REMARK    6  A    between atoms: C_8  and  C_12
REMARK    7  A    between atoms: C_12  and  O_13
REMARK                            x       y       z     vdW  Elec       q    Type
REMARK                         _______ _______ _______ _____ _____    ______ ____
ROOT
ATOM      1  C   UNL     1      38.145 -24.921 -13.669  0.00  0.00    +0.248 C 
ENDROOT
BRANCH   1   2
ATOM      2  O   UNL     1      39.038 -24.391 -12.704  0.00  0.00    -0.372 OA
ATOM      3  H   UNL     1      39.081 -24.987 -11.941  0.00  0.00    +0.211 HD
ENDBRANCH   1   2
BRANCH   1   5
ATOM      4  O   UNL     1      37.153 -26.319 -11.958  0.00  0.00    -0.247 OA
ATOM      5  C   UNL     1      37.025 -25.714 -13.016  0.00  0.00    +0.344 C 
BRANCH   5   6
ATOM      6  O   UNL     1      35.873 -25.716 -13.731  0.00  0.00    -0.478 OA
ATOM      7  H   UNL     1      35.050 -25.815 -13.294  0.00  0.00    +0.295 HD
ENDBRANCH   5   6
ENDBRANCH   1   5
BRANCH   1   8
ATOM      8  C   UNL     1      38.939 -25.758 -14.672  0.00  0.00    +0.248 C 
BRANCH   8   9
ATOM      9  O   UNL     1      38.449 -27.092 -14.628  0.00  0.00    -0.372 OA
ATOM     10  H   UNL     1      37.660 -27.166 -15.189  0.00  0.00    +0.211 HD
ENDBRANCH   8   9
BRANCH   8  12
ATOM     11  O   UNL     1      41.011 -26.735 -13.846  0.00  0.00    -0.247 OA
ATOM     12  C   UNL     1      40.431 -25.803 -14.388  0.00  0.00    +0.344 C 
BRANCH  12  13
ATOM     13  O   UNL     1      41.064 -24.668 -14.781  0.00  0.00    -0.478 OA
ATOM     14  H   UNL     1      40.584 -23.991 -15.218  0.00  0.00    +0.295 HD
ENDBRANCH  12  13
ENDBRANCH   8  12
ENDBRANCH   1   8
TORSDOF 7
ENDMDL
MODEL 4
REMARK VINA RESULT:      -5.8      1.805      2.557
REMARK  Name = 439655
REMARK  7 active torsions:
REMARK  status: ('A' for Active; 'I' for Inactive)
REMARK    1  A    between atoms: C_1  and  O_2
REMARK    2  A    between atoms: C_1  and  C_5
REMARK    3  A    between atoms: C_1  and  C_8
REMARK    4  A    between atoms: C_5  and  O_6
REMARK    5  A    between atoms: C_8  and  O_9
REMARK    6  A    between atoms: C_8  and  C_12
REMARK    7  A    between atoms: C_12  and  O_13
REMARK                            x       y       z     vdW  Elec       q    Type
REMARK                         _______ _______ _______ _____ _____    ______ ____
ROOT
ATOM      1  C   UNL     1      38.930 -25.805 -14.692  0.00  0.00    +0.248 C 
ENDROOT
BRANCH   1   2
ATOM      2  O   UNL     1      38.402 -27.120 -14.677  0.00  0.00    -0.372 OA
ATOM      3  H   UNL     1      37.922 -27.286 -15.502  0.00  0.00    +0.211 HD
ENDBRANCH   1   2
BRANCH   1   5
ATOM      4  O   UNL     1      41.004 -26.727 -13.847  0.00  0.00    -0.247 OA
ATOM      5  C   UNL     1      40.421 -25.799 -14.395  0.00  0.00    +0.344 C 
BRANCH   5   6
ATOM      6  O   UNL     1      41.044 -24.654 -14.767  0.00  0.00    -0.478 OA
ATOM      7  H   UNL     1      40.559 -23.972 -15.188  0.00  0.00    +0.295 HD
ENDBRANCH   5   6
ENDBRANCH   1   5
BRANCH   1   8
ATOM      8  C   UNL     1      38.139 -24.942 -13.708  0.00  0.00    +0.248 C 
BRANCH   8   9
ATOM      9  O   UNL     1      39.038 -24.453 -12.721  0.00  0.00    -0.372 OA
ATOM     10  H   UNL     1      38.947 -24.979 -11.910  0.00  0.00    +0.211 HD
ENDBRANCH   8   9
BRANCH   8  12
ATOM     11  O   UNL     1      37.161 -26.299 -11.939  0.00  0.00    -0.247 OA
ATOM     12  C   UNL     1      37.028 -25.690 -12.993  0.00  0.00    +0.344 C 
BRANCH  12  13
ATOM     13  O   UNL     1      35.853 -25.637 -13.671  0.00  0.00    -0.478 OA
ATOM     14  H   UNL     1      35.605 -26.343 -14.235  0.00  0.00    +0.295 HD
ENDBRANCH  12  13
ENDBRANCH   8  12
ENDBRANCH   1   8
TORSDOF 7
ENDMDL
MODEL 5
REMARK VINA RESULT:      -5.6      2.839      3.884
REMARK  Name = 439655
REMARK  7 active torsions:
REMARK  status: ('A' for Active; 'I' for Inactive)
REMARK    1  A    between atoms: C_1  and  O_2
REMARK    2  A    between atoms: C_1  and  C_5
REMARK    3  A    between atoms: C_1  and  C_8
REMARK    4  A    between atoms: C_5  and  O_6
REMARK    5  A    between atoms: C_8  and  O_9
REMARK    6  A    between atoms: C_8  and  C_12
REMARK    7  A    between atoms: C_12  and  O_13
REMARK                            x       y       z     vdW  Elec       q    Type
REMARK                         _______ _______ _______ _____ _____    ______ ____
ROOT
ATOM      1  C   UNL     1      36.977 -25.643 -13.337  0.00  0.00    +0.248 C 
ENDROOT
BRANCH   1   2
ATOM      2  O   UNL     1      36.848 -26.353 -12.116  0.00  0.00    -0.372 OA
ATOM      3  H   UNL     1      36.905 -27.305 -12.288  0.00  0.00    +0.211 HD
ENDBRANCH   1   2
BRANCH   1   5
ATOM      4  O   UNL     1      39.338 -26.140 -13.553  0.00  0.00    -0.247 OA
ATOM      5  C   UNL     1      38.238 -26.046 -14.084  0.00  0.00    +0.344 C 
BRANCH   5   6
ATOM      6  O   UNL     1      38.037 -26.263 -15.408  0.00  0.00    -0.478 OA
ATOM      7  H   UNL     1      38.131 -27.125 -15.761  0.00  0.00    +0.295 HD
ENDBRANCH   5   6
ENDBRANCH   1   5
BRANCH   1   8
ATOM      8  C   UNL     1      36.931 -24.143 -13.044  0.00  0.00    +0.248 C 
BRANCH   8   9
ATOM      9  O   UNL     1      37.782 -23.480 -13.972  0.00  0.00    -0.372 OA
ATOM     10  H   UNL     1      37.351 -23.448 -14.841  0.00  0.00    +0.211 HD
ENDBRANCH   8   9
BRANCH   8  12
ATOM     11  O   UNL     1      36.754 -23.973 -10.622  0.00  0.00    -0.247 OA
ATOM     12  C   UNL     1      37.396 -23.776 -11.645  0.00  0.00    +0.344 C 
BRANCH  12  13
ATOM     13  O   UNL     1      38.610 -23.168 -11.650  0.00  0.00    -0.478 OA
ATOM     14  H   UNL     1      39.392 -23.685 -11.647  0.00  0.00    +0.295 HD
ENDBRANCH  12  13
ENDBRANCH   8  12
ENDBRANCH   1   8
TORSDOF 7
ENDMDL
MODEL 6
REMARK VINA RESULT:      -5.6      2.637      4.027
REMARK  Name = 439655
REMARK  7 active torsions:
REMARK  status: ('A' for Active; 'I' for Inactive)
REMARK    1  A    between atoms: C_1  and  O_2
REMARK    2  A    between atoms: C_1  and  C_5
REMARK    3  A    between atoms: C_1  and  C_8
REMARK    4  A    between atoms: C_5  and  O_6
REMARK    5  A    between atoms: C_8  and  O_9
REMARK    6  A    between atoms: C_8  and  C_12
REMARK    7  A    between atoms: C_12  and  O_13
REMARK                            x       y       z     vdW  Elec       q    Type
REMARK                         _______ _______ _______ _____ _____    ______ ____
ROOT
ATOM      1  C   UNL     1      36.886 -25.272 -13.873  0.00  0.00    +0.248 C 
ENDROOT
BRANCH   1   2
ATOM      2  O   UNL     1      35.526 -25.111 -13.507  0.00  0.00    -0.372 OA
ATOM      3  H   UNL     1      35.364 -24.188 -13.260  0.00  0.00    +0.211 HD
ENDBRANCH   1   2
BRANCH   1   5
ATOM      4  O   UNL     1      36.256 -26.703 -15.722  0.00  0.00    -0.247 OA
ATOM      5  C   UNL     1      37.069 -26.422 -14.849  0.00  0.00    +0.344 C 
BRANCH   5   6
ATOM      6  O   UNL     1      38.204 -27.134 -14.643  0.00  0.00    -0.478 OA
ATOM      7  H   UNL     1      38.888 -27.121 -15.283  0.00  0.00    +0.295 HD
ENDBRANCH   5   6
ENDBRANCH   1   5
BRANCH   1   8
ATOM      8  C   UNL     1      37.722 -25.448 -12.605  0.00  0.00    +0.248 C 
BRANCH   8   9
ATOM      9  O   UNL     1      37.159 -26.509 -11.843  0.00  0.00    -0.372 OA
ATOM     10  H   UNL     1      37.785 -27.251 -11.808  0.00  0.00    +0.211 HD
ENDBRANCH   8   9
BRANCH   8  12
ATOM     11  O   UNL     1      38.629 -23.351 -11.765  0.00  0.00    -0.247 OA
ATOM     12  C   UNL     1      37.763 -24.214 -11.720  0.00  0.00    +0.344 C 
BRANCH  12  13
ATOM     13  O   UNL     1      36.732 -24.181 -10.837  0.00  0.00    -0.478 OA
ATOM     14  H   UNL     1      36.847 -23.780  -9.997  0.00  0.00    +0.295 HD
ENDBRANCH  12  13
ENDBRANCH   8  12
ENDBRANCH   1   8
TORSDOF 7
ENDMDL
MODEL 7
REMARK VINA RESULT:      -5.5      2.545      3.279
REMARK  Name = 439655
REMARK  7 active torsions:
REMARK  status: ('A' for Active; 'I' for Inactive)
REMARK    1  A    between atoms: C_1  and  O_2
REMARK    2  A    between atoms: C_1  and  C_5
REMARK    3  A    between atoms: C_1  and  C_8
REMARK    4  A    between atoms: C_5  and  O_6
REMARK    5  A    between atoms: C_8  and  O_9
REMARK    6  A    between atoms: C_8  and  C_12
REMARK    7  A    between atoms: C_12  and  O_13
REMARK                            x       y       z     vdW  Elec       q    Type
REMARK                         _______ _______ _______ _____ _____    ______ ____
ROOT
ATOM      1  C   UNL     1      37.290 -24.321 -13.232  0.00  0.00    +0.248 C 
ENDROOT
BRANCH   1   2
ATOM      2  O   UNL     1      38.045 -23.745 -14.284  0.00  0.00    -0.372 OA
ATOM      3  H   UNL     1      38.752 -24.354 -14.547  0.00  0.00    +0.211 HD
ENDBRANCH   1   2
BRANCH   1   5
ATOM      4  O   UNL     1      38.847 -23.288 -11.690  0.00  0.00    -0.247 OA
ATOM      5  C   UNL     1      37.763 -23.830 -11.873  0.00  0.00    +0.344 C 
BRANCH   5   6
ATOM      6  O   UNL     1      36.884 -24.077 -10.871  0.00  0.00    -0.478 OA
ATOM      7  H   UNL     1      36.208 -24.715 -10.987  0.00  0.00    +0.295 HD
ENDBRANCH   5   6
ENDBRANCH   1   5
BRANCH   1   8
ATOM      8  C   UNL     1      37.355 -25.844 -13.353  0.00  0.00    +0.248 C 
BRANCH   8   9
ATOM      9  O   UNL     1      37.998 -26.358 -12.193  0.00  0.00    -0.372 OA
ATOM     10  H   UNL     1      37.687 -27.261 -12.023  0.00  0.00    +0.211 HD
ENDBRANCH   8   9
BRANCH   8  12
ATOM     11  O   UNL     1      39.323 -26.600 -14.571  0.00  0.00    -0.247 OA
ATOM     12  C   UNL     1      38.128 -26.331 -14.566  0.00  0.00    +0.344 C 
BRANCH  12  13
ATOM     13  O   UNL     1      37.349 -26.412 -15.674  0.00  0.00    -0.478 OA
ATOM     14  H   UNL     1      37.727 -26.653 -16.497  0.00  0.00    +0.295 HD
ENDBRANCH  12  13
ENDBRANCH   8  12
ENDBRANCH   1   8
TORSDOF 7
ENDMDL
MODEL 8
REMARK VINA RESULT:      -5.5      3.276      4.291
REMARK  Name = 439655
REMARK  7 active torsions:
REMARK  status: ('A' for Active; 'I' for Inactive)
REMARK    1  A    between atoms: C_1  and  O_2
REMARK    2  A    between atoms: C_1  and  C_5
REMARK    3  A    between atoms: C_1  and  C_8
REMARK    4  A    between atoms: C_5  and  O_6
REMARK    5  A    between atoms: C_8  and  O_9
REMARK    6  A    between atoms: C_8  and  C_12
REMARK    7  A    between atoms: C_12  and  O_13
REMARK                            x       y       z     vdW  Elec       q    Type
REMARK                         _______ _______ _______ _____ _____    ______ ____
ROOT
ATOM      1  C   UNL     1      35.523 -24.445 -12.610  0.00  0.00    +0.248 C 
ENDROOT
BRANCH   1   2
ATOM      2  O   UNL     1      35.686 -23.125 -13.102  0.00  0.00    -0.372 OA
ATOM      3  H   UNL     1      35.992 -22.548 -12.387  0.00  0.00    +0.211 HD
ENDBRANCH   1   2
BRANCH   1   5
ATOM      4  O   UNL     1      35.220 -25.076 -10.291  0.00  0.00    -0.247 OA
ATOM      5  C   UNL     1      35.920 -24.545 -11.146  0.00  0.00    +0.344 C 
BRANCH   5   6
ATOM      6  O   UNL     1      37.111 -23.962 -10.865  0.00  0.00    -0.478 OA
ATOM      7  H   UNL     1      37.854 -24.492 -10.652  0.00  0.00    +0.295 HD
ENDBRANCH   5   6
ENDBRANCH   1   5
BRANCH   1   8
ATOM      8  C   UNL     1      36.319 -25.405 -13.494  0.00  0.00    +0.248 C 
BRANCH   8   9
ATOM      9  O   UNL     1      36.848 -26.437 -12.670  0.00  0.00    -0.372 OA
ATOM     10  H   UNL     1      36.802 -26.164 -11.739  0.00  0.00    +0.211 HD
ENDBRANCH   8   9
BRANCH   8  12
ATOM     11  O   UNL     1      38.501 -24.341 -13.680  0.00  0.00    -0.247 OA
ATOM     12  C   UNL     1      37.481 -24.751 -14.220  0.00  0.00    +0.344 C 
BRANCH  12  13
ATOM     13  O   UNL     1      37.257 -24.640 -15.554  0.00  0.00    -0.478 OA
ATOM     14  H   UNL     1      36.386 -24.722 -15.892  0.00  0.00    +0.295 HD
ENDBRANCH  12  13
ENDBRANCH   8  12
ENDBRANCH   1   8
TORSDOF 7
ENDMDL
MODEL 9
REMARK VINA RESULT:      -5.5      1.762      2.878
REMARK  Name = 439655
REMARK  7 active torsions:
REMARK  status: ('A' for Active; 'I' for Inactive)
REMARK    1  A    between atoms: C_1  and  O_2
REMARK    2  A    between atoms: C_1  and  C_5
REMARK    3  A    between atoms: C_1  and  C_8
REMARK    4  A    between atoms: C_5  and  O_6
REMARK    5  A    between atoms: C_8  and  O_9
REMARK    6  A    between atoms: C_8  and  C_12
REMARK    7  A    between atoms: C_12  and  O_13
REMARK                            x       y       z     vdW  Elec       q    Type
REMARK                         _______ _______ _______ _____ _____    ______ ____
ROOT
ATOM      1  C   UNL     1      38.655 -25.833 -14.582  0.00  0.00    +0.248 C 
ENDROOT
BRANCH   1   2
ATOM      2  O   UNL     1      38.485 -26.186 -13.220  0.00  0.00    -0.372 OA
ATOM      3  H   UNL     1      38.283 -25.392 -12.703  0.00  0.00    +0.211 HD
ENDBRANCH   1   2
BRANCH   1   5
ATOM      4  O   UNL     1      40.691 -26.043 -15.876  0.00  0.00    -0.247 OA
ATOM      5  C   UNL     1      40.114 -25.560 -14.909  0.00  0.00    +0.344 C 
BRANCH   5   6
ATOM      6  O   UNL     1      40.729 -24.754 -14.009  0.00  0.00    -0.478 OA
ATOM      7  H   UNL     1      40.272 -24.473 -13.242  0.00  0.00    +0.295 HD
ENDBRANCH   5   6
ENDBRANCH   1   5
BRANCH   1   8
ATOM      8  C   UNL     1      37.755 -24.639 -14.900  0.00  0.00    +0.248 C 
BRANCH   8   9
ATOM      9  O   UNL     1      38.526 -23.675 -15.608  0.00  0.00    -0.372 OA
ATOM     10  H   UNL     1      38.029 -23.370 -16.384  0.00  0.00    +0.211 HD
ENDBRANCH   8   9
BRANCH   8  12
ATOM     11  O   UNL     1      36.011 -24.033 -13.313  0.00  0.00    -0.247 OA
ATOM     12  C   UNL     1      37.180 -23.959 -13.670  0.00  0.00    +0.344 C 
BRANCH  12  13
ATOM     13  O   UNL     1      38.109 -23.223 -13.008  0.00  0.00    -0.478 OA
ATOM     14  H   UNL     1      39.021 -23.413 -13.115  0.00  0.00    +0.295 HD
ENDBRANCH  12  13
ENDBRANCH   8  12
ENDBRANCH   1   8
TORSDOF 7
ENDMDL
