MODEL 1
REMARK VINA RESULT:     -10.3      0.000      0.000
REMARK  Name = 24941258
REMARK  4 active torsions:
REMARK  status: ('A' for Active; 'I' for Inactive)
REMARK    1  A    between atoms: C_6  and  C_17
REMARK    2  A    between atoms: C_17  and  C_18
REMARK    3  A    between atoms: C_18  and  N_20
REMARK    4  A    between atoms: C_21  and  C_24
REMARK                            x       y       z     vdW  Elec       q    Type
REMARK                         _______ _______ _______ _____ _____    ______ ____
ROOT
ATOM      1  F   UNL     1      34.719 -15.331 -19.871  0.00  0.00    -0.203 F 
ATOM      2  F   UNL     1      34.143 -16.280 -25.223  0.00  0.00    -0.204 F 
ATOM      3  N   UNL     1      35.124 -17.909 -20.795  0.00  0.00    -0.314 N 
ATOM      4  N   UNL     1      35.229 -19.481 -22.745  0.00  0.00    -0.238 NA
ATOM      5  N   UNL     1      34.407 -18.855 -24.809  0.00  0.00    -0.343 N 
ATOM      6  C   UNL     1      35.633 -19.132 -21.378  0.00  0.00    +0.178 C 
ATOM      7  C   UNL     1      34.795 -16.885 -21.668  0.00  0.00    +0.079 C 
ATOM      8  C   UNL     1      34.622 -17.132 -23.038  0.00  0.00    +0.074 C 
ATOM      9  C   UNL     1      34.775 -18.542 -23.521  0.00  0.00    +0.126 C 
ATOM     10  C   UNL     1      34.586 -15.586 -21.180  0.00  0.00    +0.153 C 
ATOM     11  C   UNL     1      34.292 -16.082 -23.906  0.00  0.00    +0.144 C 
ATOM     12  C   UNL     1      34.250 -14.544 -22.045  0.00  0.00    +0.033 C 
ATOM     13  C   UNL     1      34.110 -14.793 -23.406  0.00  0.00    +0.032 C 
ATOM     14  H   UNL     1      35.015 -17.810 -19.822  0.00  0.00    +0.149 HD
ATOM     15  H   UNL     1      34.503 -19.778 -25.138  0.00  0.00    +0.144 HD
ATOM     16  H   UNL     1      34.050 -18.156 -25.402  0.00  0.00    +0.144 HD
ENDROOT
BRANCH   6  17
ATOM     17  C   UNL     1      35.229 -20.299 -20.478  0.00  0.00    +0.066 C 
BRANCH  17  18
ATOM     18  C   UNL     1      33.729 -20.553 -20.492  0.00  0.00    +0.093 C 
BRANCH  18  20
ATOM     19  O   UNL     1      34.308 -23.174 -19.474  0.00  0.00    -0.270 OA
ATOM     20  N   UNL     1      33.257 -21.118 -19.258  0.00  0.00    -0.301 N 
ATOM     21  C   UNL     1      33.590 -22.402 -18.843  0.00  0.00    +0.249 C 
ATOM     22  H   UNL     1      32.672 -20.573 -18.682  0.00  0.00    +0.150 HD
BRANCH  21  24
ATOM     23  O   UNL     1      32.867 -23.714 -15.486  0.00  0.00    -0.447 OA
ATOM     24  C   UNL     1      33.000 -22.849 -17.556  0.00  0.00    +0.094 C 
ATOM     25  C   UNL     1      31.649 -22.793 -17.135  0.00  0.00    +0.048 C 
ATOM     26  C   UNL     1      33.699 -23.419 -16.517  0.00  0.00    +0.184 C 
ATOM     27  C   UNL     1      31.621 -23.331 -15.869  0.00  0.00    +0.180 C 
ENDBRANCH  21  24
ENDBRANCH  18  20
ENDBRANCH  17  18
ENDBRANCH   6  17
TORSDOF 4
ENDMDL
MODEL 2
REMARK VINA RESULT:     -10.2      4.069      8.807
REMARK  Name = 24941258
REMARK  4 active torsions:
REMARK  status: ('A' for Active; 'I' for Inactive)
REMARK    1  A    between atoms: C_6  and  C_17
REMARK    2  A    between atoms: C_17  and  C_18
REMARK    3  A    between atoms: C_18  and  N_20
REMARK    4  A    between atoms: C_21  and  C_24
REMARK                            x       y       z     vdW  Elec       q    Type
REMARK                         _______ _______ _______ _____ _____    ______ ____
ROOT
ATOM      1  F   UNL     1      30.364 -23.390 -16.556  0.00  0.00    -0.203 F 
ATOM      2  F   UNL     1      35.354 -24.027 -14.416  0.00  0.00    -0.204 F 
ATOM      3  N   UNL     1      32.544 -22.546 -18.040  0.00  0.00    -0.314 N 
ATOM      4  N   UNL     1      35.034 -22.340 -18.240  0.00  0.00    -0.238 NA
ATOM      5  N   UNL     1      36.395 -22.673 -16.406  0.00  0.00    -0.343 N 
ATOM      6  C   UNL     1      33.717 -22.435 -18.881  0.00  0.00    +0.178 C 
ATOM      7  C   UNL     1      32.714 -23.125 -16.793  0.00  0.00    +0.079 C 
ATOM      8  C   UNL     1      33.993 -23.265 -16.232  0.00  0.00    +0.074 C 
ATOM      9  C   UNL     1      35.161 -22.744 -17.011  0.00  0.00    +0.126 C 
ATOM     10  C   UNL     1      31.598 -23.539 -16.052  0.00  0.00    +0.153 C 
ATOM     11  C   UNL     1      34.146 -23.856 -14.970  0.00  0.00    +0.144 C 
ATOM     12  C   UNL     1      31.752 -24.119 -14.793  0.00  0.00    +0.033 C 
ATOM     13  C   UNL     1      33.025 -24.282 -14.257  0.00  0.00    +0.032 C 
ATOM     14  H   UNL     1      31.663 -22.224 -18.341  0.00  0.00    +0.149 HD
ATOM     15  H   UNL     1      37.170 -22.332 -16.907  0.00  0.00    +0.144 HD
ATOM     16  H   UNL     1      36.501 -22.964 -15.472  0.00  0.00    +0.144 HD
ENDROOT
BRANCH   6  17
ATOM     17  C   UNL     1      33.558 -21.202 -19.769  0.00  0.00    +0.066 C 
BRANCH  17  18
ATOM     18  C   UNL     1      34.896 -20.620 -20.201  0.00  0.00    +0.093 C 
BRANCH  18  20
ATOM     19  O   UNL     1      35.532 -17.853 -20.627  0.00  0.00    -0.270 OA
ATOM     20  N   UNL     1      34.806 -19.900 -21.441  0.00  0.00    -0.301 N 
ATOM     21  C   UNL     1      35.136 -18.554 -21.555  0.00  0.00    +0.249 C 
ATOM     22  H   UNL     1      34.497 -20.379 -22.245  0.00  0.00    +0.150 HD
BRANCH  21  24
ATOM     23  O   UNL     1      34.771 -16.375 -24.493  0.00  0.00    -0.447 OA
ATOM     24  C   UNL     1      34.964 -17.948 -22.899  0.00  0.00    +0.094 C 
ATOM     25  C   UNL     1      34.783 -18.596 -24.146  0.00  0.00    +0.048 C 
ATOM     26  C   UNL     1      34.949 -16.598 -23.166  0.00  0.00    +0.184 C 
ATOM     27  C   UNL     1      34.671 -17.595 -25.083  0.00  0.00    +0.180 C 
ENDBRANCH  21  24
ENDBRANCH  18  20
ENDBRANCH  17  18
ENDBRANCH   6  17
TORSDOF 4
ENDMDL
MODEL 3
REMARK VINA RESULT:     -10.2      4.649      6.894
REMARK  Name = 24941258
REMARK  4 active torsions:
REMARK  status: ('A' for Active; 'I' for Inactive)
REMARK    1  A    between atoms: C_6  and  C_17
REMARK    2  A    between atoms: C_17  and  C_18
REMARK    3  A    between atoms: C_18  and  N_20
REMARK    4  A    between atoms: C_21  and  C_24
REMARK                            x       y       z     vdW  Elec       q    Type
REMARK                         _______ _______ _______ _____ _____    ______ ____
ROOT
ATOM      1  F   UNL     1      35.692  -9.926 -25.131  0.00  0.00    -0.203 F 
ATOM      2  F   UNL     1      31.513  -9.208 -21.680  0.00  0.00    -0.204 F 
ATOM      3  N   UNL     1      34.165 -12.131 -24.446  0.00  0.00    -0.314 N 
ATOM      4  N   UNL     1      32.200 -13.055 -23.194  0.00  0.00    -0.238 NA
ATOM      5  N   UNL     1      31.138 -11.800 -21.574  0.00  0.00    -0.343 N 
ATOM      6  C   UNL     1      33.148 -13.152 -24.310  0.00  0.00    +0.178 C 
ATOM      7  C   UNL     1      33.871 -10.877 -23.937  0.00  0.00    +0.079 C 
ATOM      8  C   UNL     1      32.814 -10.696 -23.031  0.00  0.00    +0.074 C 
ATOM      9  C   UNL     1      32.035 -11.905 -22.612  0.00  0.00    +0.126 C 
ATOM     10  C   UNL     1      34.660  -9.772 -24.288  0.00  0.00    +0.153 C 
ATOM     11  C   UNL     1      32.530  -9.419 -22.528  0.00  0.00    +0.144 C 
ATOM     12  C   UNL     1      34.381  -8.504 -23.781  0.00  0.00    +0.033 C 
ATOM     13  C   UNL     1      33.313  -8.328 -22.907  0.00  0.00    +0.032 C 
ATOM     14  H   UNL     1      35.027 -12.319 -24.881  0.00  0.00    +0.149 HD
ATOM     15  H   UNL     1      30.621 -12.588 -21.289  0.00  0.00    +0.144 HD
ATOM     16  H   UNL     1      31.014 -10.938 -21.117  0.00  0.00    +0.144 HD
ENDROOT
BRANCH   6  17
ATOM     17  C   UNL     1      33.840 -14.509 -24.197  0.00  0.00    +0.066 C 
BRANCH  17  18
ATOM     18  C   UNL     1      34.413 -14.757 -22.809  0.00  0.00    +0.093 C 
BRANCH  18  20
ATOM     19  O   UNL     1      35.036 -15.903 -20.252  0.00  0.00    -0.270 OA
ATOM     20  N   UNL     1      34.512 -16.156 -22.498  0.00  0.00    -0.301 N 
ATOM     21  C   UNL     1      34.820 -16.623 -21.225  0.00  0.00    +0.249 C 
ATOM     22  H   UNL     1      34.355 -16.812 -23.215  0.00  0.00    +0.150 HD
BRANCH  21  24
ATOM     23  O   UNL     1      35.818 -20.143 -20.876  0.00  0.00    -0.447 OA
ATOM     24  C   UNL     1      34.911 -18.097 -21.071  0.00  0.00    +0.094 C 
ATOM     25  C   UNL     1      33.862 -19.041 -20.953  0.00  0.00    +0.048 C 
ATOM     26  C   UNL     1      36.081 -18.819 -21.019  0.00  0.00    +0.184 C 
ATOM     27  C   UNL     1      34.466 -20.271 -20.836  0.00  0.00    +0.180 C 
ENDBRANCH  21  24
ENDBRANCH  18  20
ENDBRANCH  17  18
ENDBRANCH   6  17
TORSDOF 4
ENDMDL
MODEL 4
REMARK VINA RESULT:     -10.2      2.260      3.414
REMARK  Name = 24941258
REMARK  4 active torsions:
REMARK  status: ('A' for Active; 'I' for Inactive)
REMARK    1  A    between atoms: C_6  and  C_17
REMARK    2  A    between atoms: C_17  and  C_18
REMARK    3  A    between atoms: C_18  and  N_20
REMARK    4  A    between atoms: C_21  and  C_24
REMARK                            x       y       z     vdW  Elec       q    Type
REMARK                         _______ _______ _______ _____ _____    ______ ____
ROOT
ATOM      1  F   UNL     1      34.809 -18.391 -25.506  0.00  0.00    -0.203 F 
ATOM      2  F   UNL     1      33.538 -13.842 -22.753  0.00  0.00    -0.204 F 
ATOM      3  N   UNL     1      35.259 -18.344 -22.775  0.00  0.00    -0.314 N 
ATOM      4  N   UNL     1      35.088 -17.093 -20.609  0.00  0.00    -0.238 NA
ATOM      5  N   UNL     1      34.637 -14.830 -20.587  0.00  0.00    -0.343 N 
ATOM      6  C   UNL     1      35.160 -18.369 -21.330  0.00  0.00    +0.178 C 
ATOM      7  C   UNL     1      34.715 -17.247 -23.424  0.00  0.00    +0.079 C 
ATOM      8  C   UNL     1      34.412 -16.070 -22.723  0.00  0.00    +0.074 C 
ATOM      9  C   UNL     1      34.722 -16.028 -21.258  0.00  0.00    +0.126 C 
ATOM     10  C   UNL     1      34.502 -17.286 -24.810  0.00  0.00    +0.153 C 
ATOM     11  C   UNL     1      33.861 -14.972 -23.397  0.00  0.00    +0.144 C 
ATOM     12  C   UNL     1      33.960 -16.190 -25.480  0.00  0.00    +0.033 C 
ATOM     13  C   UNL     1      33.635 -15.038 -24.772  0.00  0.00    +0.032 C 
ATOM     14  H   UNL     1      35.693 -19.072 -23.273  0.00  0.00    +0.149 HD
ATOM     15  H   UNL     1      34.838 -14.789 -19.625  0.00  0.00    +0.144 HD
ATOM     16  H   UNL     1      34.374 -14.014 -21.070  0.00  0.00    +0.144 HD
ENDROOT
BRANCH   6  17
ATOM     17  C   UNL     1      36.364 -19.131 -20.779  0.00  0.00    +0.066 C 
BRANCH  17  18
ATOM     18  C   UNL     1      36.049 -20.593 -20.499  0.00  0.00    +0.093 C 
BRANCH  18  20
ATOM     19  O   UNL     1      34.781 -22.624 -18.916  0.00  0.00    -0.270 OA
ATOM     20  N   UNL     1      36.404 -20.985 -19.163  0.00  0.00    -0.301 N 
ATOM     21  C   UNL     1      35.730 -21.984 -18.469  0.00  0.00    +0.249 C 
ATOM     22  H   UNL     1      37.154 -20.527 -18.720  0.00  0.00    +0.150 HD
BRANCH  21  24
ATOM     23  O   UNL     1      37.537 -22.264 -15.280  0.00  0.00    -0.447 OA
ATOM     24  C   UNL     1      36.201 -22.254 -17.087  0.00  0.00    +0.094 C 
ATOM     25  C   UNL     1      35.538 -22.947 -16.046  0.00  0.00    +0.048 C 
ATOM     26  C   UNL     1      37.414 -21.860 -16.570  0.00  0.00    +0.184 C 
ATOM     27  C   UNL     1      36.392 -22.925 -14.968  0.00  0.00    +0.180 C 
ENDBRANCH  21  24
ENDBRANCH  18  20
ENDBRANCH  17  18
ENDBRANCH   6  17
TORSDOF 4
ENDMDL
MODEL 5
REMARK VINA RESULT:     -10.2      3.928      8.758
REMARK  Name = 24941258
REMARK  4 active torsions:
REMARK  status: ('A' for Active; 'I' for Inactive)
REMARK    1  A    between atoms: C_6  and  C_17
REMARK    2  A    between atoms: C_17  and  C_18
REMARK    3  A    between atoms: C_18  and  N_20
REMARK    4  A    between atoms: C_21  and  C_24
REMARK                            x       y       z     vdW  Elec       q    Type
REMARK                         _______ _______ _______ _____ _____    ______ ____
ROOT
ATOM      1  F   UNL     1      29.649 -22.728 -16.970  0.00  0.00    -0.203 F 
ATOM      2  F   UNL     1      33.562 -23.748 -13.291  0.00  0.00    -0.204 F 
ATOM      3  N   UNL     1      32.278 -22.790 -17.836  0.00  0.00    -0.314 N 
ATOM      4  N   UNL     1      34.695 -23.158 -17.283  0.00  0.00    -0.238 NA
ATOM      5  N   UNL     1      35.402 -23.239 -15.088  0.00  0.00    -0.343 N 
ATOM      6  C   UNL     1      33.609 -23.157 -18.270  0.00  0.00    +0.178 C 
ATOM      7  C   UNL     1      31.962 -23.022 -16.508  0.00  0.00    +0.079 C 
ATOM      8  C   UNL     1      32.967 -23.259 -15.558  0.00  0.00    +0.074 C 
ATOM      9  C   UNL     1      34.391 -23.223 -16.021  0.00  0.00    +0.126 C 
ATOM     10  C   UNL     1      30.625 -22.979 -16.085  0.00  0.00    +0.153 C 
ATOM     11  C   UNL     1      32.628 -23.495 -14.219  0.00  0.00    +0.144 C 
ATOM     12  C   UNL     1      30.290 -23.206 -14.751  0.00  0.00    +0.033 C 
ATOM     13  C   UNL     1      31.291 -23.470 -13.821  0.00  0.00    +0.032 C 
ATOM     14  H   UNL     1      31.626 -22.392 -18.457  0.00  0.00    +0.149 HD
ATOM     15  H   UNL     1      36.342 -23.216 -15.379  0.00  0.00    +0.144 HD
ATOM     16  H   UNL     1      35.185 -23.275 -14.129  0.00  0.00    +0.144 HD
ENDROOT
BRANCH   6  17
ATOM     17  C   UNL     1      34.026 -22.213 -19.397  0.00  0.00    +0.066 C 
BRANCH  17  18
ATOM     18  C   UNL     1      33.116 -20.998 -19.505  0.00  0.00    +0.093 C 
BRANCH  18  20
ATOM     19  O   UNL     1      35.545 -19.630 -20.189  0.00  0.00    -0.270 OA
ATOM     20  N   UNL     1      33.363 -20.232 -20.695  0.00  0.00    -0.301 N 
ATOM     21  C   UNL     1      34.576 -19.600 -20.944  0.00  0.00    +0.249 C 
ATOM     22  H   UNL     1      32.643 -20.150 -21.363  0.00  0.00    +0.150 HD
BRANCH  21  24
ATOM     23  O   UNL     1      34.711 -17.061 -23.599  0.00  0.00    -0.447 OA
ATOM     24  C   UNL     1      34.665 -18.825 -22.208  0.00  0.00    +0.094 C 
ATOM     25  C   UNL     1      34.823 -19.304 -23.531  0.00  0.00    +0.048 C 
ATOM     26  C   UNL     1      34.601 -17.454 -22.304  0.00  0.00    +0.184 C 
ATOM     27  C   UNL     1      34.846 -18.192 -24.340  0.00  0.00    +0.180 C 
ENDBRANCH  21  24
ENDBRANCH  18  20
ENDBRANCH  17  18
ENDBRANCH   6  17
TORSDOF 4
ENDMDL
MODEL 6
REMARK VINA RESULT:     -10.2      1.833      2.099
REMARK  Name = 24941258
REMARK  4 active torsions:
REMARK  status: ('A' for Active; 'I' for Inactive)
REMARK    1  A    between atoms: C_6  and  C_17
REMARK    2  A    between atoms: C_17  and  C_18
REMARK    3  A    between atoms: C_18  and  N_20
REMARK    4  A    between atoms: C_21  and  C_24
REMARK                            x       y       z     vdW  Elec       q    Type
REMARK                         _______ _______ _______ _____ _____    ______ ____
ROOT
ATOM      1  F   UNL     1      34.694 -15.251 -19.936  0.00  0.00    -0.203 F 
ATOM      2  F   UNL     1      34.315 -16.225 -25.302  0.00  0.00    -0.204 F 
ATOM      3  N   UNL     1      35.094 -17.841 -20.829  0.00  0.00    -0.314 N 
ATOM      4  N   UNL     1      35.252 -19.426 -22.764  0.00  0.00    -0.238 NA
ATOM      5  N   UNL     1      34.522 -18.801 -24.863  0.00  0.00    -0.343 N 
ATOM      6  C   UNL     1      35.607 -19.076 -21.384  0.00  0.00    +0.178 C 
ATOM      7  C   UNL     1      34.816 -16.817 -21.720  0.00  0.00    +0.079 C 
ATOM      8  C   UNL     1      34.694 -17.071 -23.095  0.00  0.00    +0.074 C 
ATOM      9  C   UNL     1      34.843 -18.486 -23.563  0.00  0.00    +0.126 C 
ATOM     10  C   UNL     1      34.609 -15.513 -21.249  0.00  0.00    +0.153 C 
ATOM     11  C   UNL     1      34.415 -16.021 -23.981  0.00  0.00    +0.144 C 
ATOM     12  C   UNL     1      34.324 -14.471 -22.132  0.00  0.00    +0.033 C 
ATOM     13  C   UNL     1      34.234 -14.726 -23.496  0.00  0.00    +0.032 C 
ATOM     14  H   UNL     1      34.948 -17.734 -19.862  0.00  0.00    +0.149 HD
ATOM     15  H   UNL     1      34.616 -19.727 -25.182  0.00  0.00    +0.144 HD
ATOM     16  H   UNL     1      34.199 -18.101 -25.473  0.00  0.00    +0.144 HD
ENDROOT
BRANCH   6  17
ATOM     17  C   UNL     1      35.149 -20.231 -20.495  0.00  0.00    +0.066 C 
BRANCH  17  18
ATOM     18  C   UNL     1      36.305 -21.114 -20.048  0.00  0.00    +0.093 C 
BRANCH  18  20
ATOM     19  O   UNL     1      37.260 -20.712 -17.371  0.00  0.00    -0.270 OA
ATOM     20  N   UNL     1      35.977 -21.903 -18.893  0.00  0.00    -0.301 N 
ATOM     21  C   UNL     1      36.489 -21.633 -17.628  0.00  0.00    +0.249 C 
ATOM     22  H   UNL     1      35.365 -22.667 -19.000  0.00  0.00    +0.150 HD
BRANCH  21  24
ATOM     23  O   UNL     1      36.221 -23.885 -14.735  0.00  0.00    -0.447 OA
ATOM     24  C   UNL     1      36.075 -22.557 -16.543  0.00  0.00    +0.094 C 
ATOM     25  C   UNL     1      34.790 -23.090 -16.275  0.00  0.00    +0.048 C 
ATOM     26  C   UNL     1      36.909 -23.073 -15.577  0.00  0.00    +0.184 C 
ATOM     27  C   UNL     1      34.932 -23.891 -15.166  0.00  0.00    +0.180 C 
ENDBRANCH  21  24
ENDBRANCH  18  20
ENDBRANCH  17  18
ENDBRANCH   6  17
TORSDOF 4
ENDMDL
MODEL 7
REMARK VINA RESULT:     -10.1      1.834      2.540
REMARK  Name = 24941258
REMARK  4 active torsions:
REMARK  status: ('A' for Active; 'I' for Inactive)
REMARK    1  A    between atoms: C_6  and  C_17
REMARK    2  A    between atoms: C_17  and  C_18
REMARK    3  A    between atoms: C_18  and  N_20
REMARK    4  A    between atoms: C_21  and  C_24
REMARK                            x       y       z     vdW  Elec       q    Type
REMARK                         _______ _______ _______ _____ _____    ______ ____
ROOT
ATOM      1  F   UNL     1      33.285 -15.137 -19.821  0.00  0.00    -0.203 F 
ATOM      2  F   UNL     1      32.688 -13.588 -25.029  0.00  0.00    -0.204 F 
ATOM      3  N   UNL     1      34.538 -16.634 -21.785  0.00  0.00    -0.314 N 
ATOM      4  N   UNL     1      35.064 -16.944 -24.216  0.00  0.00    -0.238 NA
ATOM      5  N   UNL     1      33.913 -15.763 -25.831  0.00  0.00    -0.343 N 
ATOM      6  C   UNL     1      35.415 -17.162 -22.808  0.00  0.00    +0.178 C 
ATOM      7  C   UNL     1      33.789 -15.516 -22.113  0.00  0.00    +0.079 C 
ATOM      8  C   UNL     1      33.614 -15.132 -23.451  0.00  0.00    +0.074 C 
ATOM      9  C   UNL     1      34.237 -15.985 -24.512  0.00  0.00    +0.126 C 
ATOM     10  C   UNL     1      33.155 -14.774 -21.105  0.00  0.00    +0.153 C 
ATOM     11  C   UNL     1      32.855 -13.996 -23.763  0.00  0.00    +0.144 C 
ATOM     12  C   UNL     1      32.393 -13.649 -21.419  0.00  0.00    +0.033 C 
ATOM     13  C   UNL     1      32.250 -13.258 -22.746  0.00  0.00    +0.032 C 
ATOM     14  H   UNL     1      34.475 -17.051 -20.896  0.00  0.00    +0.149 HD
ATOM     15  H   UNL     1      34.316 -16.317 -26.537  0.00  0.00    +0.144 HD
ATOM     16  H   UNL     1      33.278 -15.049 -26.067  0.00  0.00    +0.144 HD
ENDROOT
BRANCH   6  17
ATOM     17  C   UNL     1      35.540 -18.671 -22.604  0.00  0.00    +0.066 C 
BRANCH  17  18
ATOM     18  C   UNL     1      34.272 -19.288 -22.033  0.00  0.00    +0.093 C 
BRANCH  18  20
ATOM     19  O   UNL     1      32.360 -20.441 -20.229  0.00  0.00    -0.270 OA
ATOM     20  N   UNL     1      34.544 -20.225 -20.978  0.00  0.00    -0.301 N 
ATOM     21  C   UNL     1      33.550 -20.733 -20.149  0.00  0.00    +0.249 C 
ATOM     22  H   UNL     1      35.473 -20.520 -20.836  0.00  0.00    +0.150 HD
BRANCH  21  24
ATOM     23  O   UNL     1      35.374 -22.806 -17.722  0.00  0.00    -0.447 OA
ATOM     24  C   UNL     1      33.997 -21.672 -19.090  0.00  0.00    +0.094 C 
ATOM     25  C   UNL     1      33.213 -22.518 -18.268  0.00  0.00    +0.048 C 
ATOM     26  C   UNL     1      35.305 -21.886 -18.718  0.00  0.00    +0.184 C 
ATOM     27  C   UNL     1      34.097 -23.187 -17.454  0.00  0.00    +0.180 C 
ENDBRANCH  21  24
ENDBRANCH  18  20
ENDBRANCH  17  18
ENDBRANCH   6  17
TORSDOF 4
ENDMDL
MODEL 8
REMARK VINA RESULT:     -10.1      2.542      4.048
REMARK  Name = 24941258
REMARK  4 active torsions:
REMARK  status: ('A' for Active; 'I' for Inactive)
REMARK    1  A    between atoms: C_6  and  C_17
REMARK    2  A    between atoms: C_17  and  C_18
REMARK    3  A    between atoms: C_18  and  N_20
REMARK    4  A    between atoms: C_21  and  C_24
REMARK                            x       y       z     vdW  Elec       q    Type
REMARK                         _______ _______ _______ _____ _____    ______ ____
ROOT
ATOM      1  F   UNL     1      33.117 -15.441 -19.857  0.00  0.00    -0.203 F 
ATOM      2  F   UNL     1      32.330 -11.746 -23.808  0.00  0.00    -0.204 F 
ATOM      3  N   UNL     1      33.942 -16.071 -22.424  0.00  0.00    -0.314 N 
ATOM      4  N   UNL     1      34.202 -15.359 -24.813  0.00  0.00    -0.238 NA
ATOM      5  N   UNL     1      33.120 -13.481 -25.607  0.00  0.00    -0.343 N 
ATOM      6  C   UNL     1      34.633 -16.198 -23.689  0.00  0.00    +0.178 C 
ATOM      7  C   UNL     1      33.355 -14.847 -22.146  0.00  0.00    +0.079 C 
ATOM      8  C   UNL     1      33.130 -13.908 -23.165  0.00  0.00    +0.074 C 
ATOM      9  C   UNL     1      33.516 -14.283 -24.562  0.00  0.00    +0.126 C 
ATOM     10  C   UNL     1      32.936 -14.548 -20.842  0.00  0.00    +0.153 C 
ATOM     11  C   UNL     1      32.538 -12.674 -22.864  0.00  0.00    +0.144 C 
ATOM     12  C   UNL     1      32.340 -13.323 -20.546  0.00  0.00    +0.033 C 
ATOM     13  C   UNL     1      32.148 -12.386 -21.556  0.00  0.00    +0.032 C 
ATOM     14  H   UNL     1      33.890 -16.821 -21.789  0.00  0.00    +0.149 HD
ATOM     15  H   UNL     1      33.367 -13.717 -26.531  0.00  0.00    +0.144 HD
ATOM     16  H   UNL     1      32.589 -12.672 -25.432  0.00  0.00    +0.144 HD
ENDROOT
BRANCH   6  17
ATOM     17  C   UNL     1      34.533 -17.652 -24.149  0.00  0.00    +0.066 C 
BRANCH  17  18
ATOM     18  C   UNL     1      35.571 -18.545 -23.486  0.00  0.00    +0.093 C 
BRANCH  18  20
ATOM     19  O   UNL     1      35.363 -18.256 -20.638  0.00  0.00    -0.270 OA
ATOM     20  N   UNL     1      34.983 -19.482 -22.569  0.00  0.00    -0.301 N 
ATOM     21  C   UNL     1      34.926 -19.258 -21.198  0.00  0.00    +0.249 C 
ATOM     22  H   UNL     1      34.605 -20.319 -22.926  0.00  0.00    +0.150 HD
BRANCH  21  24
ATOM     23  O   UNL     1      32.727 -21.580 -19.386  0.00  0.00    -0.447 OA
ATOM     24  C   UNL     1      34.310 -20.335 -20.383  0.00  0.00    +0.094 C 
ATOM     25  C   UNL     1      34.947 -21.376 -19.665  0.00  0.00    +0.048 C 
ATOM     26  C   UNL     1      32.960 -20.504 -20.180  0.00  0.00    +0.184 C 
ATOM     27  C   UNL     1      33.941 -22.106 -19.076  0.00  0.00    +0.180 C 
ENDBRANCH  21  24
ENDBRANCH  18  20
ENDBRANCH  17  18
ENDBRANCH   6  17
TORSDOF 4
ENDMDL
MODEL 9
REMARK VINA RESULT:     -10.1      3.796      5.205
REMARK  Name = 24941258
REMARK  4 active torsions:
REMARK  status: ('A' for Active; 'I' for Inactive)
REMARK    1  A    between atoms: C_6  and  C_17
REMARK    2  A    between atoms: C_17  and  C_18
REMARK    3  A    between atoms: C_18  and  N_20
REMARK    4  A    between atoms: C_21  and  C_24
REMARK                            x       y       z     vdW  Elec       q    Type
REMARK                         _______ _______ _______ _____ _____    ______ ____
ROOT
ATOM      1  F   UNL     1      37.561 -18.697 -21.418  0.00  0.00    -0.203 F 
ATOM      2  F   UNL     1      32.298 -20.176 -21.366  0.00  0.00    -0.204 F 
ATOM      3  N   UNL     1      36.744 -20.565 -19.545  0.00  0.00    -0.314 N 
ATOM      4  N   UNL     1      34.893 -21.972 -18.608  0.00  0.00    -0.238 NA
ATOM      5  N   UNL     1      32.694 -21.557 -19.173  0.00  0.00    -0.343 N 
ATOM      6  C   UNL     1      36.327 -21.753 -18.831  0.00  0.00    +0.178 C 
ATOM      7  C   UNL     1      35.845 -20.028 -20.452  0.00  0.00    +0.079 C 
ATOM      8  C   UNL     1      34.489 -20.388 -20.423  0.00  0.00    +0.074 C 
ATOM      9  C   UNL     1      34.041 -21.347 -19.364  0.00  0.00    +0.126 C 
ATOM     10  C   UNL     1      36.275 -19.076 -21.389  0.00  0.00    +0.153 C 
ATOM     11  C   UNL     1      33.595 -19.836 -21.351  0.00  0.00    +0.144 C 
ATOM     12  C   UNL     1      35.382 -18.522 -22.306  0.00  0.00    +0.033 C 
ATOM     13  C   UNL     1      34.046 -18.907 -22.289  0.00  0.00    +0.032 C 
ATOM     14  H   UNL     1      37.626 -20.156 -19.394  0.00  0.00    +0.149 HD
ATOM     15  H   UNL     1      32.387 -22.185 -18.480  0.00  0.00    +0.144 HD
ATOM     16  H   UNL     1      32.039 -21.080 -19.730  0.00  0.00    +0.144 HD
ENDROOT
BRANCH   6  17
ATOM     17  C   UNL     1      37.001 -21.751 -17.459  0.00  0.00    +0.066 C 
BRANCH  17  18
ATOM     18  C   UNL     1      36.090 -22.283 -16.363  0.00  0.00    +0.093 C 
BRANCH  18  20
ATOM     19  O   UNL     1      35.587 -25.036 -15.721  0.00  0.00    -0.270 OA
ATOM     20  N   UNL     1      36.798 -23.084 -15.402  0.00  0.00    -0.301 N 
ATOM     21  C   UNL     1      36.484 -24.416 -15.155  0.00  0.00    +0.249 C 
ATOM     22  H   UNL     1      37.537 -22.672 -14.897  0.00  0.00    +0.150 HD
BRANCH  21  24
ATOM     23  O   UNL     1      38.976 -26.252 -13.172  0.00  0.00    -0.447 OA
ATOM     24  C   UNL     1      37.293 -25.098 -14.114  0.00  0.00    +0.094 C 
ATOM     25  C   UNL     1      37.014 -25.246 -12.733  0.00  0.00    +0.048 C 
ATOM     26  C   UNL     1      38.497 -25.728 -14.329  0.00  0.00    +0.184 C 
ATOM     27  C   UNL     1      38.068 -25.955 -12.205  0.00  0.00    +0.180 C 
ENDBRANCH  21  24
ENDBRANCH  18  20
ENDBRANCH  17  18
ENDBRANCH   6  17
TORSDOF 4
ENDMDL
