MODEL 1
REMARK VINA RESULT:      -8.7      0.000      0.000
REMARK  Name = 6450818
REMARK  2 active torsions:
REMARK  status: ('A' for Active; 'I' for Inactive)
REMARK    1  A    between atoms: N_1  and  C_18
REMARK    2  A    between atoms: C_18  and  C_19
REMARK                            x       y       z     vdW  Elec       q    Type
REMARK                         _______ _______ _______ _____ _____    ______ ____
ROOT
ATOM      1  N   UNL     1      34.468 -17.319 -22.859  0.00  0.00    -0.278 N 
ATOM      2  N   UNL     1      34.492 -17.140 -25.074  0.00  0.00    -0.390 NA
ATOM      3  N   UNL     1      32.823 -13.905 -24.370  0.00  0.00    -0.388 NA
ATOM      4  N   UNL     1      33.349 -15.290 -20.997  0.00  0.00    -0.244 NA
ATOM      5  N   UNL     1      33.369 -14.768 -26.530  0.00  0.00    -0.331 N 
ATOM      6  C   UNL     1      33.874 -16.114 -23.135  0.00  0.00    +0.174 C 
ATOM      7  C   UNL     1      34.820 -17.894 -24.049  0.00  0.00    +0.161 C 
ATOM      8  C   UNL     1      33.902 -16.027 -24.522  0.00  0.00    +0.177 C 
ATOM      9  C   UNL     1      33.328 -15.112 -22.338  0.00  0.00    +0.110 C 
ATOM     10  C   UNL     1      33.362 -14.895 -25.129  0.00  0.00    +0.204 C 
ATOM     11  C   UNL     1      32.807 -14.009 -23.023  0.00  0.00    +0.131 C 
ATOM     12  C   UNL     1      35.489 -19.209 -24.121  0.00  0.00    +0.084 C 
ATOM     13  C   UNL     1      32.266 -13.018 -22.211  0.00  0.00    +0.088 C 
ATOM     14  C   UNL     1      32.809 -14.292 -20.269  0.00  0.00    +0.094 C 
ATOM     15  C   UNL     1      32.260 -13.148 -20.822  0.00  0.00    +0.002 C 
ATOM     16  H   UNL     1      32.986 -13.967 -26.954  0.00  0.00    +0.145 HD
ATOM     17  H   UNL     1      33.758 -15.482 -27.086  0.00  0.00    +0.145 HD
ENDROOT
BRANCH   1  18
ATOM     18  C   UNL     1      34.690 -17.894 -21.550  0.00  0.00    +0.093 C 
BRANCH  18  19
ATOM     19  C   UNL     1      34.186 -19.341 -21.413  0.00  0.00    +0.020 C 
ATOM     20  C   UNL     1      32.807 -19.410 -20.754  0.00  0.00    +0.002 C 
ATOM     21  C   UNL     1      35.190 -20.164 -20.602  0.00  0.00    +0.002 C 
ENDBRANCH  18  19
ENDBRANCH   1  18
TORSDOF 2
ENDMDL
MODEL 2
REMARK VINA RESULT:      -8.7      8.260     10.564
REMARK  Name = 6450818
REMARK  2 active torsions:
REMARK  status: ('A' for Active; 'I' for Inactive)
REMARK    1  A    between atoms: N_1  and  C_18
REMARK    2  A    between atoms: C_18  and  C_19
REMARK                            x       y       z     vdW  Elec       q    Type
REMARK                         _______ _______ _______ _____ _____    ______ ____
ROOT
ATOM      1  N   UNL     1      35.424 -23.199 -15.424  0.00  0.00    -0.278 N 
ATOM      2  N   UNL     1      35.576 -22.434 -17.505  0.00  0.00    -0.390 NA
ATOM      3  N   UNL     1      31.924 -23.071 -17.515  0.00  0.00    -0.388 NA
ATOM      4  N   UNL     1      32.911 -24.102 -14.119  0.00  0.00    -0.244 NA
ATOM      5  N   UNL     1      33.208 -22.201 -19.333  0.00  0.00    -0.331 N 
ATOM      6  C   UNL     1      34.149 -23.245 -15.925  0.00  0.00    +0.174 C 
ATOM      7  C   UNL     1      36.240 -22.708 -16.405  0.00  0.00    +0.161 C 
ATOM      8  C   UNL     1      34.271 -22.763 -17.223  0.00  0.00    +0.177 C 
ATOM      9  C   UNL     1      32.927 -23.647 -15.393  0.00  0.00    +0.110 C 
ATOM     10  C   UNL     1      33.127 -22.682 -18.014  0.00  0.00    +0.204 C 
ATOM     11  C   UNL     1      31.826 -23.535 -16.251  0.00  0.00    +0.131 C 
ATOM     12  C   UNL     1      37.692 -22.523 -16.203  0.00  0.00    +0.084 C 
ATOM     13  C   UNL     1      30.614 -23.942 -15.704  0.00  0.00    +0.088 C 
ATOM     14  C   UNL     1      31.704 -24.479 -13.650  0.00  0.00    +0.094 C 
ATOM     15  C   UNL     1      30.539 -24.419 -14.394  0.00  0.00    +0.002 C 
ATOM     16  H   UNL     1      32.397 -22.147 -19.888  0.00  0.00    +0.145 HD
ATOM     17  H   UNL     1      34.077 -21.919 -19.701  0.00  0.00    +0.145 HD
ENDROOT
BRANCH   1  18
ATOM     18  C   UNL     1      35.848 -23.595 -14.098  0.00  0.00    +0.093 C 
BRANCH  18  19
ATOM     19  C   UNL     1      36.693 -24.881 -14.074  0.00  0.00    +0.020 C 
ATOM     20  C   UNL     1      36.136 -25.953 -15.014  0.00  0.00    +0.002 C 
ATOM     21  C   UNL     1      36.761 -25.428 -12.647  0.00  0.00    +0.002 C 
ENDBRANCH  18  19
ENDBRANCH   1  18
TORSDOF 2
ENDMDL
MODEL 3
REMARK VINA RESULT:      -8.6      8.400     11.423
REMARK  Name = 6450818
REMARK  2 active torsions:
REMARK  status: ('A' for Active; 'I' for Inactive)
REMARK    1  A    between atoms: N_1  and  C_18
REMARK    2  A    between atoms: C_18  and  C_19
REMARK                            x       y       z     vdW  Elec       q    Type
REMARK                         _______ _______ _______ _____ _____    ______ ____
ROOT
ATOM      1  N   UNL     1      35.444 -23.707 -13.980  0.00  0.00    -0.278 N 
ATOM      2  N   UNL     1      33.556 -24.355 -13.005  0.00  0.00    -0.390 NA
ATOM      3  N   UNL     1      32.096 -23.484 -16.299  0.00  0.00    -0.388 NA
ATOM      4  N   UNL     1      35.668 -22.722 -16.776  0.00  0.00    -0.244 NA
ATOM      5  N   UNL     1      30.903 -24.326 -14.407  0.00  0.00    -0.331 N 
ATOM      6  C   UNL     1      34.469 -23.549 -14.930  0.00  0.00    +0.174 C 
ATOM      7  C   UNL     1      34.850 -24.191 -12.848  0.00  0.00    +0.161 C 
ATOM      8  C   UNL     1      33.302 -23.960 -14.297  0.00  0.00    +0.177 C 
ATOM      9  C   UNL     1      34.481 -23.100 -16.248  0.00  0.00    +0.110 C 
ATOM     10  C   UNL     1      32.106 -23.919 -15.012  0.00  0.00    +0.204 C 
ATOM     11  C   UNL     1      33.241 -23.090 -16.897  0.00  0.00    +0.131 C 
ATOM     12  C   UNL     1      35.616 -24.481 -11.618  0.00  0.00    +0.084 C 
ATOM     13  C   UNL     1      33.272 -22.639 -18.211  0.00  0.00    +0.088 C 
ATOM     14  C   UNL     1      35.628 -22.296 -18.054  0.00  0.00    +0.094 C 
ATOM     15  C   UNL     1      34.468 -22.236 -18.807  0.00  0.00    +0.002 C 
ATOM     16  H   UNL     1      30.061 -24.295 -14.916  0.00  0.00    +0.145 HD
ATOM     17  H   UNL     1      30.904 -24.642 -13.474  0.00  0.00    +0.145 HD
ENDROOT
BRANCH   1  18
ATOM     18  C   UNL     1      36.854 -23.418 -14.132  0.00  0.00    +0.093 C 
BRANCH  18  19
ATOM     19  C   UNL     1      37.690 -24.625 -14.591  0.00  0.00    +0.020 C 
ATOM     20  C   UNL     1      36.815 -25.828 -14.951  0.00  0.00    +0.002 C 
ATOM     21  C   UNL     1      38.681 -25.016 -13.493  0.00  0.00    +0.002 C 
ENDBRANCH  18  19
ENDBRANCH   1  18
TORSDOF 2
ENDMDL
MODEL 4
REMARK VINA RESULT:      -8.3      1.851      5.015
REMARK  Name = 6450818
REMARK  2 active torsions:
REMARK  status: ('A' for Active; 'I' for Inactive)
REMARK    1  A    between atoms: N_1  and  C_18
REMARK    2  A    between atoms: C_18  and  C_19
REMARK                            x       y       z     vdW  Elec       q    Type
REMARK                         _______ _______ _______ _____ _____    ______ ____
ROOT
ATOM      1  N   UNL     1      33.244 -14.019 -24.974  0.00  0.00    -0.278 N 
ATOM      2  N   UNL     1      33.619 -15.683 -26.399  0.00  0.00    -0.390 NA
ATOM      3  N   UNL     1      34.723 -17.447 -23.331  0.00  0.00    -0.388 NA
ATOM      4  N   UNL     1      33.737 -14.138 -22.046  0.00  0.00    -0.244 NA
ATOM      5  N   UNL     1      34.704 -18.347 -25.544  0.00  0.00    -0.331 N 
ATOM      6  C   UNL     1      33.730 -15.050 -24.213  0.00  0.00    +0.174 C 
ATOM      7  C   UNL     1      33.196 -14.445 -26.272  0.00  0.00    +0.161 C 
ATOM      8  C   UNL     1      33.956 -16.075 -25.124  0.00  0.00    +0.177 C 
ATOM      9  C   UNL     1      33.990 -15.194 -22.853  0.00  0.00    +0.110 C 
ATOM     10  C   UNL     1      34.461 -17.285 -24.654  0.00  0.00    +0.204 C 
ATOM     11  C   UNL     1      34.496 -16.439 -22.461  0.00  0.00    +0.131 C 
ATOM     12  C   UNL     1      32.716 -13.579 -27.369  0.00  0.00    +0.084 C 
ATOM     13  C   UNL     1      34.750 -16.565 -21.100  0.00  0.00    +0.088 C 
ATOM     14  C   UNL     1      34.006 -14.327 -20.738  0.00  0.00    +0.094 C 
ATOM     15  C   UNL     1      34.508 -15.509 -20.221  0.00  0.00    +0.002 C 
ATOM     16  H   UNL     1      35.061 -19.200 -25.207  0.00  0.00    +0.145 HD
ATOM     17  H   UNL     1      34.517 -18.236 -26.505  0.00  0.00    +0.145 HD
ENDROOT
BRANCH   1  18
ATOM     18  C   UNL     1      32.848 -12.709 -24.505  0.00  0.00    +0.093 C 
BRANCH  18  19
ATOM     19  C   UNL     1      34.019 -11.721 -24.359  0.00  0.00    +0.020 C 
ATOM     20  C   UNL     1      33.628 -10.482 -23.550  0.00  0.00    +0.002 C 
ATOM     21  C   UNL     1      34.517 -11.300 -25.742  0.00  0.00    +0.002 C 
ENDBRANCH  18  19
ENDBRANCH   1  18
TORSDOF 2
ENDMDL
MODEL 5
REMARK VINA RESULT:      -8.2      3.866      5.971
REMARK  Name = 6450818
REMARK  2 active torsions:
REMARK  status: ('A' for Active; 'I' for Inactive)
REMARK    1  A    between atoms: N_1  and  C_18
REMARK    2  A    between atoms: C_18  and  C_19
REMARK                            x       y       z     vdW  Elec       q    Type
REMARK                         _______ _______ _______ _____ _____    ______ ____
ROOT
ATOM      1  N   UNL     1      32.732 -11.979 -23.147  0.00  0.00    -0.278 N 
ATOM      2  N   UNL     1      34.168 -12.405 -24.789  0.00  0.00    -0.390 NA
ATOM      3  N   UNL     1      34.731  -8.745 -24.625  0.00  0.00    -0.388 NA
ATOM      4  N   UNL     1      32.200  -9.287 -22.004  0.00  0.00    -0.244 NA
ATOM      5  N   UNL     1      35.810 -10.271 -26.113  0.00  0.00    -0.331 N 
ATOM      6  C   UNL     1      33.277 -10.766 -23.481  0.00  0.00    +0.174 C 
ATOM      7  C   UNL     1      33.295 -12.927 -23.956  0.00  0.00    +0.161 C 
ATOM      8  C   UNL     1      34.169 -11.059 -24.506  0.00  0.00    +0.177 C 
ATOM      9  C   UNL     1      33.090  -9.471 -23.006  0.00  0.00    +0.110 C 
ATOM     10  C   UNL     1      34.898 -10.017 -25.073  0.00  0.00    +0.204 C 
ATOM     11  C   UNL     1      33.860  -8.480 -23.627  0.00  0.00    +0.131 C 
ATOM     12  C   UNL     1      32.934 -14.356 -23.865  0.00  0.00    +0.084 C 
ATOM     13  C   UNL     1      33.661  -7.193 -23.141  0.00  0.00    +0.088 C 
ATOM     14  C   UNL     1      32.055  -8.016 -21.579  0.00  0.00    +0.094 C 
ATOM     15  C   UNL     1      32.754  -6.945 -22.109  0.00  0.00    +0.002 C 
ATOM     16  H   UNL     1      36.322  -9.531 -26.511  0.00  0.00    +0.145 HD
ATOM     17  H   UNL     1      35.935 -11.191 -26.443  0.00  0.00    +0.145 HD
ENDROOT
BRANCH   1  18
ATOM     18  C   UNL     1      31.737 -12.229 -22.127  0.00  0.00    +0.093 C 
BRANCH  18  19
ATOM     19  C   UNL     1      32.331 -12.489 -20.731  0.00  0.00    +0.020 C 
ATOM     20  C   UNL     1      32.315 -13.975 -20.367  0.00  0.00    +0.002 C 
ATOM     21  C   UNL     1      31.555 -11.691 -19.682  0.00  0.00    +0.002 C 
ENDBRANCH  18  19
ENDBRANCH   1  18
TORSDOF 2
ENDMDL
MODEL 6
REMARK VINA RESULT:      -8.2      4.247      8.262
REMARK  Name = 6450818
REMARK  2 active torsions:
REMARK  status: ('A' for Active; 'I' for Inactive)
REMARK    1  A    between atoms: N_1  and  C_18
REMARK    2  A    between atoms: C_18  and  C_19
REMARK                            x       y       z     vdW  Elec       q    Type
REMARK                         _______ _______ _______ _____ _____    ______ ____
ROOT
ATOM      1  N   UNL     1      32.450  -9.002 -22.340  0.00  0.00    -0.278 N 
ATOM      2  N   UNL     1      31.759  -8.646 -20.258  0.00  0.00    -0.390 NA
ATOM      3  N   UNL     1      31.759 -12.350 -20.114  0.00  0.00    -0.388 NA
ATOM      4  N   UNL     1      32.886 -11.678 -23.556  0.00  0.00    -0.244 NA
ATOM      5  N   UNL     1      31.154 -10.871 -18.338  0.00  0.00    -0.331 N 
ATOM      6  C   UNL     1      32.285 -10.247 -21.791  0.00  0.00    +0.174 C 
ATOM      7  C   UNL     1      32.124  -8.078 -21.386  0.00  0.00    +0.161 C 
ATOM      8  C   UNL     1      31.853  -9.997 -20.493  0.00  0.00    +0.177 C 
ATOM      9  C   UNL     1      32.462 -11.539 -22.279  0.00  0.00    +0.110 C 
ATOM     10  C   UNL     1      31.592 -11.081 -19.657  0.00  0.00    +0.204 C 
ATOM     11  C   UNL     1      32.179 -12.572 -21.378  0.00  0.00    +0.131 C 
ATOM     12  C   UNL     1      32.191  -6.624 -21.640  0.00  0.00    +0.084 C 
ATOM     13  C   UNL     1      32.362 -13.854 -21.883  0.00  0.00    +0.088 C 
ATOM     14  C   UNL     1      33.043 -12.948 -23.982  0.00  0.00    +0.094 C 
ATOM     15  C   UNL     1      32.797 -14.058 -23.193  0.00  0.00    +0.002 C 
ATOM     16  H   UNL     1      30.970 -11.640 -17.752  0.00  0.00    +0.145 HD
ATOM     17  H   UNL     1      31.030  -9.954 -18.001  0.00  0.00    +0.145 HD
ENDROOT
BRANCH   1  18
ATOM     18  C   UNL     1      32.889  -8.701 -23.685  0.00  0.00    +0.093 C 
BRANCH  18  19
ATOM     19  C   UNL     1      34.383  -8.344 -23.786  0.00  0.00    +0.020 C 
ATOM     20  C   UNL     1      34.607  -6.990 -24.463  0.00  0.00    +0.002 C 
ATOM     21  C   UNL     1      35.125  -9.438 -24.557  0.00  0.00    +0.002 C 
ENDBRANCH  18  19
ENDBRANCH   1  18
TORSDOF 2
ENDMDL
MODEL 7
REMARK VINA RESULT:      -8.2      9.268     11.741
REMARK  Name = 6450818
REMARK  2 active torsions:
REMARK  status: ('A' for Active; 'I' for Inactive)
REMARK    1  A    between atoms: N_1  and  C_18
REMARK    2  A    between atoms: C_18  and  C_19
REMARK                            x       y       z     vdW  Elec       q    Type
REMARK                         _______ _______ _______ _____ _____    ______ ____
ROOT
ATOM      1  N   UNL     1      33.824 -23.606 -15.445  0.00  0.00    -0.278 N 
ATOM      2  N   UNL     1      35.204 -22.903 -17.038  0.00  0.00    -0.390 NA
ATOM      3  N   UNL     1      37.712 -23.104 -14.315  0.00  0.00    -0.388 NA
ATOM      4  N   UNL     1      34.615 -24.183 -12.638  0.00  0.00    -0.244 NA
ATOM      5  N   UNL     1      38.129 -22.424 -16.568  0.00  0.00    -0.331 N 
ATOM      6  C   UNL     1      35.055 -23.510 -14.848  0.00  0.00    +0.174 C 
ATOM      7  C   UNL     1      33.965 -23.233 -16.753  0.00  0.00    +0.161 C 
ATOM      8  C   UNL     1      35.897 -23.070 -15.862  0.00  0.00    +0.177 C 
ATOM      9  C   UNL     1      35.512 -23.757 -13.556  0.00  0.00    +0.110 C 
ATOM     10  C   UNL     1      37.244 -22.870 -15.570  0.00  0.00    +0.204 C 
ATOM     11  C   UNL     1      36.878 -23.532 -13.344  0.00  0.00    +0.131 C 
ATOM     12  C   UNL     1      32.827 -23.221 -17.695  0.00  0.00    +0.084 C 
ATOM     13  C   UNL     1      37.317 -23.783 -12.049  0.00  0.00    +0.088 C 
ATOM     14  C   UNL     1      35.107 -24.408 -11.403  0.00  0.00    +0.094 C 
ATOM     15  C   UNL     1      36.436 -24.225 -11.061  0.00  0.00    +0.002 C 
ATOM     16  H   UNL     1      39.080 -22.284 -16.356  0.00  0.00    +0.145 HD
ATOM     17  H   UNL     1      37.796 -22.252 -17.479  0.00  0.00    +0.145 HD
ENDROOT
BRANCH   1  18
ATOM     18  C   UNL     1      32.589 -24.025 -14.819  0.00  0.00    +0.093 C 
BRANCH  18  19
ATOM     19  C   UNL     1      31.699 -22.858 -14.358  0.00  0.00    +0.020 C 
ATOM     20  C   UNL     1      31.328 -22.967 -12.878  0.00  0.00    +0.002 C 
ATOM     21  C   UNL     1      30.428 -22.810 -15.208  0.00  0.00    +0.002 C 
ENDBRANCH  18  19
ENDBRANCH   1  18
TORSDOF 2
ENDMDL
MODEL 8
REMARK VINA RESULT:      -7.9      9.721     13.317
REMARK  Name = 6450818
REMARK  2 active torsions:
REMARK  status: ('A' for Active; 'I' for Inactive)
REMARK    1  A    between atoms: N_1  and  C_18
REMARK    2  A    between atoms: C_18  and  C_19
REMARK                            x       y       z     vdW  Elec       q    Type
REMARK                         _______ _______ _______ _____ _____    ______ ____
ROOT
ATOM      1  N   UNL     1      34.806 -24.178 -14.582  0.00  0.00    -0.278 N 
ATOM      2  N   UNL     1      33.904 -23.983 -12.561  0.00  0.00    -0.390 NA
ATOM      3  N   UNL     1      37.335 -24.838 -11.451  0.00  0.00    -0.388 NA
ATOM      4  N   UNL     1      37.647 -24.866 -15.121  0.00  0.00    -0.244 NA
ATOM      5  N   UNL     1      35.464 -24.398 -10.032  0.00  0.00    -0.331 N 
ATOM      6  C   UNL     1      35.823 -24.439 -13.701  0.00  0.00    +0.174 C 
ATOM      7  C   UNL     1      33.680 -23.911 -13.854  0.00  0.00    +0.161 C 
ATOM      8  C   UNL     1      35.234 -24.311 -12.448  0.00  0.00    +0.177 C 
ATOM      9  C   UNL     1      37.167 -24.765 -13.860  0.00  0.00    +0.110 C 
ATOM     10  C   UNL     1      36.021 -24.517 -11.317  0.00  0.00    +0.204 C 
ATOM     11  C   UNL     1      37.889 -24.957 -12.677  0.00  0.00    +0.131 C 
ATOM     12  C   UNL     1      32.388 -23.585 -14.491  0.00  0.00    +0.084 C 
ATOM     13  C   UNL     1      39.229 -25.283 -12.855  0.00  0.00    +0.088 C 
ATOM     14  C   UNL     1      38.953 -25.184 -15.223  0.00  0.00    +0.094 C 
ATOM     15  C   UNL     1      39.778 -25.401 -14.132  0.00  0.00    +0.002 C 
ATOM     16  H   UNL     1      36.024 -24.546  -9.236  0.00  0.00    +0.145 HD
ATOM     17  H   UNL     1      34.512 -24.167  -9.928  0.00  0.00    +0.145 HD
ENDROOT
BRANCH   1  18
ATOM     18  C   UNL     1      34.891 -24.181 -16.026  0.00  0.00    +0.093 C 
BRANCH  18  19
ATOM     19  C   UNL     1      34.876 -22.775 -16.653  0.00  0.00    +0.020 C 
ATOM     20  C   UNL     1      34.127 -22.748 -17.987  0.00  0.00    +0.002 C 
ATOM     21  C   UNL     1      36.310 -22.282 -16.854  0.00  0.00    +0.002 C 
ENDBRANCH  18  19
ENDBRANCH   1  18
TORSDOF 2
ENDMDL
MODEL 9
REMARK VINA RESULT:      -7.9      7.339     10.468
REMARK  Name = 6450818
REMARK  2 active torsions:
REMARK  status: ('A' for Active; 'I' for Inactive)
REMARK    1  A    between atoms: N_1  and  C_18
REMARK    2  A    between atoms: C_18  and  C_19
REMARK                            x       y       z     vdW  Elec       q    Type
REMARK                         _______ _______ _______ _____ _____    ______ ____
ROOT
ATOM      1  N   UNL     1      32.642 -23.931 -15.678  0.00  0.00    -0.278 N 
ATOM      2  N   UNL     1      34.250 -24.288 -14.186  0.00  0.00    -0.390 NA
ATOM      3  N   UNL     1      36.348 -22.581 -16.721  0.00  0.00    -0.388 NA
ATOM      4  N   UNL     1      33.018 -22.575 -18.296  0.00  0.00    -0.244 NA
ATOM      5  N   UNL     1      37.094 -23.433 -14.617  0.00  0.00    -0.331 N 
ATOM      6  C   UNL     1      33.780 -23.403 -16.232  0.00  0.00    +0.174 C 
ATOM      7  C   UNL     1      32.974 -24.447 -14.456  0.00  0.00    +0.161 C 
ATOM      8  C   UNL     1      34.767 -23.639 -15.282  0.00  0.00    +0.177 C 
ATOM      9  C   UNL     1      34.046 -22.758 -17.437  0.00  0.00    +0.110 C 
ATOM     10  C   UNL     1      36.066 -23.213 -15.551  0.00  0.00    +0.204 C 
ATOM     11  C   UNL     1      35.374 -22.361 -17.631  0.00  0.00    +0.131 C 
ATOM     12  C   UNL     1      31.979 -25.098 -13.579  0.00  0.00    +0.084 C 
ATOM     13  C   UNL     1      35.622 -21.718 -18.839  0.00  0.00    +0.088 C 
ATOM     14  C   UNL     1      33.326 -21.945 -19.448  0.00  0.00    +0.094 C 
ATOM     15  C   UNL     1      34.599 -21.503 -19.763  0.00  0.00    +0.002 C 
ATOM     16  H   UNL     1      38.010 -23.130 -14.812  0.00  0.00    +0.145 HD
ATOM     17  H   UNL     1      36.896 -23.890 -13.767  0.00  0.00    +0.145 HD
ENDROOT
BRANCH   1  18
ATOM     18  C   UNL     1      31.320 -23.946 -16.266  0.00  0.00    +0.093 C 
BRANCH  18  19
ATOM     19  C   UNL     1      30.491 -22.686 -15.965  0.00  0.00    +0.020 C 
ATOM     20  C   UNL     1      30.181 -22.544 -14.473  0.00  0.00    +0.002 C 
ATOM     21  C   UNL     1      29.187 -22.721 -16.764  0.00  0.00    +0.002 C 
ENDBRANCH  18  19
ENDBRANCH   1  18
TORSDOF 2
ENDMDL
