MODEL 1
REMARK VINA RESULT:      -5.3      0.000      0.000
REMARK  Name = 5288371
REMARK  11 active torsions:
REMARK  status: ('A' for Active; 'I' for Inactive)
REMARK    1  A    between atoms: N_1  and  C_4
REMARK    2  A    between atoms: N_1  and  C_15
REMARK    3  A    between atoms: C_4  and  C_5
REMARK    4  A    between atoms: C_5  and  C_6
REMARK    5  A    between atoms: C_6  and  C_7
REMARK    6  A    between atoms: C_7  and  C_8
REMARK    7  A    between atoms: C_8  and  C_9
REMARK    8  A    between atoms: C_9  and  C_10
REMARK    9  A    between atoms: C_10  and  N_11
REMARK   10  A    between atoms: C_15  and  N_16
REMARK   11  A    between atoms: C_15  and  N_20
REMARK                            x       y       z     vdW  Elec       q    Type
REMARK                         _______ _______ _______ _____ _____    ______ ____
ROOT
ATOM      1  N   UNL     1      35.674 -17.174 -23.218  0.00  0.00    +0.362 N 
ATOM      2  H   UNL     1      36.504 -17.725 -23.431  0.00  0.00    -0.090 HD
ATOM      3  H   UNL     1      35.852 -16.173 -23.305  0.00  0.00    -0.090 HD
ENDROOT
BRANCH   1   4
ATOM      4  C   UNL     1      35.283 -17.434 -21.838  0.00  0.00    -0.087 C 
BRANCH   4   5
ATOM      5  C   UNL     1      36.082 -18.566 -21.190  0.00  0.00    -0.024 C 
BRANCH   5   6
ATOM      6  C   UNL     1      35.306 -19.883 -21.092  0.00  0.00    -0.002 C 
BRANCH   6   7
ATOM      7  C   UNL     1      33.812 -19.630 -20.877  0.00  0.00    -0.000 C 
BRANCH   7   8
ATOM      8  C   UNL     1      33.189 -20.701 -19.980  0.00  0.00    -0.002 C 
BRANCH   8   9
ATOM      9  C   UNL     1      34.249 -21.683 -19.469  0.00  0.00    -0.024 C 
BRANCH   9  10
ATOM     10  C   UNL     1      33.715 -22.671 -18.430  0.00  0.00    -0.086 C 
BRANCH  10  11
ATOM     11  N   UNL     1      32.308 -22.446 -18.124  0.00  0.00    +0.380 N 
ATOM     12  H   UNL     1      32.124 -21.444 -18.081  0.00  0.00    -0.089 HD
ATOM     13  H   UNL     1      32.082 -22.872 -17.225  0.00  0.00    -0.089 HD
ATOM     14  H   UNL     1      31.730 -22.866 -18.853  0.00  0.00    -0.089 HD
ENDBRANCH  10  11
ENDBRANCH   9  10
ENDBRANCH   8   9
ENDBRANCH   7   8
ENDBRANCH   6   7
ENDBRANCH   5   6
ENDBRANCH   4   5
ENDBRANCH   1   4
BRANCH   1  15
ATOM     15  C   UNL     1      34.624 -17.519 -24.179  0.00  0.00    -0.215 C 
BRANCH  15  16
ATOM     16  N   UNL     1      34.812 -16.727 -25.390  0.00  0.00    +0.359 N 
ATOM     17  H   UNL     1      35.395 -15.917 -25.180  0.00  0.00    -0.095 HD
ATOM     18  H   UNL     1      33.905 -16.412 -25.736  0.00  0.00    -0.095 HD
ATOM     19  H   UNL     1      35.268 -17.297 -26.103  0.00  0.00    -0.095 HD
ENDBRANCH  15  16
BRANCH  15  20
ATOM     20  N   UNL     1      34.666 -18.932 -24.541  0.00  0.00    +0.359 N 
ATOM     21  H   UNL     1      35.183 -19.045 -25.413  0.00  0.00    -0.095 HD
ATOM     22  H   UNL     1      33.715 -19.280 -24.662  0.00  0.00    -0.095 HD
ATOM     23  H   UNL     1      35.129 -19.460 -23.801  0.00  0.00    -0.095 HD
ENDBRANCH  15  20
ENDBRANCH   1  15
TORSDOF 11
ENDMDL
MODEL 2
REMARK VINA RESULT:      -5.2      1.638      2.572
REMARK  Name = 5288371
REMARK  11 active torsions:
REMARK  status: ('A' for Active; 'I' for Inactive)
REMARK    1  A    between atoms: N_1  and  C_4
REMARK    2  A    between atoms: N_1  and  C_15
REMARK    3  A    between atoms: C_4  and  C_5
REMARK    4  A    between atoms: C_5  and  C_6
REMARK    5  A    between atoms: C_6  and  C_7
REMARK    6  A    between atoms: C_7  and  C_8
REMARK    7  A    between atoms: C_8  and  C_9
REMARK    8  A    between atoms: C_9  and  C_10
REMARK    9  A    between atoms: C_10  and  N_11
REMARK   10  A    between atoms: C_15  and  N_16
REMARK   11  A    between atoms: C_15  and  N_20
REMARK                            x       y       z     vdW  Elec       q    Type
REMARK                         _______ _______ _______ _____ _____    ______ ____
ROOT
ATOM      1  N   UNL     1      35.351 -16.288 -23.351  0.00  0.00    +0.362 N 
ATOM      2  H   UNL     1      36.010 -15.697 -23.857  0.00  0.00    -0.090 HD
ATOM      3  H   UNL     1      35.765 -16.675 -22.502  0.00  0.00    -0.090 HD
ENDROOT
BRANCH   1   4
ATOM      4  C   UNL     1      34.977 -17.407 -24.208  0.00  0.00    -0.087 C 
BRANCH   4   5
ATOM      5  C   UNL     1      35.104 -18.765 -23.514  0.00  0.00    -0.024 C 
BRANCH   5   6
ATOM      6  C   UNL     1      35.925 -18.716 -22.223  0.00  0.00    -0.002 C 
BRANCH   6   7
ATOM      7  C   UNL     1      35.124 -19.257 -21.036  0.00  0.00    -0.000 C 
BRANCH   7   8
ATOM      8  C   UNL     1      33.646 -19.425 -21.393  0.00  0.00    -0.002 C 
BRANCH   8   9
ATOM      9  C   UNL     1      32.910 -20.253 -20.334  0.00  0.00    -0.024 C 
BRANCH   9  10
ATOM     10  C   UNL     1      33.794 -21.301 -19.655  0.00  0.00    -0.086 C 
BRANCH  10  11
ATOM     11  N   UNL     1      33.014 -22.317 -18.960  0.00  0.00    +0.380 N 
ATOM     12  H   UNL     1      33.140 -23.218 -19.422  0.00  0.00    -0.089 HD
ATOM     13  H   UNL     1      32.027 -22.062 -18.979  0.00  0.00    -0.089 HD
ATOM     14  H   UNL     1      33.330 -22.385 -17.992  0.00  0.00    -0.089 HD
ENDBRANCH  10  11
ENDBRANCH   9  10
ENDBRANCH   8   9
ENDBRANCH   7   8
ENDBRANCH   6   7
ENDBRANCH   5   6
ENDBRANCH   4   5
ENDBRANCH   1   4
BRANCH   1  15
ATOM     15  C   UNL     1      34.203 -15.473 -22.951  0.00  0.00    -0.215 C 
BRANCH  15  16
ATOM     16  N   UNL     1      33.877 -15.767 -21.559  0.00  0.00    +0.359 N 
ATOM     17  H   UNL     1      33.321 -16.620 -21.512  0.00  0.00    -0.095 HD
ATOM     18  H   UNL     1      33.344 -14.991 -21.163  0.00  0.00    -0.095 HD
ATOM     19  H   UNL     1      34.739 -15.893 -21.027  0.00  0.00    -0.095 HD
ENDBRANCH  15  16
BRANCH  15  20
ATOM     20  N   UNL     1      34.486 -14.046 -23.068  0.00  0.00    +0.359 N 
ATOM     21  H   UNL     1      34.615 -13.804 -24.050  0.00  0.00    -0.095 HD
ATOM     22  H   UNL     1      35.336 -13.825 -22.549  0.00  0.00    -0.095 HD
ATOM     23  H   UNL     1      33.706 -13.512 -22.686  0.00  0.00    -0.095 HD
ENDBRANCH  15  20
ENDBRANCH   1  15
TORSDOF 11
ENDMDL
MODEL 3
REMARK VINA RESULT:      -5.1      4.169      8.571
REMARK  Name = 5288371
REMARK  11 active torsions:
REMARK  status: ('A' for Active; 'I' for Inactive)
REMARK    1  A    between atoms: N_1  and  C_4
REMARK    2  A    between atoms: N_1  and  C_15
REMARK    3  A    between atoms: C_4  and  C_5
REMARK    4  A    between atoms: C_5  and  C_6
REMARK    5  A    between atoms: C_6  and  C_7
REMARK    6  A    between atoms: C_7  and  C_8
REMARK    7  A    between atoms: C_8  and  C_9
REMARK    8  A    between atoms: C_9  and  C_10
REMARK    9  A    between atoms: C_10  and  N_11
REMARK   10  A    between atoms: C_15  and  N_16
REMARK   11  A    between atoms: C_15  and  N_20
REMARK                            x       y       z     vdW  Elec       q    Type
REMARK                         _______ _______ _______ _____ _____    ______ ____
ROOT
ATOM      1  N   UNL     1      37.350 -24.678 -15.268  0.00  0.00    +0.362 N 
ATOM      2  H   UNL     1      38.111 -24.937 -14.642  0.00  0.00    -0.090 HD
ATOM      3  H   UNL     1      37.508 -25.018 -16.217  0.00  0.00    -0.090 HD
ENDROOT
BRANCH   1   4
ATOM      4  C   UNL     1      37.271 -23.223 -15.329  0.00  0.00    -0.087 C 
BRANCH   4   5
ATOM      5  C   UNL     1      36.231 -22.718 -16.332  0.00  0.00    -0.024 C 
BRANCH   5   6
ATOM      6  C   UNL     1      36.826 -21.853 -17.446  0.00  0.00    -0.002 C 
BRANCH   6   7
ATOM      7  C   UNL     1      35.877 -21.762 -18.642  0.00  0.00    -0.000 C 
BRANCH   7   8
ATOM      8  C   UNL     1      36.509 -20.982 -19.797  0.00  0.00    -0.002 C 
BRANCH   8   9
ATOM      9  C   UNL     1      35.459 -20.162 -20.554  0.00  0.00    -0.024 C 
BRANCH   9  10
ATOM     10  C   UNL     1      36.028 -18.908 -21.221  0.00  0.00    -0.086 C 
BRANCH  10  11
ATOM     11  N   UNL     1      35.380 -17.689 -20.753  0.00  0.00    +0.380 N 
ATOM     12  H   UNL     1      34.472 -17.920 -20.351  0.00  0.00    -0.089 HD
ATOM     13  H   UNL     1      35.252 -17.049 -21.537  0.00  0.00    -0.089 HD
ATOM     14  H   UNL     1      35.963 -17.245 -20.043  0.00  0.00    -0.089 HD
ENDBRANCH  10  11
ENDBRANCH   9  10
ENDBRANCH   8   9
ENDBRANCH   7   8
ENDBRANCH   6   7
ENDBRANCH   5   6
ENDBRANCH   4   5
ENDBRANCH   1   4
BRANCH   1  15
ATOM     15  C   UNL     1      36.113 -25.291 -14.780  0.00  0.00    -0.215 C 
BRANCH  15  16
ATOM     16  N   UNL     1      36.071 -26.683 -15.219  0.00  0.00    +0.359 N 
ATOM     17  H   UNL     1      36.872 -27.185 -14.835  0.00  0.00    -0.095 HD
ATOM     18  H   UNL     1      36.104 -26.720 -16.238  0.00  0.00    -0.095 HD
ATOM     19  H   UNL     1      35.209 -27.118 -14.890  0.00  0.00    -0.095 HD
ENDBRANCH  15  16
BRANCH  15  20
ATOM     20  N   UNL     1      36.034 -25.264 -13.323  0.00  0.00    +0.359 N 
ATOM     21  H   UNL     1      35.067 -25.109 -13.038  0.00  0.00    -0.095 HD
ATOM     22  H   UNL     1      36.619 -24.509 -12.965  0.00  0.00    -0.095 HD
ATOM     23  H   UNL     1      36.360 -26.154 -12.947  0.00  0.00    -0.095 HD
ENDBRANCH  15  20
ENDBRANCH   1  15
TORSDOF 11
ENDMDL
MODEL 4
REMARK VINA RESULT:      -5.1      1.325      6.792
REMARK  Name = 5288371
REMARK  11 active torsions:
REMARK  status: ('A' for Active; 'I' for Inactive)
REMARK    1  A    between atoms: N_1  and  C_4
REMARK    2  A    between atoms: N_1  and  C_15
REMARK    3  A    between atoms: C_4  and  C_5
REMARK    4  A    between atoms: C_5  and  C_6
REMARK    5  A    between atoms: C_6  and  C_7
REMARK    6  A    between atoms: C_7  and  C_8
REMARK    7  A    between atoms: C_8  and  C_9
REMARK    8  A    between atoms: C_9  and  C_10
REMARK    9  A    between atoms: C_10  and  N_11
REMARK   10  A    between atoms: C_15  and  N_16
REMARK   11  A    between atoms: C_15  and  N_20
REMARK                            x       y       z     vdW  Elec       q    Type
REMARK                         _______ _______ _______ _____ _____    ______ ____
ROOT
ATOM      1  N   UNL     1      32.889 -22.428 -18.470  0.00  0.00    +0.362 N 
ATOM      2  H   UNL     1      32.225 -22.745 -19.176  0.00  0.00    -0.090 HD
ATOM      3  H   UNL     1      32.666 -21.490 -18.135  0.00  0.00    -0.090 HD
ENDROOT
BRANCH   1   4
ATOM      4  C   UNL     1      34.218 -22.376 -19.069  0.00  0.00    -0.087 C 
BRANCH   4   5
ATOM      5  C   UNL     1      34.471 -21.090 -19.860  0.00  0.00    -0.024 C 
BRANCH   5   6
ATOM      6  C   UNL     1      33.187 -20.389 -20.313  0.00  0.00    -0.002 C 
BRANCH   6   7
ATOM      7  C   UNL     1      33.498 -19.074 -21.029  0.00  0.00    -0.000 C 
BRANCH   7   8
ATOM      8  C   UNL     1      34.881 -19.108 -21.682  0.00  0.00    -0.002 C 
BRANCH   8   9
ATOM      9  C   UNL     1      34.775 -19.295 -23.199  0.00  0.00    -0.024 C 
BRANCH   9  10
ATOM     10  C   UNL     1      34.987 -18.003 -23.990  0.00  0.00    -0.086 C 
BRANCH  10  11
ATOM     11  N   UNL     1      35.730 -17.004 -23.231  0.00  0.00    +0.380 N 
ATOM     12  H   UNL     1      35.978 -17.386 -22.318  0.00  0.00    -0.089 HD
ATOM     13  H   UNL     1      35.154 -16.172 -23.106  0.00  0.00    -0.089 HD
ATOM     14  H   UNL     1      36.581 -16.756 -23.737  0.00  0.00    -0.089 HD
ENDBRANCH  10  11
ENDBRANCH   9  10
ENDBRANCH   8   9
ENDBRANCH   7   8
ENDBRANCH   6   7
ENDBRANCH   5   6
ENDBRANCH   4   5
ENDBRANCH   1   4
BRANCH   1  15
ATOM     15  C   UNL     1      32.820 -23.335 -17.323  0.00  0.00    -0.215 C 
BRANCH  15  16
ATOM     16  N   UNL     1      34.010 -23.144 -16.498  0.00  0.00    +0.359 N 
ATOM     17  H   UNL     1      34.089 -22.162 -16.235  0.00  0.00    -0.095 HD
ATOM     18  H   UNL     1      34.838 -23.423 -17.026  0.00  0.00    -0.095 HD
ATOM     19  H   UNL     1      33.936 -23.716 -15.657  0.00  0.00    -0.095 HD
ENDBRANCH  15  16
BRANCH  15  20
ATOM     20  N   UNL     1      31.643 -23.078 -16.500  0.00  0.00    +0.359 N 
ATOM     21  H   UNL     1      31.011 -22.449 -16.996  0.00  0.00    -0.095 HD
ATOM     22  H   UNL     1      31.929 -22.648 -15.621  0.00  0.00    -0.095 HD
ATOM     23  H   UNL     1      31.163 -23.958 -16.308  0.00  0.00    -0.095 HD
ENDBRANCH  15  20
ENDBRANCH   1  15
TORSDOF 11
ENDMDL
MODEL 5
REMARK VINA RESULT:      -5.1      2.062      3.359
REMARK  Name = 5288371
REMARK  11 active torsions:
REMARK  status: ('A' for Active; 'I' for Inactive)
REMARK    1  A    between atoms: N_1  and  C_4
REMARK    2  A    between atoms: N_1  and  C_15
REMARK    3  A    between atoms: C_4  and  C_5
REMARK    4  A    between atoms: C_5  and  C_6
REMARK    5  A    between atoms: C_6  and  C_7
REMARK    6  A    between atoms: C_7  and  C_8
REMARK    7  A    between atoms: C_8  and  C_9
REMARK    8  A    between atoms: C_9  and  C_10
REMARK    9  A    between atoms: C_10  and  N_11
REMARK   10  A    between atoms: C_15  and  N_16
REMARK   11  A    between atoms: C_15  and  N_20
REMARK                            x       y       z     vdW  Elec       q    Type
REMARK                         _______ _______ _______ _____ _____    ______ ____
ROOT
ATOM      1  N   UNL     1      33.654 -15.506 -24.238  0.00  0.00    +0.362 N 
ATOM      2  H   UNL     1      32.840 -16.106 -24.106  0.00  0.00    -0.090 HD
ATOM      3  H   UNL     1      33.627 -15.024 -25.137  0.00  0.00    -0.090 HD
ENDROOT
BRANCH   1   4
ATOM      4  C   UNL     1      34.852 -16.337 -24.220  0.00  0.00    -0.087 C 
BRANCH   4   5
ATOM      5  C   UNL     1      34.629 -17.728 -24.818  0.00  0.00    -0.024 C 
BRANCH   5   6
ATOM      6  C   UNL     1      34.625 -18.848 -23.775  0.00  0.00    -0.002 C 
BRANCH   6   7
ATOM      7  C   UNL     1      35.546 -18.514 -22.600  0.00  0.00    -0.000 C 
BRANCH   7   8
ATOM      8  C   UNL     1      34.781 -18.508 -21.275  0.00  0.00    -0.002 C 
BRANCH   8   9
ATOM      9  C   UNL     1      34.412 -19.930 -20.841  0.00  0.00    -0.024 C 
BRANCH   9  10
ATOM     10  C   UNL     1      32.926 -20.106 -20.523  0.00  0.00    -0.086 C 
BRANCH  10  11
ATOM     11  N   UNL     1      32.701 -21.037 -19.425  0.00  0.00    +0.380 N 
ATOM     12  H   UNL     1      31.739 -20.950 -19.097  0.00  0.00    -0.089 HD
ATOM     13  H   UNL     1      33.341 -20.824 -18.660  0.00  0.00    -0.089 HD
ATOM     14  H   UNL     1      32.864 -21.991 -19.749  0.00  0.00    -0.089 HD
ENDBRANCH  10  11
ENDBRANCH   9  10
ENDBRANCH   8   9
ENDBRANCH   7   8
ENDBRANCH   6   7
ENDBRANCH   5   6
ENDBRANCH   4   5
ENDBRANCH   1   4
BRANCH   1  15
ATOM     15  C   UNL     1      33.657 -14.485 -23.189  0.00  0.00    -0.215 C 
BRANCH  15  16
ATOM     16  N   UNL     1      34.539 -14.919 -22.110  0.00  0.00    +0.359 N 
ATOM     17  H   UNL     1      35.465 -15.123 -22.487  0.00  0.00    -0.095 HD
ATOM     18  H   UNL     1      34.157 -15.760 -21.675  0.00  0.00    -0.095 HD
ATOM     19  H   UNL     1      34.612 -14.179 -21.411  0.00  0.00    -0.095 HD
ENDBRANCH  15  16
BRANCH  15  20
ATOM     20  N   UNL     1      34.135 -13.200 -23.687  0.00  0.00    +0.359 N 
ATOM     21  H   UNL     1      34.384 -13.287 -24.672  0.00  0.00    -0.095 HD
ATOM     22  H   UNL     1      34.957 -12.913 -23.154  0.00  0.00    -0.095 HD
ATOM     23  H   UNL     1      33.401 -12.499 -23.583  0.00  0.00    -0.095 HD
ENDBRANCH  15  20
ENDBRANCH   1  15
TORSDOF 11
ENDMDL
MODEL 6
REMARK VINA RESULT:      -5.0      2.626      3.358
REMARK  Name = 5288371
REMARK  11 active torsions:
REMARK  status: ('A' for Active; 'I' for Inactive)
REMARK    1  A    between atoms: N_1  and  C_4
REMARK    2  A    between atoms: N_1  and  C_15
REMARK    3  A    between atoms: C_4  and  C_5
REMARK    4  A    between atoms: C_5  and  C_6
REMARK    5  A    between atoms: C_6  and  C_7
REMARK    6  A    between atoms: C_7  and  C_8
REMARK    7  A    between atoms: C_8  and  C_9
REMARK    8  A    between atoms: C_9  and  C_10
REMARK    9  A    between atoms: C_10  and  N_11
REMARK   10  A    between atoms: C_15  and  N_16
REMARK   11  A    between atoms: C_15  and  N_20
REMARK                            x       y       z     vdW  Elec       q    Type
REMARK                         _______ _______ _______ _____ _____    ______ ____
ROOT
ATOM      1  N   UNL     1      34.278 -14.568 -23.005  0.00  0.00    +0.362 N 
ATOM      2  H   UNL     1      35.233 -14.210 -23.011  0.00  0.00    -0.090 HD
ATOM      3  H   UNL     1      33.907 -14.637 -22.057  0.00  0.00    -0.090 HD
ENDROOT
BRANCH   1   4
ATOM      4  C   UNL     1      34.279 -15.909 -23.577  0.00  0.00    -0.087 C 
BRANCH   4   5
ATOM      5  C   UNL     1      35.192 -16.882 -22.828  0.00  0.00    -0.024 C 
BRANCH   5   6
ATOM      6  C   UNL     1      35.136 -18.313 -23.370  0.00  0.00    -0.002 C 
BRANCH   6   7
ATOM      7  C   UNL     1      34.923 -19.325 -22.243  0.00  0.00    -0.000 C 
BRANCH   7   8
ATOM      8  C   UNL     1      33.915 -18.809 -21.214  0.00  0.00    -0.002 C 
BRANCH   8   9
ATOM      9  C   UNL     1      33.036 -19.945 -20.680  0.00  0.00    -0.024 C 
BRANCH   9  10
ATOM     10  C   UNL     1      33.814 -21.003 -19.896  0.00  0.00    -0.086 C 
BRANCH  10  11
ATOM     11  N   UNL     1      32.951 -22.058 -19.382  0.00  0.00    +0.380 N 
ATOM     12  H   UNL     1      32.581 -22.605 -20.160  0.00  0.00    -0.089 HD
ATOM     13  H   UNL     1      32.178 -21.644 -18.861  0.00  0.00    -0.089 HD
ATOM     14  H   UNL     1      33.488 -22.668 -18.765  0.00  0.00    -0.089 HD
ENDBRANCH  10  11
ENDBRANCH   9  10
ENDBRANCH   8   9
ENDBRANCH   7   8
ENDBRANCH   6   7
ENDBRANCH   5   6
ENDBRANCH   4   5
ENDBRANCH   1   4
BRANCH   1  15
ATOM     15  C   UNL     1      33.425 -13.636 -23.745  0.00  0.00    -0.215 C 
BRANCH  15  16
ATOM     16  N   UNL     1      32.184 -13.440 -23.003  0.00  0.00    +0.359 N 
ATOM     17  H   UNL     1      32.368 -12.873 -22.176  0.00  0.00    -0.095 HD
ATOM     18  H   UNL     1      31.811 -14.347 -22.718  0.00  0.00    -0.095 HD
ATOM     19  H   UNL     1      31.504 -12.965 -23.597  0.00  0.00    -0.095 HD
ENDBRANCH  15  16
BRANCH  15  20
ATOM     20  N   UNL     1      34.068 -12.338 -23.922  0.00  0.00    +0.359 N 
ATOM     21  H   UNL     1      33.354 -11.618 -24.035  0.00  0.00    -0.095 HD
ATOM     22  H   UNL     1      34.660 -12.362 -24.751  0.00  0.00    -0.095 HD
ATOM     23  H   UNL     1      34.637 -12.126 -23.103  0.00  0.00    -0.095 HD
ENDBRANCH  15  20
ENDBRANCH   1  15
TORSDOF 11
ENDMDL
MODEL 7
REMARK VINA RESULT:      -5.0      2.033      2.204
REMARK  Name = 5288371
REMARK  11 active torsions:
REMARK  status: ('A' for Active; 'I' for Inactive)
REMARK    1  A    between atoms: N_1  and  C_4
REMARK    2  A    between atoms: N_1  and  C_15
REMARK    3  A    between atoms: C_4  and  C_5
REMARK    4  A    between atoms: C_5  and  C_6
REMARK    5  A    between atoms: C_6  and  C_7
REMARK    6  A    between atoms: C_7  and  C_8
REMARK    7  A    between atoms: C_8  and  C_9
REMARK    8  A    between atoms: C_9  and  C_10
REMARK    9  A    between atoms: C_10  and  N_11
REMARK   10  A    between atoms: C_15  and  N_16
REMARK   11  A    between atoms: C_15  and  N_20
REMARK                            x       y       z     vdW  Elec       q    Type
REMARK                         _______ _______ _______ _____ _____    ______ ____
ROOT
ATOM      1  N   UNL     1      35.780 -17.505 -22.787  0.00  0.00    +0.362 N 
ATOM      2  H   UNL     1      36.250 -18.343 -23.128  0.00  0.00    -0.090 HD
ATOM      3  H   UNL     1      36.391 -16.689 -22.820  0.00  0.00    -0.090 HD
ENDROOT
BRANCH   1   4
ATOM      4  C   UNL     1      35.402 -17.717 -21.394  0.00  0.00    -0.087 C 
BRANCH   4   5
ATOM      5  C   UNL     1      34.303 -18.768 -21.223  0.00  0.00    -0.024 C 
BRANCH   5   6
ATOM      6  C   UNL     1      34.838 -20.161 -20.880  0.00  0.00    -0.002 C 
BRANCH   6   7
ATOM      7  C   UNL     1      33.861 -20.923 -19.982  0.00  0.00    -0.000 C 
BRANCH   7   8
ATOM      8  C   UNL     1      34.595 -21.914 -19.076  0.00  0.00    -0.002 C 
BRANCH   8   9
ATOM      9  C   UNL     1      36.082 -21.565 -18.961  0.00  0.00    -0.024 C 
BRANCH   9  10
ATOM     10  C   UNL     1      36.673 -21.858 -17.581  0.00  0.00    -0.086 C 
BRANCH  10  11
ATOM     11  N   UNL     1      37.344 -20.698 -17.007  0.00  0.00    +0.380 N 
ATOM     12  H   UNL     1      38.195 -20.997 -16.532  0.00  0.00    -0.089 HD
ATOM     13  H   UNL     1      36.724 -20.242 -16.337  0.00  0.00    -0.089 HD
ATOM     14  H   UNL     1      37.582 -20.040 -17.751  0.00  0.00    -0.089 HD
ENDBRANCH  10  11
ENDBRANCH   9  10
ENDBRANCH   8   9
ENDBRANCH   7   8
ENDBRANCH   6   7
ENDBRANCH   5   6
ENDBRANCH   4   5
ENDBRANCH   1   4
BRANCH   1  15
ATOM     15  C   UNL     1      34.630 -17.231 -23.650  0.00  0.00    -0.215 C 
BRANCH  15  16
ATOM     16  N   UNL     1      34.652 -15.822 -24.032  0.00  0.00    +0.359 N 
ATOM     17  H   UNL     1      35.373 -15.336 -23.499  0.00  0.00    -0.095 HD
ATOM     18  H   UNL     1      33.742 -15.401 -23.836  0.00  0.00    -0.095 HD
ATOM     19  H   UNL     1      34.854 -15.742 -25.029  0.00  0.00    -0.095 HD
ENDBRANCH  15  16
BRANCH  15  20
ATOM     20  N   UNL     1      34.660 -18.039 -24.865  0.00  0.00    +0.359 N 
ATOM     21  H   UNL     1      35.258 -17.590 -25.558  0.00  0.00    -0.095 HD
ATOM     22  H   UNL     1      33.715 -18.126 -25.238  0.00  0.00    -0.095 HD
ATOM     23  H   UNL     1      35.027 -18.965 -24.649  0.00  0.00    -0.095 HD
ENDBRANCH  15  20
ENDBRANCH   1  15
TORSDOF 11
ENDMDL
MODEL 8
REMARK VINA RESULT:      -5.0      3.330      5.093
REMARK  Name = 5288371
REMARK  11 active torsions:
REMARK  status: ('A' for Active; 'I' for Inactive)
REMARK    1  A    between atoms: N_1  and  C_4
REMARK    2  A    between atoms: N_1  and  C_15
REMARK    3  A    between atoms: C_4  and  C_5
REMARK    4  A    between atoms: C_5  and  C_6
REMARK    5  A    between atoms: C_6  and  C_7
REMARK    6  A    between atoms: C_7  and  C_8
REMARK    7  A    between atoms: C_8  and  C_9
REMARK    8  A    between atoms: C_9  and  C_10
REMARK    9  A    between atoms: C_10  and  N_11
REMARK   10  A    between atoms: C_15  and  N_16
REMARK   11  A    between atoms: C_15  and  N_20
REMARK                            x       y       z     vdW  Elec       q    Type
REMARK                         _______ _______ _______ _____ _____    ______ ____
ROOT
ATOM      1  N   UNL     1      32.902 -15.024 -21.882  0.00  0.00    +0.362 N 
ATOM      2  H   UNL     1      32.125 -14.837 -21.249  0.00  0.00    -0.090 HD
ATOM      3  H   UNL     1      32.840 -15.956 -22.292  0.00  0.00    -0.090 HD
ENDROOT
BRANCH   1   4
ATOM      4  C   UNL     1      34.146 -14.958 -21.124  0.00  0.00    -0.087 C 
BRANCH   4   5
ATOM      5  C   UNL     1      34.830 -16.319 -20.973  0.00  0.00    -0.024 C 
BRANCH   5   6
ATOM      6  C   UNL     1      33.884 -17.504 -21.182  0.00  0.00    -0.002 C 
BRANCH   6   7
ATOM      7  C   UNL     1      34.661 -18.783 -21.501  0.00  0.00    -0.000 C 
BRANCH   7   8
ATOM      8  C   UNL     1      35.595 -18.585 -22.696  0.00  0.00    -0.002 C 
BRANCH   8   9
ATOM      9  C   UNL     1      34.941 -19.063 -23.997  0.00  0.00    -0.024 C 
BRANCH   9  10
ATOM     10  C   UNL     1      34.502 -17.921 -24.915  0.00  0.00    -0.086 C 
BRANCH  10  11
ATOM     11  N   UNL     1      35.198 -16.674 -24.619  0.00  0.00    +0.380 N 
ATOM     12  H   UNL     1      35.076 -16.024 -25.396  0.00  0.00    -0.089 HD
ATOM     13  H   UNL     1      36.191 -16.861 -24.486  0.00  0.00    -0.089 HD
ATOM     14  H   UNL     1      34.812 -16.263 -23.769  0.00  0.00    -0.089 HD
ENDBRANCH  10  11
ENDBRANCH   9  10
ENDBRANCH   8   9
ENDBRANCH   7   8
ENDBRANCH   6   7
ENDBRANCH   5   6
ENDBRANCH   4   5
ENDBRANCH   1   4
BRANCH   1  15
ATOM     15  C   UNL     1      32.856 -14.055 -22.979  0.00  0.00    -0.215 C 
BRANCH  15  16
ATOM     16  N   UNL     1      31.922 -12.989 -22.629  0.00  0.00    +0.359 N 
ATOM     17  H   UNL     1      32.414 -12.263 -22.107  0.00  0.00    -0.095 HD
ATOM     18  H   UNL     1      31.170 -13.370 -22.053  0.00  0.00    -0.095 HD
ATOM     19  H   UNL     1      31.529 -12.587 -23.480  0.00  0.00    -0.095 HD
ENDBRANCH  15  16
BRANCH  15  20
ATOM     20  N   UNL     1      34.164 -13.459 -23.230  0.00  0.00    +0.359 N 
ATOM     21  H   UNL     1      34.043 -12.514 -23.593  0.00  0.00    -0.095 HD
ATOM     22  H   UNL     1      34.668 -14.023 -23.913  0.00  0.00    -0.095 HD
ATOM     23  H   UNL     1      34.694 -13.423 -22.360  0.00  0.00    -0.095 HD
ENDBRANCH  15  20
ENDBRANCH   1  15
TORSDOF 11
ENDMDL
MODEL 9
REMARK VINA RESULT:      -5.0      3.272      4.747
REMARK  Name = 5288371
REMARK  11 active torsions:
REMARK  status: ('A' for Active; 'I' for Inactive)
REMARK    1  A    between atoms: N_1  and  C_4
REMARK    2  A    between atoms: N_1  and  C_15
REMARK    3  A    between atoms: C_4  and  C_5
REMARK    4  A    between atoms: C_5  and  C_6
REMARK    5  A    between atoms: C_6  and  C_7
REMARK    6  A    between atoms: C_7  and  C_8
REMARK    7  A    between atoms: C_8  and  C_9
REMARK    8  A    between atoms: C_9  and  C_10
REMARK    9  A    between atoms: C_10  and  N_11
REMARK   10  A    between atoms: C_15  and  N_16
REMARK   11  A    between atoms: C_15  and  N_20
REMARK                            x       y       z     vdW  Elec       q    Type
REMARK                         _______ _______ _______ _____ _____    ______ ____
ROOT
ATOM      1  N   UNL     1      34.469 -14.019 -23.004  0.00  0.00    +0.362 N 
ATOM      2  H   UNL     1      35.428 -13.846 -23.304  0.00  0.00    -0.090 HD
ATOM      3  H   UNL     1      34.341 -13.816 -22.012  0.00  0.00    -0.090 HD
ENDROOT
BRANCH   1   4
ATOM      4  C   UNL     1      34.166 -15.431 -23.206  0.00  0.00    -0.087 C 
BRANCH   4   5
ATOM      5  C   UNL     1      33.923 -15.790 -24.674  0.00  0.00    -0.024 C 
BRANCH   5   6
ATOM      6  C   UNL     1      34.520 -17.140 -25.080  0.00  0.00    -0.002 C 
BRANCH   6   7
ATOM      7  C   UNL     1      35.279 -17.782 -23.916  0.00  0.00    -0.000 C 
BRANCH   7   8
ATOM      8  C   UNL     1      34.744 -19.182 -23.607  0.00  0.00    -0.002 C 
BRANCH   8   9
ATOM      9  C   UNL     1      34.543 -19.379 -22.101  0.00  0.00    -0.024 C 
BRANCH   9  10
ATOM     10  C   UNL     1      35.443 -18.488 -21.243  0.00  0.00    -0.086 C 
BRANCH  10  11
ATOM     11  N   UNL     1      36.395 -19.259 -20.453  0.00  0.00    +0.380 N 
ATOM     12  H   UNL     1      35.921 -19.655 -19.641  0.00  0.00    -0.089 HD
ATOM     13  H   UNL     1      37.151 -18.650 -20.141  0.00  0.00    -0.089 HD
ATOM     14  H   UNL     1      36.779 -20.013 -21.023  0.00  0.00    -0.089 HD
ENDBRANCH  10  11
ENDBRANCH   9  10
ENDBRANCH   8   9
ENDBRANCH   7   8
ENDBRANCH   6   7
ENDBRANCH   5   6
ENDBRANCH   4   5
ENDBRANCH   1   4
BRANCH   1  15
ATOM     15  C   UNL     1      33.576 -13.135 -23.755  0.00  0.00    -0.215 C 
BRANCH  15  16
ATOM     16  N   UNL     1      32.404 -12.842 -22.936  0.00  0.00    +0.359 N 
ATOM     17  H   UNL     1      31.661 -13.505 -23.155  0.00  0.00    -0.095 HD
ATOM     18  H   UNL     1      32.081 -11.893 -23.132  0.00  0.00    -0.095 HD
ATOM     19  H   UNL     1      32.650 -12.920 -21.949  0.00  0.00    -0.095 HD
ENDBRANCH  15  16
BRANCH  15  20
ATOM     20  N   UNL     1      34.227 -11.875 -24.099  0.00  0.00    +0.359 N 
ATOM     21  H   UNL     1      33.683 -11.098 -23.724  0.00  0.00    -0.095 HD
ATOM     22  H   UNL     1      34.286 -11.789 -25.113  0.00  0.00    -0.095 HD
ATOM     23  H   UNL     1      35.165 -11.856 -23.700  0.00  0.00    -0.095 HD
ENDBRANCH  15  20
ENDBRANCH   1  15
TORSDOF 11
ENDMDL
