MODEL 1
REMARK VINA RESULT:      -8.7      0.000      0.000
REMARK  Name = 14539800
REMARK  10 active torsions:
REMARK  status: ('A' for Active; 'I' for Inactive)
REMARK    1  A    between atoms: C_3  and  C_26
REMARK    2  A    between atoms: C_6  and  C_10
REMARK    3  A    between atoms: C_14  and  C_15
REMARK    4  A    between atoms: C_15  and  N_16
REMARK    5  A    between atoms: C_15  and  C_20
REMARK    6  A    between atoms: C_20  and  O_22
REMARK    7  A    between atoms: N_25  and  C_28
REMARK    8  A    between atoms: C_28  and  C_31
REMARK    9  A    between atoms: C_28  and  C_34
REMARK   10  A    between atoms: C_34  and  O_36
REMARK                            x       y       z     vdW  Elec       q    Type
REMARK                         _______ _______ _______ _____ _____    ______ ____
ROOT
ATOM      1  O   UNL     1      34.941 -15.370 -24.902  0.00  0.00    -0.273 OA
ATOM      2  N   UNL     1      33.788 -15.373 -22.894  0.00  0.00    -0.272 N 
ATOM      3  C   UNL     1      34.863 -15.934 -22.086  0.00  0.00    +0.152 C 
ATOM      4  C   UNL     1      34.438 -15.678 -20.645  0.00  0.00    +0.031 C 
ATOM      5  C   UNL     1      32.629 -15.039 -22.071  0.00  0.00    +0.094 C 
ATOM      6  C   UNL     1      33.947 -15.070 -24.237  0.00  0.00    +0.244 C 
ATOM      7  C   UNL     1      32.913 -15.677 -20.720  0.00  0.00    +0.024 C 
ENDROOT
BRANCH   6  10
ATOM      8  O   UNL     1      33.113 -12.236 -22.944  0.00  0.00    -0.277 OA
ATOM      9  N   UNL     1      33.253 -12.977 -25.131  0.00  0.00    -0.275 N 
ATOM     10  C   UNL     1      32.803 -14.340 -24.874  0.00  0.00    +0.152 C 
ATOM     11  C   UNL     1      32.467 -14.903 -26.250  0.00  0.00    +0.031 C 
ATOM     12  C   UNL     1      33.404 -14.139 -27.184  0.00  0.00    +0.024 C 
ATOM     13  C   UNL     1      33.469 -12.755 -26.558  0.00  0.00    +0.094 C 
ATOM     14  C   UNL     1      33.301 -12.010 -24.140  0.00  0.00    +0.208 C 
BRANCH  14  15
ATOM     15  C   UNL     1      33.619 -10.613 -24.611  0.00  0.00    +0.040 C 
BRANCH  15  16
ATOM     16  N   UNL     1      32.815  -9.762 -23.781  0.00  0.00    +0.389 N 
ATOM     17  H   UNL     1      32.596 -10.244 -22.911  0.00  0.00    -0.088 HD
ATOM     18  H   UNL     1      31.950  -9.529 -24.269  0.00  0.00    -0.088 HD
ATOM     19  H   UNL     1      33.329  -8.905 -23.575  0.00  0.00    -0.088 HD
ENDBRANCH  15  16
BRANCH  15  20
ATOM     20  C   UNL     1      35.114 -10.324 -24.526  0.00  0.00    +0.099 C 
ATOM     21  C   UNL     1      35.750 -10.222 -25.909  0.00  0.00    +0.030 C 
BRANCH  20  22
ATOM     22  O   UNL     1      35.340  -9.103 -23.824  0.00  0.00    -0.386 OA
ATOM     23  H   UNL     1      34.997  -8.361 -24.347  0.00  0.00    +0.210 HD
ENDBRANCH  20  22
ENDBRANCH  15  20
ENDBRANCH  14  15
ENDBRANCH   6  10
BRANCH   3  26
ATOM     24  O   UNL     1      35.272 -17.814 -23.499  0.00  0.00    -0.273 OA
ATOM     25  N   UNL     1      34.546 -18.180 -21.318  0.00  0.00    -0.295 N 
ATOM     26  C   UNL     1      34.930 -17.400 -22.395  0.00  0.00    +0.241 C 
ATOM     27  H   UNL     1      34.291 -17.730 -20.480  0.00  0.00    +0.150 HD
BRANCH  25  28
ATOM     28  C   UNL     1      34.501 -19.624 -21.364  0.00  0.00    +0.175 C 
BRANCH  28  31
ATOM     29  O   UNL     1      32.968 -21.227 -20.369  0.00  0.00    -0.273 OA
ATOM     30  N   UNL     1      32.292 -19.041 -20.567  0.00  0.00    -0.327 N 
ATOM     31  C   UNL     1      33.201 -20.068 -20.706  0.00  0.00    +0.240 C 
ATOM     32  H   UNL     1      31.415 -19.212 -20.154  0.00  0.00    +0.145 HD
ATOM     33  H   UNL     1      32.521 -18.136 -20.881  0.00  0.00    +0.145 HD
ENDBRANCH  28  31
BRANCH  28  34
ATOM     34  C   UNL     1      35.719 -20.276 -20.695  0.00  0.00    +0.137 C 
ATOM     35  C   UNL     1      36.939 -19.364 -20.689  0.00  0.00    +0.034 C 
BRANCH  34  36
ATOM     36  O   UNL     1      35.392 -20.627 -19.350  0.00  0.00    -0.382 OA
ATOM     37  H   UNL     1      35.713 -19.938 -18.749  0.00  0.00    +0.210 HD
ENDBRANCH  34  36
ENDBRANCH  28  34
ENDBRANCH  25  28
ENDBRANCH   3  26
TORSDOF 10
ENDMDL
MODEL 2
REMARK VINA RESULT:      -8.0      2.241      4.172
REMARK  Name = 14539800
REMARK  10 active torsions:
REMARK  status: ('A' for Active; 'I' for Inactive)
REMARK    1  A    between atoms: C_3  and  C_26
REMARK    2  A    between atoms: C_6  and  C_10
REMARK    3  A    between atoms: C_14  and  C_15
REMARK    4  A    between atoms: C_15  and  N_16
REMARK    5  A    between atoms: C_15  and  C_20
REMARK    6  A    between atoms: C_20  and  O_22
REMARK    7  A    between atoms: N_25  and  C_28
REMARK    8  A    between atoms: C_28  and  C_31
REMARK    9  A    between atoms: C_28  and  C_34
REMARK   10  A    between atoms: C_34  and  O_36
REMARK                            x       y       z     vdW  Elec       q    Type
REMARK                         _______ _______ _______ _____ _____    ______ ____
ROOT
ATOM      1  O   UNL     1      32.239 -16.633 -21.359  0.00  0.00    -0.273 OA
ATOM      2  N   UNL     1      34.310 -17.459 -21.985  0.00  0.00    -0.272 N 
ATOM      3  C   UNL     1      33.866 -18.816 -22.274  0.00  0.00    +0.152 C 
ATOM      4  C   UNL     1      35.014 -19.439 -23.060  0.00  0.00    +0.031 C 
ATOM      5  C   UNL     1      35.727 -17.290 -22.296  0.00  0.00    +0.094 C 
ATOM      6  C   UNL     1      33.431 -16.452 -21.616  0.00  0.00    +0.244 C 
ATOM      7  C   UNL     1      36.244 -18.699 -22.540  0.00  0.00    +0.024 C 
ENDROOT
BRANCH   6  10
ATOM      8  O   UNL     1      34.582 -15.172 -24.343  0.00  0.00    -0.277 OA
ATOM      9  N   UNL     1      33.400 -14.273 -22.569  0.00  0.00    -0.275 N 
ATOM     10  C   UNL     1      34.025 -15.079 -21.527  0.00  0.00    +0.152 C 
ATOM     11  C   UNL     1      33.652 -14.383 -20.223  0.00  0.00    +0.031 C 
ATOM     12  C   UNL     1      32.312 -13.724 -20.543  0.00  0.00    +0.024 C 
ATOM     13  C   UNL     1      32.466 -13.306 -21.998  0.00  0.00    +0.094 C 
ATOM     14  C   UNL     1      33.790 -14.340 -23.897  0.00  0.00    +0.208 C 
BRANCH  14  15
ATOM     15  C   UNL     1      33.166 -13.316 -24.810  0.00  0.00    +0.040 C 
BRANCH  15  16
ATOM     16  N   UNL     1      34.163 -12.292 -24.939  0.00  0.00    +0.389 N 
ATOM     17  H   UNL     1      34.902 -12.450 -24.255  0.00  0.00    -0.088 HD
ATOM     18  H   UNL     1      33.737 -11.380 -24.776  0.00  0.00    -0.088 HD
ATOM     19  H   UNL     1      34.559 -12.319 -25.879  0.00  0.00    -0.088 HD
ENDBRANCH  15  16
BRANCH  15  20
ATOM     20  C   UNL     1      32.745 -13.937 -26.138  0.00  0.00    +0.099 C 
ATOM     21  C   UNL     1      33.564 -13.392 -27.303  0.00  0.00    +0.030 C 
BRANCH  20  22
ATOM     22  O   UNL     1      32.900 -15.355 -26.089  0.00  0.00    -0.386 OA
ATOM     23  H   UNL     1      32.857 -15.654 -25.167  0.00  0.00    +0.210 HD
ENDBRANCH  20  22
ENDBRANCH  15  20
ENDBRANCH  14  15
ENDBRANCH   6  10
BRANCH   3  26
ATOM     24  O   UNL     1      32.635 -19.338 -20.297  0.00  0.00    -0.273 OA
ATOM     25  N   UNL     1      34.738 -20.289 -20.599  0.00  0.00    -0.295 N 
ATOM     26  C   UNL     1      33.656 -19.502 -20.957  0.00  0.00    +0.241 C 
ATOM     27  H   UNL     1      35.504 -20.342 -21.214  0.00  0.00    +0.150 HD
BRANCH  25  28
ATOM     28  C   UNL     1      34.794 -21.038 -19.363  0.00  0.00    +0.175 C 
BRANCH  28  31
ATOM     29  O   UNL     1      36.730 -21.117 -17.894  0.00  0.00    -0.273 OA
ATOM     30  N   UNL     1      37.025 -21.587 -20.123  0.00  0.00    -0.327 N 
ATOM     31  C   UNL     1      36.263 -21.257 -19.023  0.00  0.00    +0.240 C 
ATOM     32  H   UNL     1      37.990 -21.752 -20.021  0.00  0.00    +0.145 HD
ATOM     33  H   UNL     1      36.604 -21.659 -21.009  0.00  0.00    +0.145 HD
ENDBRANCH  28  31
BRANCH  28  34
ATOM     34  C   UNL     1      34.033 -22.368 -19.441  0.00  0.00    +0.137 C 
ATOM     35  C   UNL     1      33.859 -23.021 -18.075  0.00  0.00    +0.034 C 
BRANCH  34  36
ATOM     36  O   UNL     1      32.747 -22.149 -20.020  0.00  0.00    -0.382 OA
ATOM     37  H   UNL     1      32.137 -22.843 -19.728  0.00  0.00    +0.210 HD
ENDBRANCH  34  36
ENDBRANCH  28  34
ENDBRANCH  25  28
ENDBRANCH   3  26
TORSDOF 10
ENDMDL
MODEL 3
REMARK VINA RESULT:      -7.5      2.190      4.549
REMARK  Name = 14539800
REMARK  10 active torsions:
REMARK  status: ('A' for Active; 'I' for Inactive)
REMARK    1  A    between atoms: C_3  and  C_26
REMARK    2  A    between atoms: C_6  and  C_10
REMARK    3  A    between atoms: C_14  and  C_15
REMARK    4  A    between atoms: C_15  and  N_16
REMARK    5  A    between atoms: C_15  and  C_20
REMARK    6  A    between atoms: C_20  and  O_22
REMARK    7  A    between atoms: N_25  and  C_28
REMARK    8  A    between atoms: C_28  and  C_31
REMARK    9  A    between atoms: C_28  and  C_34
REMARK   10  A    between atoms: C_34  and  O_36
REMARK                            x       y       z     vdW  Elec       q    Type
REMARK                         _______ _______ _______ _____ _____    ______ ____
ROOT
ATOM      1  O   UNL     1      33.076 -11.975 -23.315  0.00  0.00    -0.273 OA
ATOM      2  N   UNL     1      33.236 -12.933 -25.417  0.00  0.00    -0.272 N 
ATOM      3  C   UNL     1      32.832 -14.275 -25.018  0.00  0.00    +0.152 C 
ATOM      4  C   UNL     1      32.512 -14.987 -26.327  0.00  0.00    +0.031 C 
ATOM      5  C   UNL     1      33.443 -12.851 -26.860  0.00  0.00    +0.094 C 
ATOM      6  C   UNL     1      33.254 -11.868 -24.529  0.00  0.00    +0.244 C 
ATOM      7  C   UNL     1      33.422 -14.294 -27.339  0.00  0.00    +0.024 C 
ENDROOT
BRANCH   6  10
ATOM      8  O   UNL     1      31.338  -9.435 -23.630  0.00  0.00    -0.277 OA
ATOM      9  N   UNL     1      33.610  -9.566 -24.045  0.00  0.00    -0.275 N 
ATOM     10  C   UNL     1      33.524 -10.525 -25.139  0.00  0.00    +0.152 C 
ATOM     11  C   UNL     1      34.893 -10.472 -25.809  0.00  0.00    +0.031 C 
ATOM     12  C   UNL     1      35.831 -10.083 -24.669  0.00  0.00    +0.024 C 
ATOM     13  C   UNL     1      34.989  -9.133 -23.832  0.00  0.00    +0.094 C 
ATOM     14  C   UNL     1      32.488  -9.043 -23.424  0.00  0.00    +0.208 C 
BRANCH  14  15
ATOM     15  C   UNL     1      32.749  -7.935 -22.436  0.00  0.00    +0.040 C 
BRANCH  15  16
ATOM     16  N   UNL     1      31.770  -6.934 -22.749  0.00  0.00    +0.389 N 
ATOM     17  H   UNL     1      31.743  -6.788 -23.757  0.00  0.00    -0.088 HD
ATOM     18  H   UNL     1      32.016  -6.060 -22.285  0.00  0.00    -0.088 HD
ATOM     19  H   UNL     1      30.852  -7.243 -22.425  0.00  0.00    -0.088 HD
ENDBRANCH  15  16
BRANCH  15  20
ATOM     20  C   UNL     1      32.676  -8.442 -20.999  0.00  0.00    +0.099 C 
ATOM     21  C   UNL     1      32.298  -7.330 -20.025  0.00  0.00    +0.030 C 
BRANCH  20  22
ATOM     22  O   UNL     1      31.714  -9.491 -20.896  0.00  0.00    -0.386 OA
ATOM     23  H   UNL     1      31.890 -10.159 -21.578  0.00  0.00    +0.210 HD
ENDBRANCH  20  22
ENDBRANCH  15  20
ENDBRANCH  14  15
ENDBRANCH   6  10
BRANCH   3  26
ATOM     24  O   UNL     1      34.963 -15.348 -24.932  0.00  0.00    -0.273 OA
ATOM     25  N   UNL     1      33.835 -14.919 -22.941  0.00  0.00    -0.295 N 
ATOM     26  C   UNL     1      34.001 -14.899 -24.316  0.00  0.00    +0.241 C 
ATOM     27  H   UNL     1      33.016 -14.527 -22.562  0.00  0.00    +0.150 HD
BRANCH  25  28
ATOM     28  C   UNL     1      34.810 -15.487 -22.037  0.00  0.00    +0.175 C 
BRANCH  28  31
ATOM     29  O   UNL     1      33.957 -17.746 -21.752  0.00  0.00    -0.273 OA
ATOM     30  N   UNL     1      35.868 -17.444 -22.989  0.00  0.00    -0.327 N 
ATOM     31  C   UNL     1      34.802 -16.997 -22.239  0.00  0.00    +0.240 C 
ATOM     32  H   UNL     1      35.966 -18.403 -23.184  0.00  0.00    +0.145 HD
ATOM     33  H   UNL     1      36.532 -16.802 -23.331  0.00  0.00    +0.145 HD
ENDBRANCH  28  31
BRANCH  28  34
ATOM     34  C   UNL     1      34.545 -15.117 -20.571  0.00  0.00    +0.137 C 
ATOM     35  C   UNL     1      33.065 -14.890 -20.286  0.00  0.00    +0.034 C 
BRANCH  34  36
ATOM     36  O   UNL     1      35.029 -16.157 -19.722  0.00  0.00    -0.382 OA
ATOM     37  H   UNL     1      34.616 -16.998 -19.972  0.00  0.00    +0.210 HD
ENDBRANCH  34  36
ENDBRANCH  28  34
ENDBRANCH  25  28
ENDBRANCH   3  26
TORSDOF 10
ENDMDL
MODEL 4
REMARK VINA RESULT:      -7.2      3.973      6.985
REMARK  Name = 14539800
REMARK  10 active torsions:
REMARK  status: ('A' for Active; 'I' for Inactive)
REMARK    1  A    between atoms: C_3  and  C_26
REMARK    2  A    between atoms: C_6  and  C_10
REMARK    3  A    between atoms: C_14  and  C_15
REMARK    4  A    between atoms: C_15  and  N_16
REMARK    5  A    between atoms: C_15  and  C_20
REMARK    6  A    between atoms: C_20  and  O_22
REMARK    7  A    between atoms: N_25  and  C_28
REMARK    8  A    between atoms: C_28  and  C_31
REMARK    9  A    between atoms: C_28  and  C_34
REMARK   10  A    between atoms: C_34  and  O_36
REMARK                            x       y       z     vdW  Elec       q    Type
REMARK                         _______ _______ _______ _____ _____    ______ ____
ROOT
ATOM      1  O   UNL     1      31.430  -9.091 -22.574  0.00  0.00    -0.273 OA
ATOM      2  N   UNL     1      33.443  -9.538 -23.627  0.00  0.00    -0.272 N 
ATOM      3  C   UNL     1      32.992 -10.719 -24.352  0.00  0.00    +0.152 C 
ATOM      4  C   UNL     1      34.068 -10.962 -25.404  0.00  0.00    +0.031 C 
ATOM      5  C   UNL     1      34.822  -9.203 -23.971  0.00  0.00    +0.094 C 
ATOM      6  C   UNL     1      32.590  -8.775 -22.845  0.00  0.00    +0.244 C 
ATOM      7  C   UNL     1      35.332 -10.404 -24.753  0.00  0.00    +0.024 C 
ENDROOT
BRANCH   6  10
ATOM      8  O   UNL     1      32.649  -6.241 -24.839  0.00  0.00    -0.277 OA
ATOM      9  N   UNL     1      32.205  -6.443 -22.577  0.00  0.00    -0.275 N 
ATOM     10  C   UNL     1      33.172  -7.500 -22.311  0.00  0.00    +0.152 C 
ATOM     11  C   UNL     1      33.306  -7.530 -20.793  0.00  0.00    +0.031 C 
ATOM     12  C   UNL     1      31.941  -7.047 -20.307  0.00  0.00    +0.024 C 
ATOM     13  C   UNL     1      31.546  -6.010 -21.347  0.00  0.00    +0.094 C 
ATOM     14  C   UNL     1      32.077  -5.847 -23.822  0.00  0.00    +0.208 C 
BRANCH  14  15
ATOM     15  C   UNL     1      31.157  -4.654 -23.879  0.00  0.00    +0.040 C 
BRANCH  15  16
ATOM     16  N   UNL     1      31.612  -3.797 -22.822  0.00  0.00    +0.389 N 
ATOM     17  H   UNL     1      31.220  -2.864 -22.947  0.00  0.00    -0.088 HD
ATOM     18  H   UNL     1      32.630  -3.743 -22.842  0.00  0.00    -0.088 HD
ATOM     19  H   UNL     1      31.310  -4.175 -21.924  0.00  0.00    -0.088 HD
ENDBRANCH  15  16
BRANCH  15  20
ATOM     20  C   UNL     1      31.179  -3.999 -25.257  0.00  0.00    +0.099 C 
ATOM     21  C   UNL     1      30.326  -2.736 -25.297  0.00  0.00    +0.030 C 
BRANCH  20  22
ATOM     22  O   UNL     1      32.517  -3.663 -25.620  0.00  0.00    -0.386 OA
ATOM     23  H   UNL     1      32.942  -4.431 -26.036  0.00  0.00    +0.210 HD
ENDBRANCH  20  22
ENDBRANCH  15  20
ENDBRANCH  14  15
ENDBRANCH   6  10
BRANCH   3  26
ATOM     24  O   UNL     1      32.033 -11.897 -22.511  0.00  0.00    -0.273 OA
ATOM     25  N   UNL     1      33.946 -12.753 -23.525  0.00  0.00    -0.295 N 
ATOM     26  C   UNL     1      32.915 -11.843 -23.363  0.00  0.00    +0.241 C 
ATOM     27  H   UNL     1      34.596 -12.602 -24.248  0.00  0.00    +0.150 HD
BRANCH  25  28
ATOM     28  C   UNL     1      34.111 -13.916 -22.682  0.00  0.00    +0.175 C 
BRANCH  28  31
ATOM     29  O   UNL     1      35.385 -15.873 -23.361  0.00  0.00    -0.273 OA
ATOM     30  N   UNL     1      33.658 -15.170 -24.702  0.00  0.00    -0.327 N 
ATOM     31  C   UNL     1      34.461 -15.094 -23.584  0.00  0.00    +0.240 C 
ATOM     32  H   UNL     1      33.793 -15.892 -25.357  0.00  0.00    +0.145 HD
ATOM     33  H   UNL     1      32.950 -14.501 -24.846  0.00  0.00    +0.145 HD
ENDBRANCH  28  31
BRANCH  28  34
ATOM     34  C   UNL     1      32.870 -14.213 -21.830  0.00  0.00    +0.137 C 
ATOM     35  C   UNL     1      32.684 -15.703 -21.570  0.00  0.00    +0.034 C 
BRANCH  34  36
ATOM     36  O   UNL     1      32.975 -13.531 -20.580  0.00  0.00    -0.382 OA
ATOM     37  H   UNL     1      33.870 -13.172 -20.482  0.00  0.00    +0.210 HD
ENDBRANCH  34  36
ENDBRANCH  28  34
ENDBRANCH  25  28
ENDBRANCH   3  26
TORSDOF 10
ENDMDL
MODEL 5
REMARK VINA RESULT:      -7.2      3.515      9.514
REMARK  Name = 14539800
REMARK  10 active torsions:
REMARK  status: ('A' for Active; 'I' for Inactive)
REMARK    1  A    between atoms: C_3  and  C_26
REMARK    2  A    between atoms: C_6  and  C_10
REMARK    3  A    between atoms: C_14  and  C_15
REMARK    4  A    between atoms: C_15  and  N_16
REMARK    5  A    between atoms: C_15  and  C_20
REMARK    6  A    between atoms: C_20  and  O_22
REMARK    7  A    between atoms: N_25  and  C_28
REMARK    8  A    between atoms: C_28  and  C_31
REMARK    9  A    between atoms: C_28  and  C_34
REMARK   10  A    between atoms: C_34  and  O_36
REMARK                            x       y       z     vdW  Elec       q    Type
REMARK                         _______ _______ _______ _____ _____    ______ ____
ROOT
ATOM      1  O   UNL     1      32.463 -11.535 -22.988  0.00  0.00    -0.273 OA
ATOM      2  N   UNL     1      33.907  -9.848 -23.643  0.00  0.00    -0.272 N 
ATOM      3  C   UNL     1      33.454  -8.857 -22.676  0.00  0.00    +0.152 C 
ATOM      4  C   UNL     1      34.534  -7.781 -22.689  0.00  0.00    +0.031 C 
ATOM      5  C   UNL     1      35.028  -9.342 -24.430  0.00  0.00    +0.094 C 
ATOM      6  C   UNL     1      33.414 -11.144 -23.667  0.00  0.00    +0.244 C 
ATOM      7  C   UNL     1      35.093  -7.858 -24.108  0.00  0.00    +0.024 C 
ENDROOT
BRANCH   6  10
ATOM      8  O   UNL     1      34.930 -13.672 -22.359  0.00  0.00    -0.277 OA
ATOM      9  N   UNL     1      33.661 -13.429 -24.278  0.00  0.00    -0.275 N 
ATOM     10  C   UNL     1      34.111 -12.082 -24.606  0.00  0.00    +0.152 C 
ATOM     11  C   UNL     1      33.673 -11.867 -26.050  0.00  0.00    +0.031 C 
ATOM     12  C   UNL     1      32.431 -12.747 -26.179  0.00  0.00    +0.024 C 
ATOM     13  C   UNL     1      32.762 -13.948 -25.306  0.00  0.00    +0.094 C 
ATOM     14  C   UNL     1      34.171 -14.144 -23.207  0.00  0.00    +0.208 C 
BRANCH  14  15
ATOM     15  C   UNL     1      33.728 -15.583 -23.116  0.00  0.00    +0.040 C 
BRANCH  15  16
ATOM     16  N   UNL     1      34.823 -16.332 -23.663  0.00  0.00    +0.389 N 
ATOM     17  H   UNL     1      34.557 -16.709 -24.572  0.00  0.00    -0.088 HD
ATOM     18  H   UNL     1      35.059 -17.099 -23.033  0.00  0.00    -0.088 HD
ATOM     19  H   UNL     1      35.633 -15.721 -23.771  0.00  0.00    -0.088 HD
ENDBRANCH  15  16
BRANCH  15  20
ATOM     20  C   UNL     1      33.372 -15.966 -21.684  0.00  0.00    +0.099 C 
ATOM     21  C   UNL     1      34.565 -16.565 -20.945  0.00  0.00    +0.030 C 
BRANCH  20  22
ATOM     22  O   UNL     1      32.915 -14.820 -20.967  0.00  0.00    -0.386 OA
ATOM     23  H   UNL     1      32.406 -14.248 -21.563  0.00  0.00    +0.210 HD
ENDBRANCH  20  22
ENDBRANCH  15  20
ENDBRANCH  14  15
ENDBRANCH   6  10
BRANCH   3  26
ATOM     24  O   UNL     1      31.310  -9.059 -23.706  0.00  0.00    -0.273 OA
ATOM     25  N   UNL     1      32.008  -6.969 -22.957  0.00  0.00    -0.295 N 
ATOM     26  C   UNL     1      32.138  -8.331 -23.166  0.00  0.00    +0.241 C 
ATOM     27  H   UNL     1      32.744  -6.490 -22.512  0.00  0.00    +0.150 HD
BRANCH  25  28
ATOM     28  C   UNL     1      30.841  -6.216 -23.360  0.00  0.00    +0.175 C 
BRANCH  28  31
ATOM     29  O   UNL     1      30.486  -4.528 -25.073  0.00  0.00    -0.273 OA
ATOM     30  N   UNL     1      32.567  -5.481 -24.888  0.00  0.00    -0.327 N 
ATOM     31  C   UNL     1      31.253  -5.307 -24.511  0.00  0.00    +0.240 C 
ATOM     32  H   UNL     1      32.944  -4.945 -25.623  0.00  0.00    +0.145 HD
ATOM     33  H   UNL     1      33.130  -6.140 -24.421  0.00  0.00    +0.145 HD
ENDBRANCH  28  31
BRANCH  28  34
ATOM     34  C   UNL     1      30.226  -5.413 -22.206  0.00  0.00    +0.137 C 
ATOM     35  C   UNL     1      30.798  -5.809 -20.850  0.00  0.00    +0.034 C 
BRANCH  34  36
ATOM     36  O   UNL     1      30.455  -4.020 -22.419  0.00  0.00    -0.382 OA
ATOM     37  H   UNL     1      31.333  -3.891 -22.809  0.00  0.00    +0.210 HD
ENDBRANCH  34  36
ENDBRANCH  28  34
ENDBRANCH  25  28
ENDBRANCH   3  26
TORSDOF 10
ENDMDL
MODEL 6
REMARK VINA RESULT:      -7.2      3.903      6.925
REMARK  Name = 14539800
REMARK  10 active torsions:
REMARK  status: ('A' for Active; 'I' for Inactive)
REMARK    1  A    between atoms: C_3  and  C_26
REMARK    2  A    between atoms: C_6  and  C_10
REMARK    3  A    between atoms: C_14  and  C_15
REMARK    4  A    between atoms: C_15  and  N_16
REMARK    5  A    between atoms: C_15  and  C_20
REMARK    6  A    between atoms: C_20  and  O_22
REMARK    7  A    between atoms: N_25  and  C_28
REMARK    8  A    between atoms: C_28  and  C_31
REMARK    9  A    between atoms: C_28  and  C_34
REMARK   10  A    between atoms: C_34  and  O_36
REMARK                            x       y       z     vdW  Elec       q    Type
REMARK                         _______ _______ _______ _____ _____    ______ ____
ROOT
ATOM      1  O   UNL     1      31.367  -9.183 -22.734  0.00  0.00    -0.273 OA
ATOM      2  N   UNL     1      33.431  -9.661 -23.667  0.00  0.00    -0.272 N 
ATOM      3  C   UNL     1      32.992 -10.795 -24.468  0.00  0.00    +0.152 C 
ATOM      4  C   UNL     1      34.130 -11.035 -25.454  0.00  0.00    +0.031 C 
ATOM      5  C   UNL     1      34.841  -9.362 -23.903  0.00  0.00    +0.094 C 
ATOM      6  C   UNL     1      32.552  -8.898 -22.913  0.00  0.00    +0.244 C 
ATOM      7  C   UNL     1      35.363 -10.549 -24.697  0.00  0.00    +0.024 C 
ENDROOT
BRANCH   6  10
ATOM      8  O   UNL     1      32.762  -6.271 -24.771  0.00  0.00    -0.277 OA
ATOM      9  N   UNL     1      32.208  -6.573 -22.545  0.00  0.00    -0.275 N 
ATOM     10  C   UNL     1      33.138  -7.667 -22.289  0.00  0.00    +0.152 C 
ATOM     11  C   UNL     1      33.200  -7.776 -20.770  0.00  0.00    +0.031 C 
ATOM     12  C   UNL     1      31.825  -7.283 -20.323  0.00  0.00    +0.024 C 
ATOM     13  C   UNL     1      31.503  -6.186 -21.325  0.00  0.00    +0.094 C 
ATOM     14  C   UNL     1      32.152  -5.914 -23.762  0.00  0.00    +0.208 C 
BRANCH  14  15
ATOM     15  C   UNL     1      31.264  -4.696 -23.800  0.00  0.00    +0.040 C 
BRANCH  15  16
ATOM     16  N   UNL     1      31.807  -3.822 -22.801  0.00  0.00    +0.389 N 
ATOM     17  H   UNL     1      32.564  -4.296 -22.309  0.00  0.00    -0.088 HD
ATOM     18  H   UNL     1      31.076  -3.567 -22.136  0.00  0.00    -0.088 HD
ATOM     19  H   UNL     1      32.168  -2.978 -23.247  0.00  0.00    -0.088 HD
ENDBRANCH  15  16
BRANCH  15  20
ATOM     20  C   UNL     1      31.218  -4.084 -25.196  0.00  0.00    +0.099 C 
ATOM     21  C   UNL     1      30.325  -2.848 -25.244  0.00  0.00    +0.030 C 
BRANCH  20  22
ATOM     22  O   UNL     1      32.531  -3.720 -25.618  0.00  0.00    -0.386 OA
ATOM     23  H   UNL     1      32.801  -2.905 -25.166  0.00  0.00    +0.210 HD
ENDBRANCH  20  22
ENDBRANCH  15  20
ENDBRANCH  14  15
ENDBRANCH   6  10
BRANCH   3  26
ATOM     24  O   UNL     1      32.379 -11.806 -22.395  0.00  0.00    -0.273 OA
ATOM     25  N   UNL     1      33.206 -13.152 -24.104  0.00  0.00    -0.295 N 
ATOM     26  C   UNL     1      32.811 -11.954 -23.534  0.00  0.00    +0.241 C 
ATOM     27  H   UNL     1      33.538 -13.144 -25.030  0.00  0.00    +0.150 HD
BRANCH  25  28
ATOM     28  C   UNL     1      33.152 -14.415 -23.403  0.00  0.00    +0.175 C 
BRANCH  28  31
ATOM     29  O   UNL     1      35.040 -13.966 -21.938  0.00  0.00    -0.273 OA
ATOM     30  N   UNL     1      33.001 -14.427 -20.988  0.00  0.00    -0.327 N 
ATOM     31  C   UNL     1      33.845 -14.228 -22.059  0.00  0.00    +0.240 C 
ATOM     32  H   UNL     1      33.341 -14.332 -20.069  0.00  0.00    +0.145 HD
ATOM     33  H   UNL     1      32.058 -14.664 -21.142  0.00  0.00    +0.145 HD
ENDBRANCH  28  31
BRANCH  28  34
ATOM     34  C   UNL     1      33.783 -15.564 -24.202  0.00  0.00    +0.137 C 
ATOM     35  C   UNL     1      33.565 -15.418 -25.703  0.00  0.00    +0.034 C 
BRANCH  34  36
ATOM     36  O   UNL     1      35.185 -15.616 -23.937  0.00  0.00    -0.382 OA
ATOM     37  H   UNL     1      35.342 -16.117 -23.123  0.00  0.00    +0.210 HD
ENDBRANCH  34  36
ENDBRANCH  28  34
ENDBRANCH  25  28
ENDBRANCH   3  26
TORSDOF 10
ENDMDL
MODEL 7
REMARK VINA RESULT:      -6.9      1.816      7.898
REMARK  Name = 14539800
REMARK  10 active torsions:
REMARK  status: ('A' for Active; 'I' for Inactive)
REMARK    1  A    between atoms: C_3  and  C_26
REMARK    2  A    between atoms: C_6  and  C_10
REMARK    3  A    between atoms: C_14  and  C_15
REMARK    4  A    between atoms: C_15  and  N_16
REMARK    5  A    between atoms: C_15  and  C_20
REMARK    6  A    between atoms: C_20  and  O_22
REMARK    7  A    between atoms: N_25  and  C_28
REMARK    8  A    between atoms: C_28  and  C_31
REMARK    9  A    between atoms: C_28  and  C_34
REMARK   10  A    between atoms: C_34  and  O_36
REMARK                            x       y       z     vdW  Elec       q    Type
REMARK                         _______ _______ _______ _____ _____    ______ ____
ROOT
ATOM      1  O   UNL     1      34.960 -13.727 -22.696  0.00  0.00    -0.273 OA
ATOM      2  N   UNL     1      33.557 -13.670 -24.537  0.00  0.00    -0.272 N 
ATOM      3  C   UNL     1      34.341 -12.718 -25.313  0.00  0.00    +0.152 C 
ATOM      4  C   UNL     1      33.782 -12.819 -26.728  0.00  0.00    +0.031 C 
ATOM      5  C   UNL     1      32.401 -14.143 -25.294  0.00  0.00    +0.094 C 
ATOM      6  C   UNL     1      33.978 -14.152 -23.307  0.00  0.00    +0.244 C 
ATOM      7  C   UNL     1      32.327 -13.226 -26.505  0.00  0.00    +0.024 C 
ENDROOT
BRANCH   6  10
ATOM      8  O   UNL     1      34.465 -17.128 -24.452  0.00  0.00    -0.277 OA
ATOM      9  N   UNL     1      34.053 -16.317 -22.324  0.00  0.00    -0.275 N 
ATOM     10  C   UNL     1      33.142 -15.252 -22.726  0.00  0.00    +0.152 C 
ATOM     11  C   UNL     1      32.457 -14.821 -21.434  0.00  0.00    +0.031 C 
ATOM     12  C   UNL     1      33.502 -15.121 -20.361  0.00  0.00    +0.024 C 
ATOM     13  C   UNL     1      34.172 -16.388 -20.870  0.00  0.00    +0.094 C 
ATOM     14  C   UNL     1      34.586 -17.220 -23.229  0.00  0.00    +0.208 C 
BRANCH  14  15
ATOM     15  C   UNL     1      35.365 -18.362 -22.626  0.00  0.00    +0.040 C 
BRANCH  15  16
ATOM     16  N   UNL     1      36.721 -17.893 -22.589  0.00  0.00    +0.389 N 
ATOM     17  H   UNL     1      36.800 -17.037 -23.137  0.00  0.00    -0.088 HD
ATOM     18  H   UNL     1      37.338 -18.605 -22.980  0.00  0.00    -0.088 HD
ATOM     19  H   UNL     1      36.990 -17.704 -21.623  0.00  0.00    -0.088 HD
ENDBRANCH  15  16
BRANCH  15  20
ATOM     20  C   UNL     1      34.811 -18.753 -21.260  0.00  0.00    +0.099 C 
ATOM     21  C   UNL     1      33.683 -19.772 -21.378  0.00  0.00    +0.030 C 
BRANCH  20  22
ATOM     22  O   UNL     1      35.847 -19.305 -20.449  0.00  0.00    -0.386 OA
ATOM     23  H   UNL     1      35.457 -19.708 -19.656  0.00  0.00    +0.210 HD
ENDBRANCH  20  22
ENDBRANCH  15  20
ENDBRANCH  14  15
ENDBRANCH   6  10
BRANCH   3  26
ATOM     24  O   UNL     1      34.697 -10.366 -25.127  0.00  0.00    -0.273 OA
ATOM     25  N   UNL     1      33.197 -11.398 -23.676  0.00  0.00    -0.295 N 
ATOM     26  C   UNL     1      34.108 -11.362 -24.718  0.00  0.00    +0.241 C 
ATOM     27  H   UNL     1      32.789 -12.261 -23.439  0.00  0.00    +0.150 HD
BRANCH  25  28
ATOM     28  C   UNL     1      32.817 -10.226 -22.920  0.00  0.00    +0.175 C 
BRANCH  28  31
ATOM     29  O   UNL     1      31.642 -10.130 -20.793  0.00  0.00    -0.273 OA
ATOM     30  N   UNL     1      31.015 -11.726 -22.320  0.00  0.00    -0.327 N 
ATOM     31  C   UNL     1      31.772 -10.655 -21.897  0.00  0.00    +0.240 C 
ATOM     32  H   UNL     1      30.308 -12.089 -21.740  0.00  0.00    +0.145 HD
ATOM     33  H   UNL     1      31.181 -12.127 -23.204  0.00  0.00    +0.145 HD
ENDBRANCH  28  31
BRANCH  28  34
ATOM     34  C   UNL     1      32.294  -9.090 -23.810  0.00  0.00    +0.137 C 
ATOM     35  C   UNL     1      31.029  -8.449 -23.253  0.00  0.00    +0.034 C 
BRANCH  34  36
ATOM     36  O   UNL     1      33.303  -8.088 -23.946  0.00  0.00    -0.382 OA
ATOM     37  H   UNL     1      34.068  -8.461 -24.409  0.00  0.00    +0.210 HD
ENDBRANCH  34  36
ENDBRANCH  28  34
ENDBRANCH  25  28
ENDBRANCH   3  26
TORSDOF 10
ENDMDL
MODEL 8
REMARK VINA RESULT:      -6.8     10.837     13.363
REMARK  Name = 14539800
REMARK  10 active torsions:
REMARK  status: ('A' for Active; 'I' for Inactive)
REMARK    1  A    between atoms: C_3  and  C_26
REMARK    2  A    between atoms: C_6  and  C_10
REMARK    3  A    between atoms: C_14  and  C_15
REMARK    4  A    between atoms: C_15  and  N_16
REMARK    5  A    between atoms: C_15  and  C_20
REMARK    6  A    between atoms: C_20  and  O_22
REMARK    7  A    between atoms: N_25  and  C_28
REMARK    8  A    between atoms: C_28  and  C_31
REMARK    9  A    between atoms: C_28  and  C_34
REMARK   10  A    between atoms: C_34  and  O_36
REMARK                            x       y       z     vdW  Elec       q    Type
REMARK                         _______ _______ _______ _____ _____    ______ ____
ROOT
ATOM      1  O   UNL     1      34.334 -23.700 -16.842  0.00  0.00    -0.273 OA
ATOM      2  N   UNL     1      33.146 -23.519 -14.862  0.00  0.00    -0.272 N 
ATOM      3  C   UNL     1      32.013 -24.336 -15.274  0.00  0.00    +0.152 C 
ATOM      4  C   UNL     1      31.274 -24.654 -13.978  0.00  0.00    +0.031 C 
ATOM      5  C   UNL     1      33.013 -23.095 -13.471  0.00  0.00    +0.094 C 
ATOM      6  C   UNL     1      34.258 -23.328 -15.669  0.00  0.00    +0.244 C 
ATOM      7  C   UNL     1      31.586 -23.452 -13.089  0.00  0.00    +0.024 C 
ENDROOT
BRANCH   6  10
ATOM      8  O   UNL     1      35.525 -24.657 -13.018  0.00  0.00    -0.277 OA
ATOM      9  N   UNL     1      36.471 -23.584 -14.836  0.00  0.00    -0.275 N 
ATOM     10  C   UNL     1      35.405 -22.608 -15.027  0.00  0.00    +0.152 C 
ATOM     11  C   UNL     1      36.003 -21.556 -15.954  0.00  0.00    +0.031 C 
ATOM     12  C   UNL     1      37.025 -22.343 -16.771  0.00  0.00    +0.024 C 
ATOM     13  C   UNL     1      37.569 -23.353 -15.772  0.00  0.00    +0.094 C 
ATOM     14  C   UNL     1      36.472 -24.490 -13.789  0.00  0.00    +0.208 C 
BRANCH  14  15
ATOM     15  C   UNL     1      37.731 -25.306 -13.636  0.00  0.00    +0.040 C 
BRANCH  15  16
ATOM     16  N   UNL     1      38.010 -25.278 -12.229  0.00  0.00    +0.389 N 
ATOM     17  H   UNL     1      37.241 -25.714 -11.721  0.00  0.00    -0.088 HD
ATOM     18  H   UNL     1      38.115 -24.311 -11.921  0.00  0.00    -0.088 HD
ATOM     19  H   UNL     1      38.873 -25.789 -12.043  0.00  0.00    -0.088 HD
ENDBRANCH  15  16
BRANCH  15  20
ATOM     20  C   UNL     1      37.556 -26.711 -14.203  0.00  0.00    +0.099 C 
ATOM     21  C   UNL     1      36.518 -26.745 -15.320  0.00  0.00    +0.030 C 
BRANCH  20  22
ATOM     22  O   UNL     1      38.798 -27.193 -14.714  0.00  0.00    -0.386 OA
ATOM     23  H   UNL     1      39.025 -26.709 -15.524  0.00  0.00    +0.210 HD
ENDBRANCH  20  22
ENDBRANCH  15  20
ENDBRANCH  14  15
ENDBRANCH   6  10
BRANCH   3  26
ATOM     24  O   UNL     1      31.667 -22.923 -17.166  0.00  0.00    -0.273 OA
ATOM     25  N   UNL     1      29.850 -23.460 -15.813  0.00  0.00    -0.295 N 
ATOM     26  C   UNL     1      31.179 -23.502 -16.199  0.00  0.00    +0.241 C 
ATOM     27  H   UNL     1      29.578 -23.968 -15.015  0.00  0.00    +0.150 HD
BRANCH  25  28
ATOM     28  C   UNL     1      28.844 -22.705 -16.525  0.00  0.00    +0.175 C 
BRANCH  28  31
ATOM     29  O   UNL     1      26.597 -22.285 -15.696  0.00  0.00    -0.273 OA
ATOM     30  N   UNL     1      28.381 -21.709 -14.369  0.00  0.00    -0.327 N 
ATOM     31  C   UNL     1      27.811 -22.236 -15.508  0.00  0.00    +0.240 C 
ATOM     32  H   UNL     1      27.808 -21.374 -13.642  0.00  0.00    +0.145 HD
ATOM     33  H   UNL     1      29.360 -21.668 -14.283  0.00  0.00    +0.145 HD
ENDBRANCH  28  31
BRANCH  28  34
ATOM     34  C   UNL     1      28.190 -23.510 -17.657  0.00  0.00    +0.137 C 
ATOM     35  C   UNL     1      27.844 -24.933 -17.235  0.00  0.00    +0.034 C 
BRANCH  34  36
ATOM     36  O   UNL     1      27.000 -22.848 -18.086  0.00  0.00    -0.382 OA
ATOM     37  H   UNL     1      26.230 -23.265 -17.670  0.00  0.00    +0.210 HD
ENDBRANCH  34  36
ENDBRANCH  28  34
ENDBRANCH  25  28
ENDBRANCH   3  26
TORSDOF 10
ENDMDL
MODEL 9
REMARK VINA RESULT:      -6.6      2.388      4.592
REMARK  Name = 14539800
REMARK  10 active torsions:
REMARK  status: ('A' for Active; 'I' for Inactive)
REMARK    1  A    between atoms: C_3  and  C_26
REMARK    2  A    between atoms: C_6  and  C_10
REMARK    3  A    between atoms: C_14  and  C_15
REMARK    4  A    between atoms: C_15  and  N_16
REMARK    5  A    between atoms: C_15  and  C_20
REMARK    6  A    between atoms: C_20  and  O_22
REMARK    7  A    between atoms: N_25  and  C_28
REMARK    8  A    between atoms: C_28  and  C_31
REMARK    9  A    between atoms: C_28  and  C_34
REMARK   10  A    between atoms: C_34  and  O_36
REMARK                            x       y       z     vdW  Elec       q    Type
REMARK                         _______ _______ _______ _____ _____    ______ ____
ROOT
ATOM      1  O   UNL     1      32.673 -11.446 -23.146  0.00  0.00    -0.273 OA
ATOM      2  N   UNL     1      33.169 -12.674 -25.045  0.00  0.00    -0.272 N 
ATOM      3  C   UNL     1      32.655 -13.948 -24.558  0.00  0.00    +0.152 C 
ATOM      4  C   UNL     1      32.547 -14.823 -25.801  0.00  0.00    +0.031 C 
ATOM      5  C   UNL     1      33.630 -12.786 -26.426  0.00  0.00    +0.094 C 
ATOM      6  C   UNL     1      33.066 -11.501 -24.313  0.00  0.00    +0.244 C 
ATOM      7  C   UNL     1      33.645 -14.279 -26.714  0.00  0.00    +0.024 C 
ENDROOT
BRANCH   6  10
ATOM      8  O   UNL     1      31.351  -8.831 -23.739  0.00  0.00    -0.277 OA
ATOM      9  N   UNL     1      33.616  -9.205 -24.027  0.00  0.00    -0.275 N 
ATOM     10  C   UNL     1      33.486 -10.254 -25.031  0.00  0.00    +0.152 C 
ATOM     11  C   UNL     1      34.879 -10.389 -25.634  0.00  0.00    +0.031 C 
ATOM     12  C   UNL     1      35.803  -9.976 -24.490  0.00  0.00    +0.024 C 
ATOM     13  C   UNL     1      35.020  -8.878 -23.787  0.00  0.00    +0.094 C 
ATOM     14  C   UNL     1      32.523  -8.525 -23.514  0.00  0.00    +0.208 C 
BRANCH  14  15
ATOM     15  C   UNL     1      32.847  -7.354 -22.621  0.00  0.00    +0.040 C 
BRANCH  15  16
ATOM     16  N   UNL     1      31.859  -6.367 -22.949  0.00  0.00    +0.389 N 
ATOM     17  H   UNL     1      32.317  -5.541 -23.330  0.00  0.00    -0.088 HD
ATOM     18  H   UNL     1      31.341  -6.112 -22.108  0.00  0.00    -0.088 HD
ATOM     19  H   UNL     1      31.213  -6.749 -23.641  0.00  0.00    -0.088 HD
ENDBRANCH  15  16
BRANCH  15  20
ATOM     20  C   UNL     1      32.850  -7.760 -21.151  0.00  0.00    +0.099 C 
ATOM     21  C   UNL     1      32.073  -6.770 -20.289  0.00  0.00    +0.030 C 
BRANCH  20  22
ATOM     22  O   UNL     1      32.274  -9.056 -20.997  0.00  0.00    -0.386 OA
ATOM     23  H   UNL     1      32.968  -9.693 -20.762  0.00  0.00    +0.210 HD
ENDBRANCH  20  22
ENDBRANCH  15  20
ENDBRANCH  14  15
ENDBRANCH   6  10
BRANCH   3  26
ATOM     24  O   UNL     1      34.755 -13.956 -23.423  0.00  0.00    -0.273 OA
ATOM     25  N   UNL     1      33.206 -15.625 -22.940  0.00  0.00    -0.295 N 
ATOM     26  C   UNL     1      33.659 -14.486 -23.583  0.00  0.00    +0.241 C 
ATOM     27  H   UNL     1      32.304 -15.957 -23.154  0.00  0.00    +0.150 HD
BRANCH  25  28
ATOM     28  C   UNL     1      33.994 -16.350 -21.969  0.00  0.00    +0.175 C 
BRANCH  28  31
ATOM     29  O   UNL     1      35.139 -15.165 -20.181  0.00  0.00    -0.273 OA
ATOM     30  N   UNL     1      32.842 -15.165 -20.202  0.00  0.00    -0.327 N 
ATOM     31  C   UNL     1      34.080 -15.495 -20.712  0.00  0.00    +0.240 C 
ATOM     32  H   UNL     1      32.775 -14.613 -19.389  0.00  0.00    +0.145 HD
ATOM     33  H   UNL     1      32.025 -15.480 -20.652  0.00  0.00    +0.145 HD
ENDBRANCH  28  31
BRANCH  28  34
ATOM     34  C   UNL     1      35.389 -16.717 -22.493  0.00  0.00    +0.137 C 
ATOM     35  C   UNL     1      35.889 -18.046 -21.939  0.00  0.00    +0.034 C 
BRANCH  34  36
ATOM     36  O   UNL     1      35.361 -16.787 -23.918  0.00  0.00    -0.382 OA
ATOM     37  H   UNL     1      35.204 -15.903 -24.283  0.00  0.00    +0.210 HD
ENDBRANCH  34  36
ENDBRANCH  28  34
ENDBRANCH  25  28
ENDBRANCH   3  26
TORSDOF 10
ENDMDL
