MODEL 1
REMARK VINA RESULT:      -6.6      0.000      0.000
REMARK  Name = 1755
REMARK  11 active torsions:
REMARK  status: ('A' for Active; 'I' for Inactive)
REMARK    1  A    between atoms: C_1  and  C_3
REMARK    2  A    between atoms: C_1  and  C_10
REMARK    3  A    between atoms: C_3  and  C_4
REMARK    4  A    between atoms: C_4  and  C_5
REMARK    5  A    between atoms: C_5  and  C_7
REMARK    6  A    between atoms: C_7  and  O_8
REMARK    7  A    between atoms: C_10  and  C_11
REMARK    8  A    between atoms: C_11  and  C_12
REMARK    9  A    between atoms: C_12  and  C_13
REMARK   10  A    between atoms: C_13  and  C_15
REMARK   11  A    between atoms: C_15  and  O_16
REMARK                            x       y       z     vdW  Elec       q    Type
REMARK                         _______ _______ _______ _____ _____    ______ ____
ROOT
ATOM      1  C   UNL     1      35.725 -25.468 -15.031  0.00  0.00    +0.065 C 
ENDROOT
BRANCH   1   3
ATOM      2  O   UNL     1      36.983 -27.239 -16.081  0.00  0.00    -0.296 OA
ATOM      3  C   UNL     1      36.868 -26.467 -15.131  0.00  0.00    +0.151 C 
BRANCH   3   4
ATOM      4  C   UNL     1      37.880 -26.420 -13.993  0.00  0.00    +0.076 C 
BRANCH   4   5
ATOM      5  C   UNL     1      38.987 -25.392 -14.209  0.00  0.00    +0.117 C 
BRANCH   5   7
ATOM      6  O   UNL     1      41.131 -26.547 -14.105  0.00  0.00    -0.250 OA
ATOM      7  C   UNL     1      40.253 -26.007 -14.764  0.00  0.00    +0.314 C 
BRANCH   7   8
ATOM      8  O   UNL     1      40.306 -25.895 -16.117  0.00  0.00    -0.480 OA
ATOM      9  H   UNL     1      39.998 -26.595 -16.658  0.00  0.00    +0.295 HD
ENDBRANCH   7   8
ENDBRANCH   5   7
ENDBRANCH   4   5
ENDBRANCH   3   4
ENDBRANCH   1   3
BRANCH   1  10
ATOM     10  C   UNL     1      36.044 -24.106 -15.644  0.00  0.00    +0.008 C 
BRANCH  10  11
ATOM     11  C   UNL     1      36.155 -23.002 -14.587  0.00  0.00    +0.001 C 
BRANCH  11  12
ATOM     12  C   UNL     1      35.448 -23.405 -13.289  0.00  0.00    +0.012 C 
BRANCH  12  13
ATOM     13  C   UNL     1      36.387 -23.386 -12.083  0.00  0.00    +0.109 C 
BRANCH  13  15
ATOM     14  O   UNL     1      36.230 -24.128  -9.764  0.00  0.00    -0.250 OA
ATOM     15  C   UNL     1      35.893 -24.232 -10.934  0.00  0.00    +0.314 C 
BRANCH  15  16
ATOM     16  O   UNL     1      35.022 -25.170 -11.387  0.00  0.00    -0.480 OA
ATOM     17  H   UNL     1      34.190 -24.910 -11.731  0.00  0.00    +0.295 HD
ENDBRANCH  15  16
ENDBRANCH  13  15
ENDBRANCH  12  13
ENDBRANCH  11  12
ENDBRANCH  10  11
ENDBRANCH   1  10
TORSDOF 11
ENDMDL
MODEL 2
REMARK VINA RESULT:      -6.4      9.502     11.224
REMARK  Name = 1755
REMARK  11 active torsions:
REMARK  status: ('A' for Active; 'I' for Inactive)
REMARK    1  A    between atoms: C_1  and  C_3
REMARK    2  A    between atoms: C_1  and  C_10
REMARK    3  A    between atoms: C_3  and  C_4
REMARK    4  A    between atoms: C_4  and  C_5
REMARK    5  A    between atoms: C_5  and  C_7
REMARK    6  A    between atoms: C_7  and  O_8
REMARK    7  A    between atoms: C_10  and  C_11
REMARK    8  A    between atoms: C_11  and  C_12
REMARK    9  A    between atoms: C_12  and  C_13
REMARK   10  A    between atoms: C_13  and  C_15
REMARK   11  A    between atoms: C_15  and  O_16
REMARK                            x       y       z     vdW  Elec       q    Type
REMARK                         _______ _______ _______ _____ _____    ______ ____
ROOT
ATOM      1  C   UNL     1      35.743 -18.373 -21.889  0.00  0.00    +0.065 C 
ENDROOT
BRANCH   1   3
ATOM      2  O   UNL     1      35.166 -16.533 -20.439  0.00  0.00    -0.296 OA
ATOM      3  C   UNL     1      35.078 -17.046 -21.553  0.00  0.00    +0.151 C 
BRANCH   3   4
ATOM      4  C   UNL     1      34.329 -16.380 -22.700  0.00  0.00    +0.076 C 
BRANCH   4   5
ATOM      5  C   UNL     1      35.161 -16.250 -23.973  0.00  0.00    +0.117 C 
BRANCH   5   7
ATOM      6  O   UNL     1      34.334 -18.096 -25.332  0.00  0.00    -0.250 OA
ATOM      7  C   UNL     1      34.498 -16.895 -25.171  0.00  0.00    +0.314 C 
BRANCH   7   8
ATOM      8  O   UNL     1      34.087 -15.963 -26.070  0.00  0.00    -0.480 OA
ATOM      9  H   UNL     1      33.200 -15.959 -26.369  0.00  0.00    +0.295 HD
ENDBRANCH   7   8
ENDBRANCH   5   7
ENDBRANCH   4   5
ENDBRANCH   3   4
ENDBRANCH   1   3
BRANCH   1  10
ATOM     10  C   UNL     1      35.174 -19.560 -21.115  0.00  0.00    +0.008 C 
BRANCH  10  11
ATOM     11  C   UNL     1      33.641 -19.590 -21.137  0.00  0.00    +0.001 C 
BRANCH  11  12
ATOM     12  C   UNL     1      33.090 -20.541 -20.071  0.00  0.00    +0.012 C 
BRANCH  12  13
ATOM     13  C   UNL     1      34.127 -21.565 -19.609  0.00  0.00    +0.109 C 
BRANCH  13  15
ATOM     14  O   UNL     1      32.479 -22.634 -18.163  0.00  0.00    -0.250 OA
ATOM     15  C   UNL     1      33.644 -22.422 -18.465  0.00  0.00    +0.314 C 
BRANCH  15  16
ATOM     16  O   UNL     1      34.703 -22.920 -17.775  0.00  0.00    -0.480 OA
ATOM     17  H   UNL     1      35.056 -22.442 -17.050  0.00  0.00    +0.295 HD
ENDBRANCH  15  16
ENDBRANCH  13  15
ENDBRANCH  12  13
ENDBRANCH  11  12
ENDBRANCH  10  11
ENDBRANCH   1  10
TORSDOF 11
ENDMDL
MODEL 3
REMARK VINA RESULT:      -6.3      9.876     11.922
REMARK  Name = 1755
REMARK  11 active torsions:
REMARK  status: ('A' for Active; 'I' for Inactive)
REMARK    1  A    between atoms: C_1  and  C_3
REMARK    2  A    between atoms: C_1  and  C_10
REMARK    3  A    between atoms: C_3  and  C_4
REMARK    4  A    between atoms: C_4  and  C_5
REMARK    5  A    between atoms: C_5  and  C_7
REMARK    6  A    between atoms: C_7  and  O_8
REMARK    7  A    between atoms: C_10  and  C_11
REMARK    8  A    between atoms: C_11  and  C_12
REMARK    9  A    between atoms: C_12  and  C_13
REMARK   10  A    between atoms: C_13  and  C_15
REMARK   11  A    between atoms: C_15  and  O_16
REMARK                            x       y       z     vdW  Elec       q    Type
REMARK                         _______ _______ _______ _____ _____    ______ ____
ROOT
ATOM      1  C   UNL     1      35.095 -18.201 -21.545  0.00  0.00    +0.065 C 
ENDROOT
BRANCH   1   3
ATOM      2  O   UNL     1      36.641 -19.530 -20.253  0.00  0.00    -0.296 OA
ATOM      3  C   UNL     1      35.510 -19.411 -20.720  0.00  0.00    +0.151 C 
BRANCH   3   4
ATOM      4  C   UNL     1      34.417 -20.446 -20.480  0.00  0.00    +0.076 C 
BRANCH   4   5
ATOM      5  C   UNL     1      34.804 -21.510 -19.457  0.00  0.00    +0.117 C 
BRANCH   5   7
ATOM      6  O   UNL     1      32.581 -22.152 -18.693  0.00  0.00    -0.250 OA
ATOM      7  C   UNL     1      33.670 -22.465 -19.152  0.00  0.00    +0.314 C 
BRANCH   7   8
ATOM      8  O   UNL     1      34.004 -23.745 -19.461  0.00  0.00    -0.480 OA
ATOM      9  H   UNL     1      33.419 -24.445 -19.253  0.00  0.00    +0.295 HD
ENDBRANCH   7   8
ENDBRANCH   5   7
ENDBRANCH   4   5
ENDBRANCH   3   4
ENDBRANCH   1   3
BRANCH   1  10
ATOM     10  C   UNL     1      35.640 -18.214 -22.972  0.00  0.00    +0.008 C 
BRANCH  10  11
ATOM     11  C   UNL     1      34.806 -19.097 -23.906  0.00  0.00    +0.001 C 
BRANCH  11  12
ATOM     12  C   UNL     1      34.248 -18.288 -25.082  0.00  0.00    +0.012 C 
BRANCH  12  13
ATOM     13  C   UNL     1      34.854 -16.887 -25.166  0.00  0.00    +0.109 C 
BRANCH  13  15
ATOM     14  O   UNL     1      33.384 -15.105 -24.384  0.00  0.00    -0.250 OA
ATOM     15  C   UNL     1      33.815 -15.800 -25.292  0.00  0.00    +0.314 C 
BRANCH  15  16
ATOM     16  O   UNL     1      33.387 -15.709 -26.577  0.00  0.00    -0.480 OA
ATOM     17  H   UNL     1      32.971 -14.925 -26.879  0.00  0.00    +0.295 HD
ENDBRANCH  15  16
ENDBRANCH  13  15
ENDBRANCH  12  13
ENDBRANCH  11  12
ENDBRANCH  10  11
ENDBRANCH   1  10
TORSDOF 11
ENDMDL
MODEL 4
REMARK VINA RESULT:      -6.3      1.439      5.078
REMARK  Name = 1755
REMARK  11 active torsions:
REMARK  status: ('A' for Active; 'I' for Inactive)
REMARK    1  A    between atoms: C_1  and  C_3
REMARK    2  A    between atoms: C_1  and  C_10
REMARK    3  A    between atoms: C_3  and  C_4
REMARK    4  A    between atoms: C_4  and  C_5
REMARK    5  A    between atoms: C_5  and  C_7
REMARK    6  A    between atoms: C_7  and  O_8
REMARK    7  A    between atoms: C_10  and  C_11
REMARK    8  A    between atoms: C_11  and  C_12
REMARK    9  A    between atoms: C_12  and  C_13
REMARK   10  A    between atoms: C_13  and  C_15
REMARK   11  A    between atoms: C_15  and  O_16
REMARK                            x       y       z     vdW  Elec       q    Type
REMARK                         _______ _______ _______ _____ _____    ______ ____
ROOT
ATOM      1  C   UNL     1      35.453 -25.323 -15.007  0.00  0.00    +0.065 C 
ENDROOT
BRANCH   1   3
ATOM      2  O   UNL     1      34.139 -23.303 -15.144  0.00  0.00    -0.296 OA
ATOM      3  C   UNL     1      35.063 -23.908 -14.603  0.00  0.00    +0.151 C 
BRANCH   3   4
ATOM      4  C   UNL     1      35.869 -23.308 -13.458  0.00  0.00    +0.076 C 
BRANCH   4   5
ATOM      5  C   UNL     1      35.458 -23.834 -12.086  0.00  0.00    +0.117 C 
BRANCH   5   7
ATOM      6  O   UNL     1      37.497 -22.869 -11.165  0.00  0.00    -0.250 OA
ATOM      7  C   UNL     1      36.493 -23.550 -11.019  0.00  0.00    +0.314 C 
BRANCH   7   8
ATOM      8  O   UNL     1      36.168 -24.148  -9.842  0.00  0.00    -0.480 OA
ATOM      9  H   UNL     1      35.753 -23.653  -9.164  0.00  0.00    +0.295 HD
ENDBRANCH   7   8
ENDBRANCH   5   7
ENDBRANCH   4   5
ENDBRANCH   3   4
ENDBRANCH   1   3
BRANCH   1  10
ATOM     10  C   UNL     1      36.962 -25.545 -15.088  0.00  0.00    +0.008 C 
BRANCH  10  11
ATOM     11  C   UNL     1      37.463 -26.533 -14.029  0.00  0.00    +0.001 C 
BRANCH  11  12
ATOM     12  C   UNL     1      38.489 -25.876 -13.099  0.00  0.00    +0.012 C 
BRANCH  12  13
ATOM     13  C   UNL     1      39.576 -25.126 -13.868  0.00  0.00    +0.109 C 
BRANCH  13  15
ATOM     14  O   UNL     1      41.318 -26.820 -14.079  0.00  0.00    -0.250 OA
ATOM     15  C   UNL     1      40.528 -26.044 -14.595  0.00  0.00    +0.314 C 
BRANCH  15  16
ATOM     16  O   UNL     1      40.409 -25.871 -15.937  0.00  0.00    -0.480 OA
ATOM     17  H   UNL     1      40.989 -25.289 -16.387  0.00  0.00    +0.295 HD
ENDBRANCH  15  16
ENDBRANCH  13  15
ENDBRANCH  12  13
ENDBRANCH  11  12
ENDBRANCH  10  11
ENDBRANCH   1  10
TORSDOF 11
ENDMDL
MODEL 5
REMARK VINA RESULT:      -6.3      7.843      9.499
REMARK  Name = 1755
REMARK  11 active torsions:
REMARK  status: ('A' for Active; 'I' for Inactive)
REMARK    1  A    between atoms: C_1  and  C_3
REMARK    2  A    between atoms: C_1  and  C_10
REMARK    3  A    between atoms: C_3  and  C_4
REMARK    4  A    between atoms: C_4  and  C_5
REMARK    5  A    between atoms: C_5  and  C_7
REMARK    6  A    between atoms: C_7  and  O_8
REMARK    7  A    between atoms: C_10  and  C_11
REMARK    8  A    between atoms: C_11  and  C_12
REMARK    9  A    between atoms: C_12  and  C_13
REMARK   10  A    between atoms: C_13  and  C_15
REMARK   11  A    between atoms: C_15  and  O_16
REMARK                            x       y       z     vdW  Elec       q    Type
REMARK                         _______ _______ _______ _____ _____    ______ ____
ROOT
ATOM      1  C   UNL     1      35.812 -20.262 -20.461  0.00  0.00    +0.065 C 
ENDROOT
BRANCH   1   3
ATOM      2  O   UNL     1      35.661 -17.876 -20.785  0.00  0.00    -0.296 OA
ATOM      3  C   UNL     1      35.315 -18.999 -21.149  0.00  0.00    +0.151 C 
BRANCH   3   4
ATOM      4  C   UNL     1      34.392 -19.221 -22.340  0.00  0.00    +0.076 C 
BRANCH   4   5
ATOM      5  C   UNL     1      35.112 -19.159 -23.685  0.00  0.00    +0.117 C 
BRANCH   5   7
ATOM      6  O   UNL     1      34.267 -17.685 -25.432  0.00  0.00    -0.250 OA
ATOM      7  C   UNL     1      34.902 -17.842 -24.399  0.00  0.00    +0.314 C 
BRANCH   7   8
ATOM      8  O   UNL     1      35.509 -16.819 -23.740  0.00  0.00    -0.480 OA
ATOM      9  H   UNL     1      36.435 -16.833 -23.605  0.00  0.00    +0.295 HD
ENDBRANCH   7   8
ENDBRANCH   5   7
ENDBRANCH   4   5
ENDBRANCH   3   4
ENDBRANCH   1   3
BRANCH   1  10
ATOM     10  C   UNL     1      34.697 -21.108 -19.849  0.00  0.00    +0.008 C 
BRANCH  10  11
ATOM     11  C   UNL     1      35.187 -21.949 -18.665  0.00  0.00    +0.001 C 
BRANCH  11  12
ATOM     12  C   UNL     1      36.656 -21.656 -18.347  0.00  0.00    +0.012 C 
BRANCH  12  13
ATOM     13  C   UNL     1      36.921 -21.558 -16.845  0.00  0.00    +0.109 C 
BRANCH  13  15
ATOM     14  O   UNL     1      36.188 -23.660 -15.849  0.00  0.00    -0.250 OA
ATOM     15  C   UNL     1      37.088 -22.904 -16.184  0.00  0.00    +0.314 C 
BRANCH  15  16
ATOM     16  O   UNL     1      38.404 -23.163 -15.977  0.00  0.00    -0.480 OA
ATOM     17  H   UNL     1      39.045 -22.503 -16.156  0.00  0.00    +0.295 HD
ENDBRANCH  15  16
ENDBRANCH  13  15
ENDBRANCH  12  13
ENDBRANCH  11  12
ENDBRANCH  10  11
ENDBRANCH   1  10
TORSDOF 11
ENDMDL
MODEL 6
REMARK VINA RESULT:      -6.2      5.344      6.184
REMARK  Name = 1755
REMARK  11 active torsions:
REMARK  status: ('A' for Active; 'I' for Inactive)
REMARK    1  A    between atoms: C_1  and  C_3
REMARK    2  A    between atoms: C_1  and  C_10
REMARK    3  A    between atoms: C_3  and  C_4
REMARK    4  A    between atoms: C_4  and  C_5
REMARK    5  A    between atoms: C_5  and  C_7
REMARK    6  A    between atoms: C_7  and  O_8
REMARK    7  A    between atoms: C_10  and  C_11
REMARK    8  A    between atoms: C_11  and  C_12
REMARK    9  A    between atoms: C_12  and  C_13
REMARK   10  A    between atoms: C_13  and  C_15
REMARK   11  A    between atoms: C_15  and  O_16
REMARK                            x       y       z     vdW  Elec       q    Type
REMARK                         _______ _______ _______ _____ _____    ______ ____
ROOT
ATOM      1  C   UNL     1      33.242 -23.489 -15.402  0.00  0.00    +0.065 C 
ENDROOT
BRANCH   1   3
ATOM      2  O   UNL     1      35.323 -23.270 -16.605  0.00  0.00    -0.296 OA
ATOM      3  C   UNL     1      34.700 -23.814 -15.695  0.00  0.00    +0.151 C 
BRANCH   3   4
ATOM      4  C   UNL     1      35.345 -24.829 -14.760  0.00  0.00    +0.076 C 
BRANCH   4   5
ATOM      5  C   UNL     1      36.828 -25.056 -15.042  0.00  0.00    +0.117 C 
BRANCH   5   7
ATOM      6  O   UNL     1      37.810 -27.119 -14.193  0.00  0.00    -0.250 OA
ATOM      7  C   UNL     1      37.198 -26.524 -15.068  0.00  0.00    +0.314 C 
BRANCH   7   8
ATOM      8  O   UNL     1      36.754 -27.125 -16.203  0.00  0.00    -0.480 OA
ATOM      9  H   UNL     1      36.370 -27.978 -16.162  0.00  0.00    +0.295 HD
ENDBRANCH   7   8
ENDBRANCH   5   7
ENDBRANCH   4   5
ENDBRANCH   3   4
ENDBRANCH   1   3
BRANCH   1  10
ATOM     10  C   UNL     1      32.383 -23.339 -16.656  0.00  0.00    +0.008 C 
BRANCH  10  11
ATOM     11  C   UNL     1      30.975 -22.822 -16.339  0.00  0.00    +0.001 C 
BRANCH  11  12
ATOM     12  C   UNL     1      30.045 -23.967 -15.924  0.00  0.00    +0.012 C 
BRANCH  12  13
ATOM     13  C   UNL     1      28.621 -23.489 -15.640  0.00  0.00    +0.109 C 
BRANCH  13  15
ATOM     14  O   UNL     1      27.712 -21.690 -17.014  0.00  0.00    -0.250 OA
ATOM     15  C   UNL     1      27.951 -22.876 -16.846  0.00  0.00    +0.314 C 
BRANCH  15  16
ATOM     16  O   UNL     1      27.611 -23.846 -17.734  0.00  0.00    -0.480 OA
ATOM     17  H   UNL     1      28.077 -23.922 -18.544  0.00  0.00    +0.295 HD
ENDBRANCH  15  16
ENDBRANCH  13  15
ENDBRANCH  12  13
ENDBRANCH  11  12
ENDBRANCH  10  11
ENDBRANCH   1  10
TORSDOF 11
ENDMDL
MODEL 7
REMARK VINA RESULT:      -6.2      8.346     10.217
REMARK  Name = 1755
REMARK  11 active torsions:
REMARK  status: ('A' for Active; 'I' for Inactive)
REMARK    1  A    between atoms: C_1  and  C_3
REMARK    2  A    between atoms: C_1  and  C_10
REMARK    3  A    between atoms: C_3  and  C_4
REMARK    4  A    between atoms: C_4  and  C_5
REMARK    5  A    between atoms: C_5  and  C_7
REMARK    6  A    between atoms: C_7  and  O_8
REMARK    7  A    between atoms: C_10  and  C_11
REMARK    8  A    between atoms: C_11  and  C_12
REMARK    9  A    between atoms: C_12  and  C_13
REMARK   10  A    between atoms: C_13  and  C_15
REMARK   11  A    between atoms: C_15  and  O_16
REMARK                            x       y       z     vdW  Elec       q    Type
REMARK                         _______ _______ _______ _____ _____    ______ ____
ROOT
ATOM      1  C   UNL     1      34.466 -20.292 -20.555  0.00  0.00    +0.065 C 
ENDROOT
BRANCH   1   3
ATOM      2  O   UNL     1      32.606 -21.123 -19.262  0.00  0.00    -0.296 OA
ATOM      3  C   UNL     1      33.807 -21.189 -19.518  0.00  0.00    +0.151 C 
BRANCH   3   4
ATOM      4  C   UNL     1      34.728 -22.199 -18.846  0.00  0.00    +0.076 C 
BRANCH   4   5
ATOM      5  C   UNL     1      36.164 -21.705 -18.696  0.00  0.00    +0.117 C 
BRANCH   5   7
ATOM      6  O   UNL     1      36.552 -22.858 -16.584  0.00  0.00    -0.250 OA
ATOM      7  C   UNL     1      36.692 -21.867 -17.287  0.00  0.00    +0.314 C 
BRANCH   7   8
ATOM      8  O   UNL     1      37.365 -20.758 -16.880  0.00  0.00    -0.480 OA
ATOM      9  H   UNL     1      37.229 -19.941 -17.316  0.00  0.00    +0.295 HD
ENDBRANCH   7   8
ENDBRANCH   5   7
ENDBRANCH   4   5
ENDBRANCH   3   4
ENDBRANCH   1   3
BRANCH   1  10
ATOM     10  C   UNL     1      33.542 -19.206 -21.105  0.00  0.00    +0.008 C 
BRANCH  10  11
ATOM     11  C   UNL     1      34.292 -17.908 -21.421  0.00  0.00    +0.001 C 
BRANCH  11  12
ATOM     12  C   UNL     1      35.560 -18.184 -22.235  0.00  0.00    +0.012 C 
BRANCH  12  13
ATOM     13  C   UNL     1      35.259 -18.467 -23.707  0.00  0.00    +0.109 C 
BRANCH  13  15
ATOM     14  O   UNL     1      34.240 -17.152 -25.490  0.00  0.00    -0.250 OA
ATOM     15  C   UNL     1      34.952 -17.220 -24.499  0.00  0.00    +0.314 C 
BRANCH  15  16
ATOM     16  O   UNL     1      35.610 -16.157 -23.970  0.00  0.00    -0.480 OA
ATOM     17  H   UNL     1      35.130 -15.478 -23.536  0.00  0.00    +0.295 HD
ENDBRANCH  15  16
ENDBRANCH  13  15
ENDBRANCH  12  13
ENDBRANCH  11  12
ENDBRANCH  10  11
ENDBRANCH   1  10
TORSDOF 11
ENDMDL
MODEL 8
REMARK VINA RESULT:      -6.2     10.260     12.280
REMARK  Name = 1755
REMARK  11 active torsions:
REMARK  status: ('A' for Active; 'I' for Inactive)
REMARK    1  A    between atoms: C_1  and  C_3
REMARK    2  A    between atoms: C_1  and  C_10
REMARK    3  A    between atoms: C_3  and  C_4
REMARK    4  A    between atoms: C_4  and  C_5
REMARK    5  A    between atoms: C_5  and  C_7
REMARK    6  A    between atoms: C_7  and  O_8
REMARK    7  A    between atoms: C_10  and  C_11
REMARK    8  A    between atoms: C_11  and  C_12
REMARK    9  A    between atoms: C_12  and  C_13
REMARK   10  A    between atoms: C_13  and  C_15
REMARK   11  A    between atoms: C_15  and  O_16
REMARK                            x       y       z     vdW  Elec       q    Type
REMARK                         _______ _______ _______ _____ _____    ______ ____
ROOT
ATOM      1  C   UNL     1      35.381 -17.789 -21.619  0.00  0.00    +0.065 C 
ENDROOT
BRANCH   1   3
ATOM      2  O   UNL     1      34.637 -19.388 -23.266  0.00  0.00    -0.296 OA
ATOM      3  C   UNL     1      34.601 -19.005 -22.098  0.00  0.00    +0.151 C 
BRANCH   3   4
ATOM      4  C   UNL     1      33.805 -19.737 -21.025  0.00  0.00    +0.076 C 
BRANCH   4   5
ATOM      5  C   UNL     1      34.663 -20.645 -20.147  0.00  0.00    +0.117 C 
BRANCH   5   7
ATOM      6  O   UNL     1      32.684 -21.759 -19.261  0.00  0.00    -0.250 OA
ATOM      7  C   UNL     1      33.874 -21.787 -19.545  0.00  0.00    +0.314 C 
BRANCH   7   8
ATOM      8  O   UNL     1      34.655 -22.882 -19.354  0.00  0.00    -0.480 OA
ATOM      9  H   UNL     1      35.548 -22.876 -19.636  0.00  0.00    +0.295 HD
ENDBRANCH   7   8
ENDBRANCH   5   7
ENDBRANCH   4   5
ENDBRANCH   3   4
ENDBRANCH   1   3
BRANCH   1  10
ATOM     10  C   UNL     1      34.506 -16.706 -20.990  0.00  0.00    +0.008 C 
BRANCH  10  11
ATOM     11  C   UNL     1      34.537 -15.397 -21.786  0.00  0.00    +0.001 C 
BRANCH  11  12
ATOM     12  C   UNL     1      34.862 -15.652 -23.261  0.00  0.00    +0.012 C 
BRANCH  12  13
ATOM     13  C   UNL     1      33.679 -15.349 -24.180  0.00  0.00    +0.109 C 
BRANCH  13  15
ATOM     14  O   UNL     1      33.485 -15.458 -26.609  0.00  0.00    -0.250 OA
ATOM     15  C   UNL     1      33.821 -15.967 -25.550  0.00  0.00    +0.314 C 
BRANCH  15  16
ATOM     16  O   UNL     1      34.359 -17.209 -25.449  0.00  0.00    -0.480 OA
ATOM     17  H   UNL     1      34.635 -17.533 -24.614  0.00  0.00    +0.295 HD
ENDBRANCH  15  16
ENDBRANCH  13  15
ENDBRANCH  12  13
ENDBRANCH  11  12
ENDBRANCH  10  11
ENDBRANCH   1  10
TORSDOF 11
ENDMDL
MODEL 9
REMARK VINA RESULT:      -6.2      6.415      7.917
REMARK  Name = 1755
REMARK  11 active torsions:
REMARK  status: ('A' for Active; 'I' for Inactive)
REMARK    1  A    between atoms: C_1  and  C_3
REMARK    2  A    between atoms: C_1  and  C_10
REMARK    3  A    between atoms: C_3  and  C_4
REMARK    4  A    between atoms: C_4  and  C_5
REMARK    5  A    between atoms: C_5  and  C_7
REMARK    6  A    between atoms: C_7  and  O_8
REMARK    7  A    between atoms: C_10  and  C_11
REMARK    8  A    between atoms: C_11  and  C_12
REMARK    9  A    between atoms: C_12  and  C_13
REMARK   10  A    between atoms: C_13  and  C_15
REMARK   11  A    between atoms: C_15  and  O_16
REMARK                            x       y       z     vdW  Elec       q    Type
REMARK                         _______ _______ _______ _____ _____    ______ ____
ROOT
ATOM      1  C   UNL     1      33.427 -23.494 -15.703  0.00  0.00    +0.065 C 
ENDROOT
BRANCH   1   3
ATOM      2  O   UNL     1      35.470 -23.008 -16.890  0.00  0.00    -0.296 OA
ATOM      3  C   UNL     1      34.242 -23.064 -16.914  0.00  0.00    +0.151 C 
BRANCH   3   4
ATOM      4  C   UNL     1      33.436 -22.746 -18.167  0.00  0.00    +0.076 C 
BRANCH   4   5
ATOM      5  C   UNL     1      34.290 -22.232 -19.323  0.00  0.00    +0.117 C 
BRANCH   5   7
ATOM      6  O   UNL     1      32.637 -20.570 -19.990  0.00  0.00    -0.250 OA
ATOM      7  C   UNL     1      33.807 -20.901 -19.857  0.00  0.00    +0.314 C 
BRANCH   7   8
ATOM      8  O   UNL     1      34.848 -20.088 -20.176  0.00  0.00    -0.480 OA
ATOM      9  H   UNL     1      34.910 -19.722 -21.035  0.00  0.00    +0.295 HD
ENDBRANCH   7   8
ENDBRANCH   5   7
ENDBRANCH   4   5
ENDBRANCH   3   4
ENDBRANCH   1   3
BRANCH   1  10
ATOM     10  C   UNL     1      31.918 -23.474 -15.939  0.00  0.00    +0.008 C 
BRANCH  10  11
ATOM     11  C   UNL     1      31.170 -22.677 -14.864  0.00  0.00    +0.001 C 
BRANCH  11  12
ATOM     12  C   UNL     1      29.672 -23.000 -14.877  0.00  0.00    +0.012 C 
BRANCH  12  13
ATOM     13  C   UNL     1      29.289 -23.948 -16.013  0.00  0.00    +0.109 C 
BRANCH  13  15
ATOM     14  O   UNL     1      27.501 -23.941 -17.672  0.00  0.00    -0.250 OA
ATOM     15  C   UNL     1      28.317 -23.337 -16.992  0.00  0.00    +0.314 C 
BRANCH  15  16
ATOM     16  O   UNL     1      28.490 -21.991 -17.043  0.00  0.00    -0.480 OA
ATOM     17  H   UNL     1      28.410 -21.539 -17.861  0.00  0.00    +0.295 HD
ENDBRANCH  15  16
ENDBRANCH  13  15
ENDBRANCH  12  13
ENDBRANCH  11  12
ENDBRANCH  10  11
ENDBRANCH   1  10
TORSDOF 11
ENDMDL
