MODEL 1
REMARK VINA RESULT:     -12.5      0.000      0.000
REMARK  Name = 71166
REMARK  4 active torsions:
REMARK  status: ('A' for Active; 'I' for Inactive)
REMARK    1  A    between atoms: N_2  and  C_10
REMARK    2  A    between atoms: N_3  and  C_24
REMARK    3  A    between atoms: C_12  and  N_18
REMARK    4  A    between atoms: C_26  and  N_32
REMARK                            x       y       z     vdW  Elec       q    Type
REMARK                         _______ _______ _______ _____ _____    ______ ____
ROOT
ATOM      1  O   UNL     1      33.354 -19.541 -20.938  0.00  0.00    -0.252 OA
ATOM      2  N   UNL     1      35.297 -20.760 -20.462  0.00  0.00    -0.268 N 
ATOM      3  N   UNL     1      35.263 -19.326 -22.272  0.00  0.00    -0.268 N 
ATOM      4  C   UNL     1      34.514 -19.840 -21.201  0.00  0.00    +0.308 C 
ATOM      5  H   UNL     1      36.214 -20.902 -20.789  0.00  0.00    +0.156 HD
ATOM      6  H   UNL     1      36.185 -19.663 -22.356  0.00  0.00    +0.156 HD
ENDROOT
BRANCH   2  10
ATOM      7  N   UNL     1      33.843 -23.690 -15.960  0.00  0.00    -0.410 NA
ATOM      8  C   UNL     1      35.511 -22.437 -17.167  0.00  0.00    +0.111 C 
ATOM      9  C   UNL     1      34.215 -22.977 -17.041  0.00  0.00    +0.118 C 
ATOM     10  C   UNL     1      34.941 -21.493 -19.328  0.00  0.00    +0.048 C 
ATOM     11  C   UNL     1      35.866 -21.698 -18.309  0.00  0.00    +0.001 C 
ATOM     12  C   UNL     1      36.423 -22.660 -16.126  0.00  0.00    +0.031 C 
ATOM     13  C   UNL     1      33.310 -22.756 -18.076  0.00  0.00    +0.029 C 
ATOM     14  C   UNL     1      33.661 -22.022 -19.212  0.00  0.00    +0.017 C 
ATOM     15  C   UNL     1      34.752 -23.882 -14.978  0.00  0.00    +0.110 C 
ATOM     16  C   UNL     1      36.043 -23.394 -15.011  0.00  0.00    +0.038 C 
ATOM     17  C   UNL     1      34.300 -24.677 -13.799  0.00  0.00    +0.066 C 
BRANCH  12  18
ATOM     18  N   UNL     1      37.744 -22.154 -16.170  0.00  0.00    -0.360 N 
ATOM     19  H   UNL     1      38.017 -21.556 -16.903  0.00  0.00    +0.142 HD
ATOM     20  H   UNL     1      38.389 -22.400 -15.469  0.00  0.00    +0.142 HD
ENDBRANCH  12  18
ENDBRANCH   2  10
BRANCH   3  24
ATOM     21  N   UNL     1      33.654 -15.661 -26.136  0.00  0.00    -0.410 NA
ATOM     22  C   UNL     1      34.287 -16.125 -23.858  0.00  0.00    +0.111 C 
ATOM     23  C   UNL     1      34.045 -16.532 -25.187  0.00  0.00    +0.118 C 
ATOM     24  C   UNL     1      34.856 -18.387 -23.248  0.00  0.00    +0.048 C 
ATOM     25  C   UNL     1      34.694 -17.061 -22.892  0.00  0.00    +0.001 C 
ATOM     26  C   UNL     1      34.111 -14.772 -23.540  0.00  0.00    +0.031 C 
ATOM     27  C   UNL     1      34.220 -17.877 -25.502  0.00  0.00    +0.029 C 
ATOM     28  C   UNL     1      34.624 -18.808 -24.541  0.00  0.00    +0.017 C 
ATOM     29  C   UNL     1      33.495 -14.364 -25.788  0.00  0.00    +0.110 C 
ATOM     30  C   UNL     1      33.707 -13.873 -24.515  0.00  0.00    +0.038 C 
ATOM     31  C   UNL     1      33.061 -13.434 -26.870  0.00  0.00    +0.066 C 
BRANCH  26  32
ATOM     32  N   UNL     1      34.332 -14.279 -22.232  0.00  0.00    -0.360 N 
ATOM     33  H   UNL     1      34.950 -13.526 -22.087  0.00  0.00    +0.142 HD
ATOM     34  H   UNL     1      33.869 -14.690 -21.466  0.00  0.00    +0.142 HD
ENDBRANCH  26  32
ENDBRANCH   3  24
TORSDOF 4
ENDMDL
MODEL 2
REMARK VINA RESULT:     -12.4      0.007     10.292
REMARK  Name = 71166
REMARK  4 active torsions:
REMARK  status: ('A' for Active; 'I' for Inactive)
REMARK    1  A    between atoms: N_2  and  C_10
REMARK    2  A    between atoms: N_3  and  C_24
REMARK    3  A    between atoms: C_12  and  N_18
REMARK    4  A    between atoms: C_26  and  N_32
REMARK                            x       y       z     vdW  Elec       q    Type
REMARK                         _______ _______ _______ _____ _____    ______ ____
ROOT
ATOM      1  O   UNL     1      33.353 -19.553 -20.929  0.00  0.00    -0.252 OA
ATOM      2  N   UNL     1      35.259 -19.327 -22.273  0.00  0.00    -0.268 N 
ATOM      3  N   UNL     1      35.301 -20.762 -20.464  0.00  0.00    -0.268 N 
ATOM      4  C   UNL     1      34.514 -19.853 -21.189  0.00  0.00    +0.308 C 
ATOM      5  H   UNL     1      36.181 -19.660 -22.360  0.00  0.00    +0.156 HD
ATOM      6  H   UNL     1      36.218 -20.900 -20.795  0.00  0.00    +0.156 HD
ENDROOT
BRANCH   2  10
ATOM      7  N   UNL     1      33.656 -15.659 -26.138  0.00  0.00    -0.410 NA
ATOM      8  C   UNL     1      34.285 -16.125 -23.859  0.00  0.00    +0.111 C 
ATOM      9  C   UNL     1      34.045 -16.531 -25.188  0.00  0.00    +0.118 C 
ATOM     10  C   UNL     1      34.858 -18.400 -23.236  0.00  0.00    +0.048 C 
ATOM     11  C   UNL     1      34.690 -17.062 -22.892  0.00  0.00    +0.001 C 
ATOM     12  C   UNL     1      34.107 -14.772 -23.539  0.00  0.00    +0.031 C 
ATOM     13  C   UNL     1      34.220 -17.876 -25.504  0.00  0.00    +0.029 C 
ATOM     14  C   UNL     1      34.623 -18.807 -24.544  0.00  0.00    +0.017 C 
ATOM     15  C   UNL     1      33.496 -14.363 -25.789  0.00  0.00    +0.110 C 
ATOM     16  C   UNL     1      33.706 -13.871 -24.516  0.00  0.00    +0.038 C 
ATOM     17  C   UNL     1      33.063 -13.430 -26.871  0.00  0.00    +0.066 C 
BRANCH  12  18
ATOM     18  N   UNL     1      34.327 -14.280 -22.231  0.00  0.00    -0.360 N 
ATOM     19  H   UNL     1      33.713 -13.612 -21.847  0.00  0.00    +0.142 HD
ATOM     20  H   UNL     1      35.092 -14.605 -21.705  0.00  0.00    +0.142 HD
ENDBRANCH  12  18
ENDBRANCH   2  10
BRANCH   3  24
ATOM     21  N   UNL     1      33.844 -23.690 -15.964  0.00  0.00    -0.410 NA
ATOM     22  C   UNL     1      35.512 -22.437 -17.168  0.00  0.00    +0.111 C 
ATOM     23  C   UNL     1      34.216 -22.978 -17.044  0.00  0.00    +0.118 C 
ATOM     24  C   UNL     1      34.939 -21.504 -19.315  0.00  0.00    +0.048 C 
ATOM     25  C   UNL     1      35.867 -21.698 -18.309  0.00  0.00    +0.001 C 
ATOM     26  C   UNL     1      36.422 -22.658 -16.125  0.00  0.00    +0.031 C 
ATOM     27  C   UNL     1      33.312 -22.758 -18.080  0.00  0.00    +0.029 C 
ATOM     28  C   UNL     1      33.665 -22.024 -19.216  0.00  0.00    +0.017 C 
ATOM     29  C   UNL     1      34.752 -23.882 -14.980  0.00  0.00    +0.110 C 
ATOM     30  C   UNL     1      36.043 -23.392 -15.012  0.00  0.00    +0.038 C 
ATOM     31  C   UNL     1      34.299 -24.677 -13.802  0.00  0.00    +0.066 C 
BRANCH  26  32
ATOM     32  N   UNL     1      37.743 -22.151 -16.169  0.00  0.00    -0.360 N 
ATOM     33  H   UNL     1      38.371 -22.471 -16.856  0.00  0.00    +0.142 HD
ATOM     34  H   UNL     1      38.034 -21.478 -15.511  0.00  0.00    +0.142 HD
ENDBRANCH  26  32
ENDBRANCH   3  24
TORSDOF 4
ENDMDL
MODEL 3
REMARK VINA RESULT:     -12.1      1.000      1.884
REMARK  Name = 71166
REMARK  4 active torsions:
REMARK  status: ('A' for Active; 'I' for Inactive)
REMARK    1  A    between atoms: N_2  and  C_10
REMARK    2  A    between atoms: N_3  and  C_24
REMARK    3  A    between atoms: C_12  and  N_18
REMARK    4  A    between atoms: C_26  and  N_32
REMARK                            x       y       z     vdW  Elec       q    Type
REMARK                         _______ _______ _______ _____ _____    ______ ____
ROOT
ATOM      1  O   UNL     1      34.142 -19.610 -20.294  0.00  0.00    -0.252 OA
ATOM      2  N   UNL     1      36.072 -20.920 -20.072  0.00  0.00    -0.268 N 
ATOM      3  N   UNL     1      35.766 -19.648 -21.977  0.00  0.00    -0.268 N 
ATOM      4  C   UNL     1      35.212 -20.013 -20.739  0.00  0.00    +0.308 C 
ATOM      5  H   UNL     1      36.899 -21.154 -20.551  0.00  0.00    +0.156 HD
ATOM      6  H   UNL     1      36.635 -20.056 -22.198  0.00  0.00    +0.156 HD
ENDROOT
BRANCH   2  10
ATOM      7  N   UNL     1      35.433 -23.319 -15.093  0.00  0.00    -0.410 NA
ATOM      8  C   UNL     1      34.486 -22.644 -17.204  0.00  0.00    +0.111 C 
ATOM      9  C   UNL     1      35.567 -22.743 -16.303  0.00  0.00    +0.118 C 
ATOM     10  C   UNL     1      35.903 -21.525 -18.826  0.00  0.00    +0.048 C 
ATOM     11  C   UNL     1      34.661 -22.036 -18.459  0.00  0.00    +0.001 C 
ATOM     12  C   UNL     1      33.248 -23.166 -16.808  0.00  0.00    +0.031 C 
ATOM     13  C   UNL     1      36.798 -22.223 -16.697  0.00  0.00    +0.029 C 
ATOM     14  C   UNL     1      36.972 -21.619 -17.944  0.00  0.00    +0.017 C 
ATOM     15  C   UNL     1      34.221 -23.811 -14.750  0.00  0.00    +0.110 C 
ATOM     16  C   UNL     1      33.106 -23.760 -15.563  0.00  0.00    +0.038 C 
ATOM     17  C   UNL     1      34.116 -24.440 -13.401  0.00  0.00    +0.066 C 
BRANCH  12  18
ATOM     18  N   UNL     1      32.111 -23.108 -17.650  0.00  0.00    -0.360 N 
ATOM     19  H   UNL     1      32.206 -22.817 -18.586  0.00  0.00    +0.142 HD
ATOM     20  H   UNL     1      31.226 -23.359 -17.300  0.00  0.00    +0.142 HD
ENDBRANCH  12  18
ENDBRANCH   2  10
BRANCH   3  24
ATOM     21  N   UNL     1      33.647 -16.224 -25.814  0.00  0.00    -0.410 NA
ATOM     22  C   UNL     1      34.490 -16.566 -23.583  0.00  0.00    +0.111 C 
ATOM     23  C   UNL     1      34.161 -17.036 -24.872  0.00  0.00    +0.118 C 
ATOM     24  C   UNL     1      35.229 -18.769 -22.946  0.00  0.00    +0.048 C 
ATOM     25  C   UNL     1      35.025 -17.441 -22.623  0.00  0.00    +0.001 C 
ATOM     26  C   UNL     1      34.267 -15.212 -23.298  0.00  0.00    +0.031 C 
ATOM     27  C   UNL     1      34.383 -18.381 -25.155  0.00  0.00    +0.029 C 
ATOM     28  C   UNL     1      34.915 -19.252 -24.200  0.00  0.00    +0.017 C 
ATOM     29  C   UNL     1      33.446 -14.924 -25.499  0.00  0.00    +0.110 C 
ATOM     30  C   UNL     1      33.736 -14.373 -24.267  0.00  0.00    +0.038 C 
ATOM     31  C   UNL     1      32.874 -14.059 -26.572  0.00  0.00    +0.066 C 
BRANCH  26  32
ATOM     32  N   UNL     1      34.568 -14.658 -22.031  0.00  0.00    -0.360 N 
ATOM     33  H   UNL     1      33.868 -14.596 -21.341  0.00  0.00    +0.142 HD
ATOM     34  H   UNL     1      35.478 -14.333 -21.839  0.00  0.00    +0.142 HD
ENDBRANCH  26  32
ENDBRANCH   3  24
TORSDOF 4
ENDMDL
MODEL 4
REMARK VINA RESULT:     -12.0      0.973     10.167
REMARK  Name = 71166
REMARK  4 active torsions:
REMARK  status: ('A' for Active; 'I' for Inactive)
REMARK    1  A    between atoms: N_2  and  C_10
REMARK    2  A    between atoms: N_3  and  C_24
REMARK    3  A    between atoms: C_12  and  N_18
REMARK    4  A    between atoms: C_26  and  N_32
REMARK                            x       y       z     vdW  Elec       q    Type
REMARK                         _______ _______ _______ _____ _____    ______ ____
ROOT
ATOM      1  O   UNL     1      34.093 -19.636 -20.357  0.00  0.00    -0.252 OA
ATOM      2  N   UNL     1      35.754 -19.595 -22.009  0.00  0.00    -0.268 N 
ATOM      3  N   UNL     1      36.060 -20.877 -20.112  0.00  0.00    -0.268 N 
ATOM      4  C   UNL     1      35.187 -20.001 -20.776  0.00  0.00    +0.308 C 
ATOM      5  H   UNL     1      36.641 -19.969 -22.215  0.00  0.00    +0.156 HD
ATOM      6  H   UNL     1      36.906 -21.077 -20.575  0.00  0.00    +0.156 HD
ENDROOT
BRANCH   2  10
ATOM      7  N   UNL     1      33.628 -16.198 -25.868  0.00  0.00    -0.410 NA
ATOM      8  C   UNL     1      34.469 -16.525 -23.633  0.00  0.00    +0.111 C 
ATOM      9  C   UNL     1      34.144 -17.003 -24.920  0.00  0.00    +0.118 C 
ATOM     10  C   UNL     1      35.222 -18.735 -22.971  0.00  0.00    +0.048 C 
ATOM     11  C   UNL     1      35.006 -17.394 -22.668  0.00  0.00    +0.001 C 
ATOM     12  C   UNL     1      34.239 -15.171 -23.355  0.00  0.00    +0.031 C 
ATOM     13  C   UNL     1      34.371 -18.349 -25.196  0.00  0.00    +0.029 C 
ATOM     14  C   UNL     1      34.905 -19.213 -24.236  0.00  0.00    +0.017 C 
ATOM     15  C   UNL     1      33.422 -14.898 -25.559  0.00  0.00    +0.110 C 
ATOM     16  C   UNL     1      33.708 -14.339 -24.330  0.00  0.00    +0.038 C 
ATOM     17  C   UNL     1      32.848 -14.040 -26.637  0.00  0.00    +0.066 C 
BRANCH  12  18
ATOM     18  N   UNL     1      34.536 -14.609 -22.091  0.00  0.00    -0.360 N 
ATOM     19  H   UNL     1      33.989 -13.870 -21.740  0.00  0.00    +0.142 HD
ATOM     20  H   UNL     1      35.290 -14.958 -21.562  0.00  0.00    +0.142 HD
ENDBRANCH  12  18
ENDBRANCH   2  10
BRANCH   3  24
ATOM     21  N   UNL     1      35.374 -23.341 -15.172  0.00  0.00    -0.410 NA
ATOM     22  C   UNL     1      34.441 -22.613 -17.270  0.00  0.00    +0.111 C 
ATOM     23  C   UNL     1      35.520 -22.749 -16.372  0.00  0.00    +0.118 C 
ATOM     24  C   UNL     1      35.876 -21.507 -18.859  0.00  0.00    +0.048 C 
ATOM     25  C   UNL     1      34.628 -21.990 -18.515  0.00  0.00    +0.001 C 
ATOM     26  C   UNL     1      33.192 -23.117 -16.882  0.00  0.00    +0.031 C 
ATOM     27  C   UNL     1      36.760 -22.248 -16.758  0.00  0.00    +0.029 C 
ATOM     28  C   UNL     1      36.947 -21.627 -17.996  0.00  0.00    +0.017 C 
ATOM     29  C   UNL     1      34.153 -23.813 -14.835  0.00  0.00    +0.110 C 
ATOM     30  C   UNL     1      33.039 -23.727 -15.646  0.00  0.00    +0.038 C 
ATOM     31  C   UNL     1      34.036 -24.462 -13.496  0.00  0.00    +0.066 C 
BRANCH  26  32
ATOM     32  N   UNL     1      32.057 -23.023 -17.722  0.00  0.00    -0.360 N 
ATOM     33  H   UNL     1      31.358 -22.356 -17.532  0.00  0.00    +0.142 HD
ATOM     34  H   UNL     1      31.966 -23.625 -18.496  0.00  0.00    +0.142 HD
ENDBRANCH  26  32
ENDBRANCH   3  24
TORSDOF 4
ENDMDL
MODEL 5
REMARK VINA RESULT:     -10.9      1.278      2.091
REMARK  Name = 71166
REMARK  4 active torsions:
REMARK  status: ('A' for Active; 'I' for Inactive)
REMARK    1  A    between atoms: N_2  and  C_10
REMARK    2  A    between atoms: N_3  and  C_24
REMARK    3  A    between atoms: C_12  and  N_18
REMARK    4  A    between atoms: C_26  and  N_32
REMARK                            x       y       z     vdW  Elec       q    Type
REMARK                         _______ _______ _______ _____ _____    ______ ____
ROOT
ATOM      1  O   UNL     1      35.177 -18.232 -20.438  0.00  0.00    -0.252 OA
ATOM      2  N   UNL     1      34.863 -20.496 -20.952  0.00  0.00    -0.268 N 
ATOM      3  N   UNL     1      34.489 -18.893 -22.573  0.00  0.00    -0.268 N 
ATOM      4  C   UNL     1      34.874 -19.109 -21.240  0.00  0.00    +0.308 C 
ATOM      5  H   UNL     1      34.600 -21.085 -21.696  0.00  0.00    +0.156 HD
ATOM      6  H   UNL     1      34.275 -19.699 -23.097  0.00  0.00    +0.156 HD
ENDROOT
BRANCH   2  10
ATOM      7  N   UNL     1      36.155 -23.045 -16.179  0.00  0.00    -0.410 NA
ATOM      8  C   UNL     1      34.502 -22.453 -17.829  0.00  0.00    +0.111 C 
ATOM      9  C   UNL     1      35.822 -22.435 -17.332  0.00  0.00    +0.118 C 
ATOM     10  C   UNL     1      35.178 -21.139 -19.755  0.00  0.00    +0.048 C 
ATOM     11  C   UNL     1      34.189 -21.805 -19.037  0.00  0.00    +0.001 C 
ATOM     12  C   UNL     1      33.526 -23.129 -17.086  0.00  0.00    +0.031 C 
ATOM     13  C   UNL     1      36.792 -21.762 -18.071  0.00  0.00    +0.029 C 
ATOM     14  C   UNL     1      36.481 -21.118 -19.272  0.00  0.00    +0.017 C 
ATOM     15  C   UNL     1      35.184 -23.687 -15.491  0.00  0.00    +0.110 C 
ATOM     16  C   UNL     1      33.866 -23.759 -15.897  0.00  0.00    +0.038 C 
ATOM     17  C   UNL     1      35.595 -24.349 -14.218  0.00  0.00    +0.066 C 
BRANCH  12  18
ATOM     18  N   UNL     1      32.178 -23.196 -17.511  0.00  0.00    -0.360 N 
ATOM     19  H   UNL     1      31.553 -22.471 -17.282  0.00  0.00    +0.142 HD
ATOM     20  H   UNL     1      31.865 -23.967 -18.037  0.00  0.00    +0.142 HD
ENDBRANCH  12  18
ENDBRANCH   2  10
BRANCH   3  24
ATOM     21  N   UNL     1      34.022 -14.066 -25.297  0.00  0.00    -0.410 NA
ATOM     22  C   UNL     1      33.839 -15.310 -23.242  0.00  0.00    +0.111 C 
ATOM     23  C   UNL     1      34.130 -15.224 -24.620  0.00  0.00    +0.118 C 
ATOM     24  C   UNL     1      34.369 -17.661 -23.256  0.00  0.00    +0.048 C 
ATOM     25  C   UNL     1      33.962 -16.535 -22.566  0.00  0.00    +0.001 C 
ATOM     26  C   UNL     1      33.429 -14.144 -22.580  0.00  0.00    +0.031 C 
ATOM     27  C   UNL     1      34.536 -16.382 -25.277  0.00  0.00    +0.029 C 
ATOM     28  C   UNL     1      34.658 -17.601 -24.605  0.00  0.00    +0.017 C 
ATOM     29  C   UNL     1      33.622 -12.964 -24.622  0.00  0.00    +0.110 C 
ATOM     30  C   UNL     1      33.316 -12.950 -23.276  0.00  0.00    +0.038 C 
ATOM     31  C   UNL     1      33.516 -11.702 -25.411  0.00  0.00    +0.066 C 
BRANCH  26  32
ATOM     32  N   UNL     1      33.119 -14.142 -21.200  0.00  0.00    -0.360 N 
ATOM     33  H   UNL     1      33.297 -13.341 -20.656  0.00  0.00    +0.142 HD
ATOM     34  H   UNL     1      32.724 -14.942 -20.782  0.00  0.00    +0.142 HD
ENDBRANCH  26  32
ENDBRANCH   3  24
TORSDOF 4
ENDMDL
MODEL 6
REMARK VINA RESULT:     -10.5      3.555      6.120
REMARK  Name = 71166
REMARK  4 active torsions:
REMARK  status: ('A' for Active; 'I' for Inactive)
REMARK    1  A    between atoms: N_2  and  C_10
REMARK    2  A    between atoms: N_3  and  C_24
REMARK    3  A    between atoms: C_12  and  N_18
REMARK    4  A    between atoms: C_26  and  N_32
REMARK                            x       y       z     vdW  Elec       q    Type
REMARK                         _______ _______ _______ _____ _____    ______ ____
ROOT
ATOM      1  O   UNL     1      34.608 -14.344 -21.632  0.00  0.00    -0.252 OA
ATOM      2  N   UNL     1      34.375 -16.111 -23.153  0.00  0.00    -0.268 N 
ATOM      3  N   UNL     1      33.861 -13.958 -23.814  0.00  0.00    -0.268 N 
ATOM      4  C   UNL     1      34.311 -14.755 -22.749  0.00  0.00    +0.308 C 
ATOM      5  H   UNL     1      34.107 -16.294 -24.082  0.00  0.00    +0.156 HD
ATOM      6  H   UNL     1      33.662 -14.433 -24.654  0.00  0.00    +0.156 HD
ENDROOT
BRANCH   2  10
ATOM      7  N   UNL     1      35.983 -20.536 -20.188  0.00  0.00    -0.410 NA
ATOM      8  C   UNL     1      34.207 -19.146 -21.037  0.00  0.00    +0.111 C 
ATOM      9  C   UNL     1      35.573 -19.470 -20.901  0.00  0.00    +0.118 C 
ATOM     10  C   UNL     1      34.769 -17.224 -22.408  0.00  0.00    +0.048 C 
ATOM     11  C   UNL     1      33.814 -18.025 -21.790  0.00  0.00    +0.001 C 
ATOM     12  C   UNL     1      33.268 -19.970 -20.403  0.00  0.00    +0.031 C 
ATOM     13  C   UNL     1      36.507 -18.650 -21.531  0.00  0.00    +0.029 C 
ATOM     14  C   UNL     1      36.117 -17.536 -22.279  0.00  0.00    +0.017 C 
ATOM     15  C   UNL     1      35.045 -21.305 -19.591  0.00  0.00    +0.110 C 
ATOM     16  C   UNL     1      33.687 -21.069 -19.667  0.00  0.00    +0.038 C 
ATOM     17  C   UNL     1      35.541 -22.475 -18.810  0.00  0.00    +0.066 C 
BRANCH  12  18
ATOM     18  N   UNL     1      31.878 -19.717 -20.488  0.00  0.00    -0.360 N 
ATOM     19  H   UNL     1      31.274 -20.404 -20.853  0.00  0.00    +0.142 HD
ATOM     20  H   UNL     1      31.514 -18.855 -20.183  0.00  0.00    +0.142 HD
ENDBRANCH  12  18
ENDBRANCH   2  10
BRANCH   3  24
ATOM     21  N   UNL     1      33.078  -8.452 -23.913  0.00  0.00    -0.410 NA
ATOM     22  C   UNL     1      32.614 -10.591 -22.908  0.00  0.00    +0.111 C 
ATOM     23  C   UNL     1      33.255  -9.785 -23.872  0.00  0.00    +0.118 C 
ATOM     24  C   UNL     1      33.657 -12.559 -23.830  0.00  0.00    +0.048 C 
ATOM     25  C   UNL     1      32.821 -11.981 -22.893  0.00  0.00    +0.001 C 
ATOM     26  C   UNL     1      31.775  -9.965 -21.977  0.00  0.00    +0.031 C 
ATOM     27  C   UNL     1      34.089 -10.409 -24.797  0.00  0.00    +0.029 C 
ATOM     28  C   UNL     1      34.295 -11.791 -24.783  0.00  0.00    +0.017 C 
ATOM     29  C   UNL     1      32.259  -7.886 -22.998  0.00  0.00    +0.110 C 
ATOM     30  C   UNL     1      31.590  -8.591 -22.018  0.00  0.00    +0.038 C 
ATOM     31  C   UNL     1      32.092  -6.406 -23.080  0.00  0.00    +0.066 C 
BRANCH  26  32
ATOM     32  N   UNL     1      31.094 -10.698 -20.977  0.00  0.00    -0.360 N 
ATOM     33  H   UNL     1      30.598 -11.515 -21.216  0.00  0.00    +0.142 HD
ATOM     34  H   UNL     1      31.114 -10.391 -20.041  0.00  0.00    +0.142 HD
ENDBRANCH  26  32
ENDBRANCH   3  24
TORSDOF 4
ENDMDL
MODEL 7
REMARK VINA RESULT:     -10.5      3.532     10.987
REMARK  Name = 71166
REMARK  4 active torsions:
REMARK  status: ('A' for Active; 'I' for Inactive)
REMARK    1  A    between atoms: N_2  and  C_10
REMARK    2  A    between atoms: N_3  and  C_24
REMARK    3  A    between atoms: C_12  and  N_18
REMARK    4  A    between atoms: C_26  and  N_32
REMARK                            x       y       z     vdW  Elec       q    Type
REMARK                         _______ _______ _______ _____ _____    ______ ____
ROOT
ATOM      1  O   UNL     1      34.613 -14.384 -21.635  0.00  0.00    -0.252 OA
ATOM      2  N   UNL     1      33.859 -13.999 -23.820  0.00  0.00    -0.268 N 
ATOM      3  N   UNL     1      34.372 -16.149 -23.150  0.00  0.00    -0.268 N 
ATOM      4  C   UNL     1      34.315 -14.805 -22.748  0.00  0.00    +0.308 C 
ATOM      5  H   UNL     1      33.656 -14.475 -24.656  0.00  0.00    +0.156 HD
ATOM      6  H   UNL     1      34.101 -16.334 -24.079  0.00  0.00    +0.156 HD
ENDROOT
BRANCH   2  10
ATOM      7  N   UNL     1      33.078  -8.492 -23.959  0.00  0.00    -0.410 NA
ATOM      8  C   UNL     1      32.622 -10.623 -22.931  0.00  0.00    +0.111 C 
ATOM      9  C   UNL     1      33.254  -9.826 -23.907  0.00  0.00    +0.118 C 
ATOM     10  C   UNL     1      33.658 -12.618 -23.846  0.00  0.00    +0.048 C 
ATOM     11  C   UNL     1      32.829 -12.013 -22.906  0.00  0.00    +0.001 C 
ATOM     12  C   UNL     1      31.791  -9.989 -21.998  0.00  0.00    +0.031 C 
ATOM     13  C   UNL     1      34.079 -10.457 -24.835  0.00  0.00    +0.029 C 
ATOM     14  C   UNL     1      34.285 -11.839 -24.811  0.00  0.00    +0.017 C 
ATOM     15  C   UNL     1      32.269  -7.918 -23.040  0.00  0.00    +0.110 C 
ATOM     16  C   UNL     1      31.608  -8.614 -22.048  0.00  0.00    +0.038 C 
ATOM     17  C   UNL     1      32.100  -6.438 -23.133  0.00  0.00    +0.066 C 
BRANCH  12  18
ATOM     18  N   UNL     1      31.119 -10.713 -20.985  0.00  0.00    -0.360 N 
ATOM     19  H   UNL     1      31.470 -10.714 -20.065  0.00  0.00    +0.142 HD
ATOM     20  H   UNL     1      30.300 -11.214 -21.199  0.00  0.00    +0.142 HD
ENDBRANCH  12  18
ENDBRANCH   2  10
BRANCH   3  24
ATOM     21  N   UNL     1      35.992 -20.546 -20.152  0.00  0.00    -0.410 NA
ATOM     22  C   UNL     1      34.212 -19.176 -21.023  0.00  0.00    +0.111 C 
ATOM     23  C   UNL     1      35.580 -19.487 -20.874  0.00  0.00    +0.118 C 
ATOM     24  C   UNL     1      34.774 -17.270 -22.387  0.00  0.00    +0.048 C 
ATOM     25  C   UNL     1      33.816 -18.063 -21.784  0.00  0.00    +0.001 C 
ATOM     26  C   UNL     1      33.274 -20.006 -20.395  0.00  0.00    +0.031 C 
ATOM     27  C   UNL     1      36.511 -18.662 -21.499  0.00  0.00    +0.029 C 
ATOM     28  C   UNL     1      36.118 -17.554 -22.255  0.00  0.00    +0.017 C 
ATOM     29  C   UNL     1      35.055 -21.322 -19.561  0.00  0.00    +0.110 C 
ATOM     30  C   UNL     1      33.696 -21.097 -19.650  0.00  0.00    +0.038 C 
ATOM     31  C   UNL     1      35.556 -22.484 -18.771  0.00  0.00    +0.066 C 
BRANCH  26  32
ATOM     32  N   UNL     1      31.883 -19.766 -20.494  0.00  0.00    -0.360 N 
ATOM     33  H   UNL     1      31.402 -19.343 -19.746  0.00  0.00    +0.142 HD
ATOM     34  H   UNL     1      31.395 -20.024 -21.309  0.00  0.00    +0.142 HD
ENDBRANCH  26  32
ENDBRANCH   3  24
TORSDOF 4
ENDMDL
MODEL 8
REMARK VINA RESULT:     -10.1      1.624      2.693
REMARK  Name = 71166
REMARK  4 active torsions:
REMARK  status: ('A' for Active; 'I' for Inactive)
REMARK    1  A    between atoms: N_2  and  C_10
REMARK    2  A    between atoms: N_3  and  C_24
REMARK    3  A    between atoms: C_12  and  N_18
REMARK    4  A    between atoms: C_26  and  N_32
REMARK                            x       y       z     vdW  Elec       q    Type
REMARK                         _______ _______ _______ _____ _____    ______ ____
ROOT
ATOM      1  O   UNL     1      36.527 -19.913 -19.545  0.00  0.00    -0.252 OA
ATOM      2  N   UNL     1      35.109 -21.616 -18.784  0.00  0.00    -0.268 N 
ATOM      3  N   UNL     1      34.492 -20.347 -20.612  0.00  0.00    -0.268 N 
ATOM      4  C   UNL     1      35.485 -20.553 -19.642  0.00  0.00    +0.308 C 
ATOM      5  H   UNL     1      34.244 -22.040 -18.982  0.00  0.00    +0.156 HD
ATOM      6  H   UNL     1      33.709 -20.942 -20.562  0.00  0.00    +0.156 HD
ENDROOT
BRANCH   2  10
ATOM      7  N   UNL     1      37.914 -23.698 -14.453  0.00  0.00    -0.410 NA
ATOM      8  C   UNL     1      35.828 -23.408 -15.624  0.00  0.00    +0.111 C 
ATOM      9  C   UNL     1      37.217 -23.203 -15.494  0.00  0.00    +0.118 C 
ATOM     10  C   UNL     1      35.805 -22.143 -17.695  0.00  0.00    +0.048 C 
ATOM     11  C   UNL     1      35.131 -22.878 -16.724  0.00  0.00    +0.001 C 
ATOM     12  C   UNL     1      35.174 -24.151 -14.631  0.00  0.00    +0.031 C 
ATOM     13  C   UNL     1      37.866 -22.465 -16.481  0.00  0.00    +0.029 C 
ATOM     14  C   UNL     1      37.174 -21.937 -17.574  0.00  0.00    +0.017 C 
ATOM     15  C   UNL     1      37.246 -24.409 -13.516  0.00  0.00    +0.110 C 
ATOM     16  C   UNL     1      35.890 -24.662 -13.557  0.00  0.00    +0.038 C 
ATOM     17  C   UNL     1      38.056 -24.938 -12.380  0.00  0.00    +0.066 C 
BRANCH  12  18
ATOM     18  N   UNL     1      33.783 -24.404 -14.684  0.00  0.00    -0.360 N 
ATOM     19  H   UNL     1      33.437 -25.301 -14.472  0.00  0.00    +0.142 HD
ATOM     20  H   UNL     1      33.161 -23.683 -14.932  0.00  0.00    +0.142 HD
ENDBRANCH  12  18
ENDBRANCH   2  10
BRANCH   3  24
ATOM     21  N   UNL     1      34.433 -16.606 -24.729  0.00  0.00    -0.410 NA
ATOM     22  C   UNL     1      34.047 -17.141 -22.412  0.00  0.00    +0.111 C 
ATOM     23  C   UNL     1      34.441 -17.496 -23.720  0.00  0.00    +0.118 C 
ATOM     24  C   UNL     1      34.475 -19.388 -21.652  0.00  0.00    +0.048 C 
ATOM     25  C   UNL     1      34.068 -18.095 -21.381  0.00  0.00    +0.001 C 
ATOM     26  C   UNL     1      33.641 -15.820 -22.181  0.00  0.00    +0.031 C 
ATOM     27  C   UNL     1      34.845 -18.809 -23.948  0.00  0.00    +0.029 C 
ATOM     28  C   UNL     1      34.864 -19.759 -22.923  0.00  0.00    +0.017 C 
ATOM     29  C   UNL     1      34.034 -15.341 -24.465  0.00  0.00    +0.110 C 
ATOM     30  C   UNL     1      33.631 -14.901 -23.220  0.00  0.00    +0.038 C 
ATOM     31  C   UNL     1      34.040 -14.388 -25.613  0.00  0.00    +0.066 C 
BRANCH  26  32
ATOM     32  N   UNL     1      33.231 -15.380 -20.900  0.00  0.00    -0.360 N 
ATOM     33  H   UNL     1      32.669 -14.576 -20.812  0.00  0.00    +0.142 HD
ATOM     34  H   UNL     1      33.507 -15.878 -20.097  0.00  0.00    +0.142 HD
ENDBRANCH  26  32
ENDBRANCH   3  24
TORSDOF 4
ENDMDL
MODEL 9
REMARK VINA RESULT:     -10.1      1.600     10.550
REMARK  Name = 71166
REMARK  4 active torsions:
REMARK  status: ('A' for Active; 'I' for Inactive)
REMARK    1  A    between atoms: N_2  and  C_10
REMARK    2  A    between atoms: N_3  and  C_24
REMARK    3  A    between atoms: C_12  and  N_18
REMARK    4  A    between atoms: C_26  and  N_32
REMARK                            x       y       z     vdW  Elec       q    Type
REMARK                         _______ _______ _______ _____ _____    ______ ____
ROOT
ATOM      1  O   UNL     1      36.467 -19.818 -19.498  0.00  0.00    -0.252 OA
ATOM      2  N   UNL     1      34.522 -20.349 -20.691  0.00  0.00    -0.268 N 
ATOM      3  N   UNL     1      35.127 -21.627 -18.864  0.00  0.00    -0.268 N 
ATOM      4  C   UNL     1      35.479 -20.527 -19.662  0.00  0.00    +0.308 C 
ATOM      5  H   UNL     1      33.779 -20.994 -20.699  0.00  0.00    +0.156 HD
ATOM      6  H   UNL     1      34.302 -22.100 -19.120  0.00  0.00    +0.156 HD
ENDROOT
BRANCH   2  10
ATOM      7  N   UNL     1      34.410 -16.512 -24.718  0.00  0.00    -0.410 NA
ATOM      8  C   UNL     1      34.027 -17.109 -22.415  0.00  0.00    +0.111 C 
ATOM      9  C   UNL     1      34.430 -17.426 -23.729  0.00  0.00    +0.118 C 
ATOM     10  C   UNL     1      34.492 -19.380 -21.694  0.00  0.00    +0.048 C 
ATOM     11  C   UNL     1      34.061 -18.088 -21.406  0.00  0.00    +0.001 C 
ATOM     12  C   UNL     1      33.598 -15.802 -22.154  0.00  0.00    +0.031 C 
ATOM     13  C   UNL     1      34.856 -18.726 -23.989  0.00  0.00    +0.029 C 
ATOM     14  C   UNL     1      34.890 -19.699 -22.986  0.00  0.00    +0.017 C 
ATOM     15  C   UNL     1      33.989 -15.261 -24.425  0.00  0.00    +0.110 C 
ATOM     16  C   UNL     1      33.576 -14.858 -23.171  0.00  0.00    +0.038 C 
ATOM     17  C   UNL     1      33.981 -14.280 -25.549  0.00  0.00    +0.066 C 
BRANCH  12  18
ATOM     18  N   UNL     1      33.176 -15.399 -20.864  0.00  0.00    -0.360 N 
ATOM     19  H   UNL     1      33.590 -14.616 -20.433  0.00  0.00    +0.142 HD
ATOM     20  H   UNL     1      32.470 -15.902 -20.398  0.00  0.00    +0.142 HD
ENDBRANCH  12  18
ENDBRANCH   2  10
BRANCH   3  24
ATOM     21  N   UNL     1      37.854 -23.629 -14.448  0.00  0.00    -0.410 NA
ATOM     22  C   UNL     1      35.790 -23.366 -15.662  0.00  0.00    +0.111 C 
ATOM     23  C   UNL     1      37.176 -23.154 -15.509  0.00  0.00    +0.118 C 
ATOM     24  C   UNL     1      35.812 -22.142 -17.738  0.00  0.00    +0.048 C 
ATOM     25  C   UNL     1      35.113 -22.855 -16.783  0.00  0.00    +0.001 C 
ATOM     26  C   UNL     1      35.120 -24.094 -14.670  0.00  0.00    +0.031 C 
ATOM     27  C   UNL     1      37.841 -22.430 -16.496  0.00  0.00    +0.029 C 
ATOM     28  C   UNL     1      37.168 -21.921 -17.610  0.00  0.00    +0.017 C 
ATOM     29  C   UNL     1      37.170 -24.327 -13.512  0.00  0.00    +0.110 C 
ATOM     30  C   UNL     1      35.816 -24.584 -13.575  0.00  0.00    +0.038 C 
ATOM     31  C   UNL     1      37.960 -24.835 -12.353  0.00  0.00    +0.066 C 
BRANCH  26  32
ATOM     32  N   UNL     1      33.731 -24.352 -14.745  0.00  0.00    -0.360 N 
ATOM     33  H   UNL     1      33.397 -25.276 -14.680  0.00  0.00    +0.142 HD
ATOM     34  H   UNL     1      33.097 -23.607 -14.863  0.00  0.00    +0.142 HD
ENDBRANCH  26  32
ENDBRANCH   3  24
TORSDOF 4
ENDMDL
