MODEL 1
REMARK VINA RESULT:      -8.1      0.000      0.000
REMARK  Name = 6469
REMARK  4 active torsions:
REMARK  status: ('A' for Active; 'I' for Inactive)
REMARK    1  A    between atoms: C_2  and  C_10
REMARK    2  A    between atoms: C_2  and  C_17
REMARK    3  A    between atoms: C_17  and  O_18
REMARK    4  A    between atoms: O_18  and  C_19
REMARK                            x       y       z     vdW  Elec       q    Type
REMARK                         _______ _______ _______ _____ _____    ______ ____
ROOT
ATOM      1  N   UNL     1      34.169 -21.537 -19.829  0.00  0.00    +0.386 N 
ATOM      2  C   UNL     1      34.691 -18.633 -21.502  0.00  0.00    +0.106 C 
ATOM      3  C   UNL     1      35.874 -18.895 -20.536  0.00  0.00    +0.012 C 
ATOM      4  C   UNL     1      33.638 -19.772 -21.504  0.00  0.00    -0.008 C 
ATOM      5  C   UNL     1      36.328 -20.352 -20.419  0.00  0.00    -0.022 C 
ATOM      6  C   UNL     1      33.306 -20.390 -20.139  0.00  0.00    -0.077 C 
ATOM      7  C   UNL     1      35.519 -21.160 -19.401  0.00  0.00    -0.077 C 
ATOM      8  C   UNL     1      33.544 -22.373 -18.798  0.00  0.00    -0.101 C 
ATOM      9  H   UNL     1      34.272 -22.057 -20.701  0.00  0.00    -0.080 HD
ENDROOT
BRANCH   2  10
ATOM     10  C   UNL     1      34.128 -17.230 -21.195  0.00  0.00    -0.013 C 
ATOM     11  C   UNL     1      32.761 -17.064 -21.003  0.00  0.00    -0.004 C 
ATOM     12  C   UNL     1      34.993 -16.144 -21.113  0.00  0.00    -0.004 C 
ATOM     13  C   UNL     1      32.253 -15.795 -20.724  0.00  0.00    -0.000 C 
ATOM     14  C   UNL     1      34.484 -14.876 -20.835  0.00  0.00    -0.000 C 
ATOM     15  C   UNL     1      33.114 -14.701 -20.641  0.00  0.00    -0.000 C 
ENDBRANCH   2  10
BRANCH   2  17
ATOM     16  O   UNL     1      36.411 -18.556 -23.211  0.00  0.00    -0.250 OA
ATOM     17  C   UNL     1      35.223 -18.620 -22.925  0.00  0.00    +0.320 C 
BRANCH  17  18
ATOM     18  O   UNL     1      34.182 -18.693 -23.802  0.00  0.00    -0.448 OA
BRANCH  18  19
ATOM     19  C   UNL     1      34.396 -18.053 -25.063  0.00  0.00    +0.209 C 
ATOM     20  C   UNL     1      34.160 -16.565 -24.907  0.00  0.00    +0.051 C 
ENDBRANCH  18  19
ENDBRANCH  17  18
ENDBRANCH   2  17
TORSDOF 4
ENDMDL
MODEL 2
REMARK VINA RESULT:      -7.6      8.119     11.243
REMARK  Name = 6469
REMARK  4 active torsions:
REMARK  status: ('A' for Active; 'I' for Inactive)
REMARK    1  A    between atoms: C_2  and  C_10
REMARK    2  A    between atoms: C_2  and  C_17
REMARK    3  A    between atoms: C_17  and  O_18
REMARK    4  A    between atoms: O_18  and  C_19
REMARK                            x       y       z     vdW  Elec       q    Type
REMARK                         _______ _______ _______ _____ _____    ______ ____
ROOT
ATOM      1  N   UNL     1      31.657  -5.052 -23.038  0.00  0.00    +0.386 N 
ATOM      2  C   UNL     1      32.423  -8.335 -22.661  0.00  0.00    +0.106 C 
ATOM      3  C   UNL     1      31.229  -8.190 -23.638  0.00  0.00    +0.012 C 
ATOM      4  C   UNL     1      32.988  -6.973 -22.177  0.00  0.00    -0.008 C 
ATOM      5  C   UNL     1      31.301  -7.008 -24.607  0.00  0.00    -0.022 C 
ATOM      6  C   UNL     1      31.953  -5.884 -21.864  0.00  0.00    -0.077 C 
ATOM      7  C   UNL     1      30.773  -5.701 -24.012  0.00  0.00    -0.077 C 
ATOM      8  C   UNL     1      31.067  -3.778 -22.615  0.00  0.00    -0.101 C 
ATOM      9  H   UNL     1      32.549  -4.899 -23.508  0.00  0.00    -0.080 HD
ENDROOT
BRANCH   2  10
ATOM     10  C   UNL     1      32.001  -9.300 -21.534  0.00  0.00    -0.013 C 
ATOM     11  C   UNL     1      32.338  -9.008 -20.217  0.00  0.00    -0.004 C 
ATOM     12  C   UNL     1      31.286 -10.451 -21.845  0.00  0.00    -0.004 C 
ATOM     13  C   UNL     1      31.955  -9.880 -19.198  0.00  0.00    -0.000 C 
ATOM     14  C   UNL     1      30.904 -11.323 -20.826  0.00  0.00    -0.000 C 
ATOM     15  C   UNL     1      31.239 -11.038 -19.502  0.00  0.00    -0.000 C 
ENDBRANCH   2  10
BRANCH   2  17
ATOM     16  O   UNL     1      34.744  -8.593 -23.319  0.00  0.00    -0.250 OA
ATOM     17  C   UNL     1      33.583  -8.970 -23.408  0.00  0.00    +0.320 C 
BRANCH  17  18
ATOM     18  O   UNL     1      33.124 -10.004 -24.170  0.00  0.00    -0.448 OA
BRANCH  18  19
ATOM     19  C   UNL     1      34.101 -10.986 -24.527  0.00  0.00    +0.209 C 
ATOM     20  C   UNL     1      33.669 -12.332 -23.982  0.00  0.00    +0.051 C 
ENDBRANCH  18  19
ENDBRANCH  17  18
ENDBRANCH   2  17
TORSDOF 4
ENDMDL
MODEL 3
REMARK VINA RESULT:      -7.2      8.689     11.324
REMARK  Name = 6469
REMARK  4 active torsions:
REMARK  status: ('A' for Active; 'I' for Inactive)
REMARK    1  A    between atoms: C_2  and  C_10
REMARK    2  A    between atoms: C_2  and  C_17
REMARK    3  A    between atoms: C_17  and  O_18
REMARK    4  A    between atoms: O_18  and  C_19
REMARK                            x       y       z     vdW  Elec       q    Type
REMARK                         _______ _______ _______ _____ _____    ______ ____
ROOT
ATOM      1  N   UNL     1      34.872  -9.980 -24.382  0.00  0.00    +0.386 N 
ATOM      2  C   UNL     1      32.804  -7.935 -22.635  0.00  0.00    +0.106 C 
ATOM      3  C   UNL     1      31.984  -9.094 -23.258  0.00  0.00    +0.012 C 
ATOM      4  C   UNL     1      34.328  -8.049 -22.906  0.00  0.00    -0.008 C 
ATOM      5  C   UNL     1      32.659 -10.467 -23.251  0.00  0.00    -0.022 C 
ATOM      6  C   UNL     1      34.733  -8.519 -24.310  0.00  0.00    -0.077 C 
ATOM      7  C   UNL     1      33.592 -10.691 -24.444  0.00  0.00    -0.077 C 
ATOM      8  C   UNL     1      35.694 -10.349 -25.539  0.00  0.00    -0.101 C 
ATOM      9  H   UNL     1      35.325 -10.264 -23.513  0.00  0.00    -0.080 HD
ENDROOT
BRANCH   2  10
ATOM     10  C   UNL     1      32.163  -6.605 -23.080  0.00  0.00    -0.013 C 
ATOM     11  C   UNL     1      31.467  -5.834 -22.157  0.00  0.00    -0.004 C 
ATOM     12  C   UNL     1      32.287  -6.190 -24.402  0.00  0.00    -0.004 C 
ATOM     13  C   UNL     1      30.888  -4.631 -22.559  0.00  0.00    -0.000 C 
ATOM     14  C   UNL     1      31.707  -4.987 -24.804  0.00  0.00    -0.000 C 
ATOM     15  C   UNL     1      31.007  -4.208 -23.883  0.00  0.00    -0.000 C 
ENDBRANCH   2  10
BRANCH   2  17
ATOM     16  O   UNL     1      33.404  -7.404 -20.345  0.00  0.00    -0.250 OA
ATOM     17  C   UNL     1      32.691  -8.024 -21.123  0.00  0.00    +0.320 C 
BRANCH  17  18
ATOM     18  O   UNL     1      31.689  -8.888 -20.790  0.00  0.00    -0.448 OA
BRANCH  18  19
ATOM     19  C   UNL     1      31.862  -9.580 -19.550  0.00  0.00    +0.209 C 
ATOM     20  C   UNL     1      31.453 -11.027 -19.733  0.00  0.00    +0.051 C 
ENDBRANCH  18  19
ENDBRANCH  17  18
ENDBRANCH   2  17
TORSDOF 4
ENDMDL
MODEL 4
REMARK VINA RESULT:      -7.0      8.893     10.888
REMARK  Name = 6469
REMARK  4 active torsions:
REMARK  status: ('A' for Active; 'I' for Inactive)
REMARK    1  A    between atoms: C_2  and  C_10
REMARK    2  A    between atoms: C_2  and  C_17
REMARK    3  A    between atoms: C_17  and  O_18
REMARK    4  A    between atoms: O_18  and  C_19
REMARK                            x       y       z     vdW  Elec       q    Type
REMARK                         _______ _______ _______ _____ _____    ______ ____
ROOT
ATOM      1  N   UNL     1      34.549  -9.486 -24.985  0.00  0.00    +0.386 N 
ATOM      2  C   UNL     1      32.318  -8.668 -22.564  0.00  0.00    +0.106 C 
ATOM      3  C   UNL     1      33.659  -7.935 -22.304  0.00  0.00    +0.012 C 
ATOM      4  C   UNL     1      32.323  -9.507 -23.870  0.00  0.00    -0.008 C 
ATOM      5  C   UNL     1      34.384  -7.410 -23.545  0.00  0.00    -0.022 C 
ATOM      6  C   UNL     1      33.614 -10.278 -24.175  0.00  0.00    -0.077 C 
ATOM      7  C   UNL     1      35.267  -8.460 -24.223  0.00  0.00    -0.077 C 
ATOM      8  C   UNL     1      35.515 -10.371 -25.645  0.00  0.00    -0.101 C 
ATOM      9  H   UNL     1      33.980  -8.996 -25.675  0.00  0.00    -0.080 HD
ENDROOT
BRANCH   2  10
ATOM     10  C   UNL     1      31.949  -9.453 -21.289  0.00  0.00    -0.013 C 
ATOM     11  C   UNL     1      32.349  -8.974 -20.047  0.00  0.00    -0.004 C 
ATOM     12  C   UNL     1      31.220 -10.632 -21.394  0.00  0.00    -0.004 C 
ATOM     13  C   UNL     1      32.015  -9.684 -18.894  0.00  0.00    -0.000 C 
ATOM     14  C   UNL     1      30.886 -11.342 -20.241  0.00  0.00    -0.000 C 
ATOM     15  C   UNL     1      31.284 -10.868 -18.990  0.00  0.00    -0.000 C 
ENDBRANCH   2  10
BRANCH   2  17
ATOM     16  O   UNL     1      30.343  -7.742 -23.626  0.00  0.00    -0.250 OA
ATOM     17  C   UNL     1      31.238  -7.626 -22.800  0.00  0.00    +0.320 C 
BRANCH  17  18
ATOM     18  O   UNL     1      31.429  -6.572 -21.956  0.00  0.00    -0.448 OA
BRANCH  18  19
ATOM     19  C   UNL     1      30.552  -5.459 -22.154  0.00  0.00    +0.209 C 
ATOM     20  C   UNL     1      31.273  -4.400 -22.962  0.00  0.00    +0.051 C 
ENDBRANCH  18  19
ENDBRANCH  17  18
ENDBRANCH   2  17
TORSDOF 4
ENDMDL
MODEL 5
REMARK VINA RESULT:      -6.9      8.931     11.545
REMARK  Name = 6469
REMARK  4 active torsions:
REMARK  status: ('A' for Active; 'I' for Inactive)
REMARK    1  A    between atoms: C_2  and  C_10
REMARK    2  A    between atoms: C_2  and  C_17
REMARK    3  A    between atoms: C_17  and  O_18
REMARK    4  A    between atoms: O_18  and  C_19
REMARK                            x       y       z     vdW  Elec       q    Type
REMARK                         _______ _______ _______ _____ _____    ______ ____
ROOT
ATOM      1  N   UNL     1      31.475  -5.095 -22.875  0.00  0.00    +0.386 N 
ATOM      2  C   UNL     1      32.346  -8.354 -22.515  0.00  0.00    +0.106 C 
ATOM      3  C   UNL     1      31.168  -8.239 -23.515  0.00  0.00    +0.012 C 
ATOM      4  C   UNL     1      32.853  -6.978 -22.006  0.00  0.00    -0.008 C 
ATOM      5  C   UNL     1      31.219  -7.045 -24.471  0.00  0.00    -0.022 C 
ATOM      6  C   UNL     1      31.776  -5.929 -21.704  0.00  0.00    -0.077 C 
ATOM      7  C   UNL     1      30.634  -5.763 -23.873  0.00  0.00    -0.077 C 
ATOM      8  C   UNL     1      30.833  -3.846 -22.451  0.00  0.00    -0.101 C 
ATOM      9  H   UNL     1      32.370  -4.906 -23.325  0.00  0.00    -0.080 HD
ENDROOT
BRANCH   2  10
ATOM     10  C   UNL     1      31.934  -9.344 -21.407  0.00  0.00    -0.013 C 
ATOM     11  C   UNL     1      31.189 -10.472 -21.734  0.00  0.00    -0.004 C 
ATOM     12  C   UNL     1      32.311  -9.100 -20.091  0.00  0.00    -0.004 C 
ATOM     13  C   UNL     1      30.818 -11.367 -20.731  0.00  0.00    -0.000 C 
ATOM     14  C   UNL     1      31.939  -9.996 -19.089  0.00  0.00    -0.000 C 
ATOM     15  C   UNL     1      31.192 -11.130 -19.409  0.00  0.00    -0.000 C 
ENDBRANCH   2  10
BRANCH   2  17
ATOM     16  O   UNL     1      33.621 -10.109 -23.602  0.00  0.00    -0.250 OA
ATOM     17  C   UNL     1      33.542  -8.941 -23.244  0.00  0.00    +0.320 C 
BRANCH  17  18
ATOM     18  O   UNL     1      34.484  -7.972 -23.429  0.00  0.00    -0.448 OA
BRANCH  18  19
ATOM     19  C   UNL     1      34.900  -7.770 -24.783  0.00  0.00    +0.209 C 
ATOM     20  C   UNL     1      34.528  -6.364 -25.207  0.00  0.00    +0.051 C 
ENDBRANCH  18  19
ENDBRANCH  17  18
ENDBRANCH   2  17
TORSDOF 4
ENDMDL
MODEL 6
REMARK VINA RESULT:      -6.6      1.708      3.610
REMARK  Name = 6469
REMARK  4 active torsions:
REMARK  status: ('A' for Active; 'I' for Inactive)
REMARK    1  A    between atoms: C_2  and  C_10
REMARK    2  A    between atoms: C_2  and  C_17
REMARK    3  A    between atoms: C_17  and  O_18
REMARK    4  A    between atoms: O_18  and  C_19
REMARK                            x       y       z     vdW  Elec       q    Type
REMARK                         _______ _______ _______ _____ _____    ______ ____
ROOT
ATOM      1  N   UNL     1      35.909 -20.687 -19.836  0.00  0.00    +0.386 N 
ATOM      2  C   UNL     1      34.584 -18.022 -21.463  0.00  0.00    +0.106 C 
ATOM      3  C   UNL     1      33.495 -19.109 -21.275  0.00  0.00    +0.012 C 
ATOM      4  C   UNL     1      35.942 -18.397 -20.812  0.00  0.00    -0.008 C 
ATOM      5  C   UNL     1      33.520 -19.853 -19.938  0.00  0.00    -0.022 C 
ATOM      6  C   UNL     1      36.380 -19.860 -20.954  0.00  0.00    -0.077 C 
ATOM      7  C   UNL     1      34.488 -21.039 -19.920  0.00  0.00    -0.077 C 
ATOM      8  C   UNL     1      36.711 -21.912 -19.743  0.00  0.00    -0.101 C 
ATOM      9  H   UNL     1      36.022 -20.118 -18.997  0.00  0.00    -0.080 HD
ENDROOT
BRANCH   2  10
ATOM     10  C   UNL     1      34.657 -17.676 -22.964  0.00  0.00    -0.013 C 
ATOM     11  C   UNL     1      34.428 -18.669 -23.911  0.00  0.00    -0.004 C 
ATOM     12  C   UNL     1      34.951 -16.375 -23.357  0.00  0.00    -0.004 C 
ATOM     13  C   UNL     1      34.493 -18.356 -25.268  0.00  0.00    -0.000 C 
ATOM     14  C   UNL     1      35.017 -16.063 -24.715  0.00  0.00    -0.000 C 
ATOM     15  C   UNL     1      34.789 -17.053 -25.671  0.00  0.00    -0.000 C 
ENDBRANCH   2  10
BRANCH   2  17
ATOM     16  O   UNL     1      34.892 -16.105 -20.008  0.00  0.00    -0.250 OA
ATOM     17  C   UNL     1      34.150 -16.772 -20.717  0.00  0.00    +0.320 C 
BRANCH  17  18
ATOM     18  O   UNL     1      32.832 -16.527 -20.966  0.00  0.00    -0.448 OA
BRANCH  18  19
ATOM     19  C   UNL     1      32.358 -15.241 -20.554  0.00  0.00    +0.209 C 
ATOM     20  C   UNL     1      32.437 -14.287 -21.728  0.00  0.00    +0.051 C 
ENDBRANCH  18  19
ENDBRANCH  17  18
ENDBRANCH   2  17
TORSDOF 4
ENDMDL
MODEL 7
REMARK VINA RESULT:      -6.5      4.763      7.819
REMARK  Name = 6469
REMARK  4 active torsions:
REMARK  status: ('A' for Active; 'I' for Inactive)
REMARK    1  A    between atoms: C_2  and  C_10
REMARK    2  A    between atoms: C_2  and  C_17
REMARK    3  A    between atoms: C_17  and  O_18
REMARK    4  A    between atoms: O_18  and  C_19
REMARK                            x       y       z     vdW  Elec       q    Type
REMARK                         _______ _______ _______ _____ _____    ______ ____
ROOT
ATOM      1  N   UNL     1      37.079 -24.942 -14.965  0.00  0.00    +0.386 N 
ATOM      2  C   UNL     1      34.292 -23.518 -16.274  0.00  0.00    +0.106 C 
ATOM      3  C   UNL     1      35.218 -22.415 -15.701  0.00  0.00    +0.012 C 
ATOM      4  C   UNL     1      34.898 -24.943 -16.166  0.00  0.00    -0.008 C 
ATOM      5  C   UNL     1      36.718 -22.624 -15.920  0.00  0.00    -0.022 C 
ATOM      6  C   UNL     1      35.649 -25.263 -14.868  0.00  0.00    -0.077 C 
ATOM      7  C   UNL     1      37.370 -23.509 -14.855  0.00  0.00    -0.077 C 
ATOM      8  C   UNL     1      37.830 -25.673 -13.940  0.00  0.00    -0.101 C 
ATOM      9  H   UNL     1      37.370 -25.229 -15.900  0.00  0.00    -0.080 HD
ENDROOT
BRANCH   2  10
ATOM     10  C   UNL     1      32.901 -23.354 -15.630  0.00  0.00    -0.013 C 
ATOM     11  C   UNL     1      32.772 -23.412 -14.247  0.00  0.00    -0.004 C 
ATOM     12  C   UNL     1      31.787 -23.150 -16.438  0.00  0.00    -0.004 C 
ATOM     13  C   UNL     1      31.514 -23.263 -13.664  0.00  0.00    -0.000 C 
ATOM     14  C   UNL     1      30.530 -23.001 -15.855  0.00  0.00    -0.000 C 
ATOM     15  C   UNL     1      30.392 -23.058 -14.468  0.00  0.00    -0.000 C 
ENDBRANCH   2  10
BRANCH   2  17
ATOM     16  O   UNL     1      33.745 -24.144 -18.554  0.00  0.00    -0.250 OA
ATOM     17  C   UNL     1      34.143 -23.293 -17.769  0.00  0.00    +0.320 C 
BRANCH  17  18
ATOM     18  O   UNL     1      34.516 -22.019 -18.078  0.00  0.00    -0.448 OA
BRANCH  18  19
ATOM     19  C   UNL     1      34.564 -21.714 -19.476  0.00  0.00    +0.209 C 
ATOM     20  C   UNL     1      33.348 -20.889 -19.842  0.00  0.00    +0.051 C 
ENDBRANCH  18  19
ENDBRANCH  17  18
ENDBRANCH   2  17
TORSDOF 4
ENDMDL
MODEL 8
REMARK VINA RESULT:      -6.2      9.947     12.713
REMARK  Name = 6469
REMARK  4 active torsions:
REMARK  status: ('A' for Active; 'I' for Inactive)
REMARK    1  A    between atoms: C_2  and  C_10
REMARK    2  A    between atoms: C_2  and  C_17
REMARK    3  A    between atoms: C_17  and  O_18
REMARK    4  A    between atoms: O_18  and  C_19
REMARK                            x       y       z     vdW  Elec       q    Type
REMARK                         _______ _______ _______ _____ _____    ______ ____
ROOT
ATOM      1  N   UNL     1      34.054  -9.356 -23.756  0.00  0.00    +0.386 N 
ATOM      2  C   UNL     1      32.198  -6.531 -23.470  0.00  0.00    +0.106 C 
ATOM      3  C   UNL     1      31.313  -7.680 -24.017  0.00  0.00    +0.012 C 
ATOM      4  C   UNL     1      33.646  -6.979 -23.137  0.00  0.00    -0.008 C 
ATOM      5  C   UNL     1      31.563  -9.061 -23.408  0.00  0.00    -0.022 C 
ATOM      6  C   UNL     1      34.297  -7.956 -24.125  0.00  0.00    -0.077 C 
ATOM      7  C   UNL     1      32.704  -9.826 -24.083  0.00  0.00    -0.077 C 
ATOM      8  C   UNL     1      35.044 -10.225 -24.401  0.00  0.00    -0.101 C 
ATOM      9  H   UNL     1      34.143  -9.400 -22.741  0.00  0.00    -0.080 HD
ENDROOT
BRANCH   2  10
ATOM     10  C   UNL     1      32.094  -5.343 -24.448  0.00  0.00    -0.013 C 
ATOM     11  C   UNL     1      31.275  -4.265 -24.136  0.00  0.00    -0.004 C 
ATOM     12  C   UNL     1      32.822  -5.363 -25.633  0.00  0.00    -0.004 C 
ATOM     13  C   UNL     1      31.182  -3.191 -25.021  0.00  0.00    -0.000 C 
ATOM     14  C   UNL     1      32.728  -4.288 -26.517  0.00  0.00    -0.000 C 
ATOM     15  C   UNL     1      31.908  -3.202 -26.212  0.00  0.00    -0.000 C 
ENDBRANCH   2  10
BRANCH   2  17
ATOM     16  O   UNL     1      30.484  -5.699 -21.967  0.00  0.00    -0.250 OA
ATOM     17  C   UNL     1      31.634  -6.084 -22.132  0.00  0.00    +0.320 C 
BRANCH  17  18
ATOM     18  O   UNL     1      32.600  -6.184 -21.174  0.00  0.00    -0.448 OA
BRANCH  18  19
ATOM     19  C   UNL     1      32.186  -6.792 -19.946  0.00  0.00    +0.209 C 
ATOM     20  C   UNL     1      32.353  -8.293 -20.059  0.00  0.00    +0.051 C 
ENDBRANCH  18  19
ENDBRANCH  17  18
ENDBRANCH   2  17
TORSDOF 4
ENDMDL
MODEL 9
REMARK VINA RESULT:      -6.0      5.337      9.078
REMARK  Name = 6469
REMARK  4 active torsions:
REMARK  status: ('A' for Active; 'I' for Inactive)
REMARK    1  A    between atoms: C_2  and  C_10
REMARK    2  A    between atoms: C_2  and  C_17
REMARK    3  A    between atoms: C_17  and  O_18
REMARK    4  A    between atoms: O_18  and  C_19
REMARK                            x       y       z     vdW  Elec       q    Type
REMARK                         _______ _______ _______ _____ _____    ______ ____
ROOT
ATOM      1  N   UNL     1      31.660 -22.830 -15.110  0.00  0.00    +0.386 N 
ATOM      2  C   UNL     1      34.944 -23.589 -15.486  0.00  0.00    +0.106 C 
ATOM      3  C   UNL     1      34.132 -24.210 -16.651  0.00  0.00    +0.012 C 
ATOM      4  C   UNL     1      34.076 -22.744 -14.516  0.00  0.00    -0.008 C 
ATOM      5  C   UNL     1      32.992 -23.350 -17.200  0.00  0.00    -0.022 C 
ATOM      6  C   UNL     1      32.690 -23.310 -14.180  0.00  0.00    -0.077 C 
ATOM      7  C   UNL     1      31.686 -23.497 -16.415  0.00  0.00    -0.077 C 
ATOM      8  C   UNL     1      30.330 -22.982 -14.510  0.00  0.00    -0.101 C 
ATOM      9  H   UNL     1      31.869 -21.846 -15.280  0.00  0.00    -0.080 HD
ENDROOT
BRANCH   2  10
ATOM     10  C   UNL     1      35.755 -24.718 -14.817  0.00  0.00    -0.013 C 
ATOM     11  C   UNL     1      36.113 -25.839 -15.556  0.00  0.00    -0.004 C 
ATOM     12  C   UNL     1      36.119 -24.603 -13.479  0.00  0.00    -0.004 C 
ATOM     13  C   UNL     1      36.847 -26.859 -14.951  0.00  0.00    -0.000 C 
ATOM     14  C   UNL     1      36.852 -25.624 -12.875  0.00  0.00    -0.000 C 
ATOM     15  C   UNL     1      37.216 -26.752 -13.610  0.00  0.00    -0.000 C 
ENDBRANCH   2  10
BRANCH   2  17
ATOM     16  O   UNL     1      36.750 -21.970 -15.400  0.00  0.00    -0.250 OA
ATOM     17  C   UNL     1      35.929 -22.588 -16.065  0.00  0.00    +0.320 C 
BRANCH  17  18
ATOM     18  O   UNL     1      35.749 -22.500 -17.414  0.00  0.00    -0.448 OA
BRANCH  18  19
ATOM     19  C   UNL     1      36.663 -21.639 -18.101  0.00  0.00    +0.209 C 
ATOM     20  C   UNL     1      36.113 -21.336 -19.479  0.00  0.00    +0.051 C 
ENDBRANCH  18  19
ENDBRANCH  17  18
ENDBRANCH   2  17
TORSDOF 4
ENDMDL
