MODEL 1
REMARK VINA RESULT:      -6.0      0.000      0.000
REMARK  Name = 131204
REMARK  9 active torsions:
REMARK  status: ('A' for Active; 'I' for Inactive)
REMARK    1  A    between atoms: C_1  and  C_4
REMARK    2  A    between atoms: C_1  and  C_11
REMARK    3  A    between atoms: C_1  and  O_17
REMARK    4  A    between atoms: N_3  and  C_6
REMARK    5  A    between atoms: C_6  and  C_7
REMARK    6  A    between atoms: C_7  and  C_8
REMARK    7  A    between atoms: C_8  and  O_9
REMARK    8  A    between atoms: C_11  and  C_14
REMARK    9  A    between atoms: C_14  and  O_15
REMARK                            x       y       z     vdW  Elec       q    Type
REMARK                         _______ _______ _______ _____ _____    ______ ____
ROOT
ATOM      1  C   UNL     1      34.387 -16.997 -21.548  0.00  0.00    +0.189 C 
ENDROOT
BRANCH   1   4
ATOM      2  O   UNL     1      35.721 -16.141 -23.376  0.00  0.00    -0.272 OA
ATOM      3  N   UNL     1      33.700 -15.105 -22.904  0.00  0.00    -0.302 N 
ATOM      4  C   UNL     1      34.698 -16.045 -22.701  0.00  0.00    +0.249 C 
ATOM      5  H   UNL     1      32.918 -15.114 -22.305  0.00  0.00    +0.150 HD
BRANCH   3   6
ATOM      6  C   UNL     1      33.754 -14.113 -23.953  0.00  0.00    +0.092 C 
BRANCH   6   7
ATOM      7  C   UNL     1      32.704 -14.345 -25.031  0.00  0.00    +0.053 C 
BRANCH   7   8
ATOM      8  C   UNL     1      33.296 -14.907 -26.320  0.00  0.00    +0.139 C 
BRANCH   8   9
ATOM      9  O   UNL     1      34.069 -16.057 -26.004  0.00  0.00    -0.382 OA
ATOM     10  H   UNL     1      34.399 -16.459 -26.823  0.00  0.00    +0.210 HD
ENDBRANCH   8   9
ENDBRANCH   7   8
ENDBRANCH   6   7
ENDBRANCH   3   6
ENDBRANCH   1   4
BRANCH   1  11
ATOM     11  C   UNL     1      34.779 -18.480 -21.818  0.00  0.00    +0.060 C 
ATOM     12  C   UNL     1      34.565 -18.779 -23.322  0.00  0.00    +0.005 C 
ATOM     13  C   UNL     1      33.880 -19.445 -21.021  0.00  0.00    +0.005 C 
BRANCH  11  14
ATOM     14  C   UNL     1      36.265 -18.737 -21.465  0.00  0.00    +0.140 C 
BRANCH  14  15
ATOM     15  O   UNL     1      36.390 -19.323 -20.174  0.00  0.00    -0.382 OA
ATOM     16  H   UNL     1      37.272 -19.716 -20.081  0.00  0.00    +0.210 HD
ENDBRANCH  14  15
ENDBRANCH  11  14
ENDBRANCH   1  11
BRANCH   1  17
ATOM     17  O   UNL     1      35.107 -16.510 -20.418  0.00  0.00    -0.376 OA
ATOM     18  H   UNL     1      35.823 -17.126 -20.201  0.00  0.00    +0.211 HD
ENDBRANCH   1  17
TORSDOF 9
ENDMDL
MODEL 2
REMARK VINA RESULT:      -5.9      9.667     12.068
REMARK  Name = 131204
REMARK  9 active torsions:
REMARK  status: ('A' for Active; 'I' for Inactive)
REMARK    1  A    between atoms: C_1  and  C_4
REMARK    2  A    between atoms: C_1  and  C_11
REMARK    3  A    between atoms: C_1  and  O_17
REMARK    4  A    between atoms: N_3  and  C_6
REMARK    5  A    between atoms: C_6  and  C_7
REMARK    6  A    between atoms: C_7  and  C_8
REMARK    7  A    between atoms: C_8  and  O_9
REMARK    8  A    between atoms: C_11  and  C_14
REMARK    9  A    between atoms: C_14  and  O_15
REMARK                            x       y       z     vdW  Elec       q    Type
REMARK                         _______ _______ _______ _____ _____    ______ ____
ROOT
ATOM      1  C   UNL     1      37.345 -26.239 -13.861  0.00  0.00    +0.189 C 
ENDROOT
BRANCH   1   4
ATOM      2  O   UNL     1      35.904 -26.263 -15.804  0.00  0.00    -0.272 OA
ATOM      3  N   UNL     1      35.214 -25.081 -13.931  0.00  0.00    -0.302 N 
ATOM      4  C   UNL     1      36.094 -25.869 -14.655  0.00  0.00    +0.249 C 
ATOM      5  H   UNL     1      35.463 -24.819 -13.015  0.00  0.00    +0.150 HD
BRANCH   3   6
ATOM      6  C   UNL     1      33.949 -24.624 -14.460  0.00  0.00    +0.092 C 
BRANCH   6   7
ATOM      7  C   UNL     1      34.024 -23.206 -15.010  0.00  0.00    +0.053 C 
BRANCH   7   8
ATOM      8  C   UNL     1      34.235 -23.169 -16.519  0.00  0.00    +0.139 C 
BRANCH   8   9
ATOM      9  O   UNL     1      35.629 -23.255 -16.788  0.00  0.00    -0.382 OA
ATOM     10  H   UNL     1      36.125 -23.122 -15.965  0.00  0.00    +0.210 HD
ENDBRANCH   8   9
ENDBRANCH   7   8
ENDBRANCH   6   7
ENDBRANCH   3   6
ENDBRANCH   1   4
BRANCH   1  11
ATOM     11  C   UNL     1      38.399 -25.098 -13.758  0.00  0.00    +0.060 C 
ATOM     12  C   UNL     1      39.812 -25.723 -13.849  0.00  0.00    +0.005 C 
ATOM     13  C   UNL     1      38.300 -24.373 -12.401  0.00  0.00    +0.005 C 
BRANCH  11  14
ATOM     14  C   UNL     1      38.230 -24.076 -14.910  0.00  0.00    +0.140 C 
BRANCH  14  15
ATOM     15  O   UNL     1      37.553 -22.907 -14.462  0.00  0.00    -0.382 OA
ATOM     16  H   UNL     1      37.315 -23.010 -13.528  0.00  0.00    +0.210 HD
ENDBRANCH  14  15
ENDBRANCH  11  14
ENDBRANCH   1  11
BRANCH   1  17
ATOM     17  O   UNL     1      36.901 -26.601 -12.556  0.00  0.00    -0.376 OA
ATOM     18  H   UNL     1      37.484 -27.287 -12.195  0.00  0.00    +0.211 HD
ENDBRANCH   1  17
TORSDOF 9
ENDMDL
MODEL 3
REMARK VINA RESULT:      -5.9     11.192     12.681
REMARK  Name = 131204
REMARK  9 active torsions:
REMARK  status: ('A' for Active; 'I' for Inactive)
REMARK    1  A    between atoms: C_1  and  C_4
REMARK    2  A    between atoms: C_1  and  C_11
REMARK    3  A    between atoms: C_1  and  O_17
REMARK    4  A    between atoms: N_3  and  C_6
REMARK    5  A    between atoms: C_6  and  C_7
REMARK    6  A    between atoms: C_7  and  C_8
REMARK    7  A    between atoms: C_8  and  O_9
REMARK    8  A    between atoms: C_11  and  C_14
REMARK    9  A    between atoms: C_14  and  O_15
REMARK                            x       y       z     vdW  Elec       q    Type
REMARK                         _______ _______ _______ _____ _____    ______ ____
ROOT
ATOM      1  C   UNL     1      36.669 -25.699 -15.035  0.00  0.00    +0.189 C 
ENDROOT
BRANCH   1   4
ATOM      2  O   UNL     1      35.474 -23.842 -16.022  0.00  0.00    -0.272 OA
ATOM      3  N   UNL     1      34.507 -24.949 -14.227  0.00  0.00    -0.302 N 
ATOM      4  C   UNL     1      35.505 -24.718 -15.160  0.00  0.00    +0.249 C 
ATOM      5  H   UNL     1      34.631 -25.679 -13.577  0.00  0.00    +0.150 HD
BRANCH   3   6
ATOM      6  C   UNL     1      33.294 -24.167 -14.163  0.00  0.00    +0.092 C 
BRANCH   6   7
ATOM      7  C   UNL     1      32.066 -25.018 -13.865  0.00  0.00    +0.053 C 
BRANCH   7   8
ATOM      8  C   UNL     1      30.823 -24.182 -13.584  0.00  0.00    +0.139 C 
BRANCH   8   9
ATOM      9  O   UNL     1      30.207 -24.663 -12.396  0.00  0.00    -0.382 OA
ATOM     10  H   UNL     1      29.471 -24.080 -12.155  0.00  0.00    +0.210 HD
ENDBRANCH   8   9
ENDBRANCH   7   8
ENDBRANCH   6   7
ENDBRANCH   3   6
ENDBRANCH   1   4
BRANCH   1  11
ATOM     11  C   UNL     1      37.688 -25.345 -13.912  0.00  0.00    +0.060 C 
ATOM     12  C   UNL     1      37.479 -23.865 -13.507  0.00  0.00    +0.005 C 
ATOM     13  C   UNL     1      39.138 -25.487 -14.414  0.00  0.00    +0.005 C 
BRANCH  11  14
ATOM     14  C   UNL     1      37.477 -26.238 -12.664  0.00  0.00    +0.140 C 
BRANCH  14  15
ATOM     15  O   UNL     1      36.316 -25.841 -11.942  0.00  0.00    -0.382 OA
ATOM     16  H   UNL     1      35.943 -25.041 -12.343  0.00  0.00    +0.210 HD
ENDBRANCH  14  15
ENDBRANCH  11  14
ENDBRANCH   1  11
BRANCH   1  17
ATOM     17  O   UNL     1      36.093 -26.977 -14.772  0.00  0.00    -0.376 OA
ATOM     18  H   UNL     1      35.691 -26.975 -13.890  0.00  0.00    +0.211 HD
ENDBRANCH   1  17
TORSDOF 9
ENDMDL
MODEL 4
REMARK VINA RESULT:      -5.9      1.629      2.285
REMARK  Name = 131204
REMARK  9 active torsions:
REMARK  status: ('A' for Active; 'I' for Inactive)
REMARK    1  A    between atoms: C_1  and  C_4
REMARK    2  A    between atoms: C_1  and  C_11
REMARK    3  A    between atoms: C_1  and  O_17
REMARK    4  A    between atoms: N_3  and  C_6
REMARK    5  A    between atoms: C_6  and  C_7
REMARK    6  A    between atoms: C_7  and  C_8
REMARK    7  A    between atoms: C_8  and  O_9
REMARK    8  A    between atoms: C_11  and  C_14
REMARK    9  A    between atoms: C_14  and  O_15
REMARK                            x       y       z     vdW  Elec       q    Type
REMARK                         _______ _______ _______ _____ _____    ______ ____
ROOT
ATOM      1  C   UNL     1      35.182 -16.944 -22.416  0.00  0.00    +0.189 C 
ENDROOT
BRANCH   1   4
ATOM      2  O   UNL     1      34.971 -15.757 -20.318  0.00  0.00    -0.272 OA
ATOM      3  N   UNL     1      33.360 -15.410 -21.951  0.00  0.00    -0.302 N 
ATOM      4  C   UNL     1      34.508 -15.988 -21.434  0.00  0.00    +0.249 C 
ATOM      5  H   UNL     1      33.074 -15.665 -22.858  0.00  0.00    +0.150 HD
BRANCH   3   6
ATOM      6  C   UNL     1      32.563 -14.452 -21.220  0.00  0.00    +0.092 C 
BRANCH   6   7
ATOM      7  C   UNL     1      32.228 -13.218 -22.047  0.00  0.00    +0.053 C 
BRANCH   7   8
ATOM      8  C   UNL     1      32.781 -13.291 -23.466  0.00  0.00    +0.139 C 
BRANCH   8   9
ATOM      9  O   UNL     1      34.173 -13.004 -23.429  0.00  0.00    -0.382 OA
ATOM     10  H   UNL     1      34.361 -12.412 -22.684  0.00  0.00    +0.210 HD
ENDBRANCH   8   9
ENDBRANCH   7   8
ENDBRANCH   6   7
ENDBRANCH   3   6
ENDBRANCH   1   4
BRANCH   1  11
ATOM     11  C   UNL     1      35.097 -18.445 -22.008  0.00  0.00    +0.060 C 
ATOM     12  C   UNL     1      34.979 -19.298 -23.295  0.00  0.00    +0.005 C 
ATOM     13  C   UNL     1      33.842 -18.718 -21.156  0.00  0.00    +0.005 C 
BRANCH  11  14
ATOM     14  C   UNL     1      36.363 -18.885 -21.232  0.00  0.00    +0.140 C 
BRANCH  14  15
ATOM     15  O   UNL     1      36.025 -19.748 -20.151  0.00  0.00    -0.382 OA
ATOM     16  H   UNL     1      35.433 -20.447 -20.469  0.00  0.00    +0.210 HD
ENDBRANCH  14  15
ENDBRANCH  11  14
ENDBRANCH   1  11
BRANCH   1  17
ATOM     17  O   UNL     1      34.536 -16.752 -23.672  0.00  0.00    -0.376 OA
ATOM     18  H   UNL     1      35.202 -16.718 -24.375  0.00  0.00    +0.211 HD
ENDBRANCH   1  17
TORSDOF 9
ENDMDL
MODEL 5
REMARK VINA RESULT:      -5.9     10.664     12.160
REMARK  Name = 131204
REMARK  9 active torsions:
REMARK  status: ('A' for Active; 'I' for Inactive)
REMARK    1  A    between atoms: C_1  and  C_4
REMARK    2  A    between atoms: C_1  and  C_11
REMARK    3  A    between atoms: C_1  and  O_17
REMARK    4  A    between atoms: N_3  and  C_6
REMARK    5  A    between atoms: C_6  and  C_7
REMARK    6  A    between atoms: C_7  and  C_8
REMARK    7  A    between atoms: C_8  and  O_9
REMARK    8  A    between atoms: C_11  and  C_14
REMARK    9  A    between atoms: C_14  and  O_15
REMARK                            x       y       z     vdW  Elec       q    Type
REMARK                         _______ _______ _______ _____ _____    ______ ____
ROOT
ATOM      1  C   UNL     1      36.755 -23.434 -13.917  0.00  0.00    +0.189 C 
ENDROOT
BRANCH   1   4
ATOM      2  O   UNL     1      35.677 -24.625 -15.726  0.00  0.00    -0.272 OA
ATOM      3  N   UNL     1      34.416 -23.125 -14.484  0.00  0.00    -0.302 N 
ATOM      4  C   UNL     1      35.579 -23.799 -14.820  0.00  0.00    +0.249 C 
ATOM      5  H   UNL     1      34.445 -22.481 -13.739  0.00  0.00    +0.150 HD
BRANCH   3   6
ATOM      6  C   UNL     1      33.164 -23.321 -15.178  0.00  0.00    +0.092 C 
BRANCH   6   7
ATOM      7  C   UNL     1      31.961 -23.237 -14.247  0.00  0.00    +0.053 C 
BRANCH   7   8
ATOM      8  C   UNL     1      31.439 -24.608 -13.832  0.00  0.00    +0.139 C 
BRANCH   8   9
ATOM      9  O   UNL     1      32.521 -25.530 -13.839  0.00  0.00    -0.382 OA
ATOM     10  H   UNL     1      33.024 -25.432 -14.662  0.00  0.00    +0.210 HD
ENDBRANCH   8   9
ENDBRANCH   7   8
ENDBRANCH   6   7
ENDBRANCH   3   6
ENDBRANCH   1   4
BRANCH   1  11
ATOM     11  C   UNL     1      36.913 -24.354 -12.670  0.00  0.00    +0.060 C 
ATOM     12  C   UNL     1      38.273 -24.043 -11.999  0.00  0.00    +0.005 C 
ATOM     13  C   UNL     1      36.926 -25.841 -13.075  0.00  0.00    +0.005 C 
BRANCH  11  14
ATOM     14  C   UNL     1      35.781 -24.101 -11.643  0.00  0.00    +0.140 C 
BRANCH  14  15
ATOM     15  O   UNL     1      34.663 -24.945 -11.896  0.00  0.00    -0.382 OA
ATOM     16  H   UNL     1      34.510 -25.518 -11.129  0.00  0.00    +0.210 HD
ENDBRANCH  14  15
ENDBRANCH  11  14
ENDBRANCH   1  11
BRANCH   1  17
ATOM     17  O   UNL     1      37.925 -23.519 -14.725  0.00  0.00    -0.376 OA
ATOM     18  H   UNL     1      38.015 -24.420 -15.071  0.00  0.00    +0.211 HD
ENDBRANCH   1  17
TORSDOF 9
ENDMDL
MODEL 6
REMARK VINA RESULT:      -5.8     10.420     12.045
REMARK  Name = 131204
REMARK  9 active torsions:
REMARK  status: ('A' for Active; 'I' for Inactive)
REMARK    1  A    between atoms: C_1  and  C_4
REMARK    2  A    between atoms: C_1  and  C_11
REMARK    3  A    between atoms: C_1  and  O_17
REMARK    4  A    between atoms: N_3  and  C_6
REMARK    5  A    between atoms: C_6  and  C_7
REMARK    6  A    between atoms: C_7  and  C_8
REMARK    7  A    between atoms: C_8  and  O_9
REMARK    8  A    between atoms: C_11  and  C_14
REMARK    9  A    between atoms: C_14  and  O_15
REMARK                            x       y       z     vdW  Elec       q    Type
REMARK                         _______ _______ _______ _____ _____    ______ ____
ROOT
ATOM      1  C   UNL     1      37.599 -23.868 -14.485  0.00  0.00    +0.189 C 
ENDROOT
BRANCH   1   4
ATOM      2  O   UNL     1      36.216 -25.454 -15.679  0.00  0.00    -0.272 OA
ATOM      3  N   UNL     1      35.367 -23.333 -15.274  0.00  0.00    -0.302 N 
ATOM      4  C   UNL     1      36.338 -24.320 -15.218  0.00  0.00    +0.249 C 
ATOM      5  H   UNL     1      35.567 -22.456 -14.873  0.00  0.00    +0.150 HD
BRANCH   3   6
ATOM      6  C   UNL     1      34.077 -23.531 -15.894  0.00  0.00    +0.092 C 
BRANCH   6   7
ATOM      7  C   UNL     1      32.923 -23.290 -14.930  0.00  0.00    +0.053 C 
BRANCH   7   8
ATOM      8  C   UNL     1      32.960 -24.217 -13.721  0.00  0.00    +0.139 C 
BRANCH   8   9
ATOM      9  O   UNL     1      33.759 -23.617 -12.709  0.00  0.00    -0.382 OA
ATOM     10  H   UNL     1      33.583 -24.051 -11.859  0.00  0.00    +0.210 HD
ENDBRANCH   8   9
ENDBRANCH   7   8
ENDBRANCH   6   7
ENDBRANCH   3   6
ENDBRANCH   1   4
BRANCH   1  11
ATOM     11  C   UNL     1      37.983 -24.756 -13.264  0.00  0.00    +0.060 C 
ATOM     12  C   UNL     1      36.745 -25.588 -12.852  0.00  0.00    +0.005 C 
ATOM     13  C   UNL     1      38.384 -23.891 -12.053  0.00  0.00    +0.005 C 
BRANCH  11  14
ATOM     14  C   UNL     1      39.138 -25.725 -13.621  0.00  0.00    +0.140 C 
BRANCH  14  15
ATOM     15  O   UNL     1      38.705 -26.721 -14.541  0.00  0.00    -0.382 OA
ATOM     16  H   UNL     1      38.181 -26.305 -15.243  0.00  0.00    +0.210 HD
ENDBRANCH  14  15
ENDBRANCH  11  14
ENDBRANCH   1  11
BRANCH   1  17
ATOM     17  O   UNL     1      38.653 -23.891 -15.444  0.00  0.00    -0.376 OA
ATOM     18  H   UNL     1      38.286 -23.749 -16.330  0.00  0.00    +0.211 HD
ENDBRANCH   1  17
TORSDOF 9
ENDMDL
MODEL 7
REMARK VINA RESULT:      -5.8     10.260     11.710
REMARK  Name = 131204
REMARK  9 active torsions:
REMARK  status: ('A' for Active; 'I' for Inactive)
REMARK    1  A    between atoms: C_1  and  C_4
REMARK    2  A    between atoms: C_1  and  C_11
REMARK    3  A    between atoms: C_1  and  O_17
REMARK    4  A    between atoms: N_3  and  C_6
REMARK    5  A    between atoms: C_6  and  C_7
REMARK    6  A    between atoms: C_7  and  C_8
REMARK    7  A    between atoms: C_8  and  O_9
REMARK    8  A    between atoms: C_11  and  C_14
REMARK    9  A    between atoms: C_14  and  O_15
REMARK                            x       y       z     vdW  Elec       q    Type
REMARK                         _______ _______ _______ _____ _____    ______ ____
ROOT
ATOM      1  C   UNL     1      36.619 -23.235 -14.053  0.00  0.00    +0.189 C 
ENDROOT
BRANCH   1   4
ATOM      2  O   UNL     1      35.743 -24.843 -15.633  0.00  0.00    -0.272 OA
ATOM      3  N   UNL     1      34.465 -22.971 -15.138  0.00  0.00    -0.302 N 
ATOM      4  C   UNL     1      35.584 -23.782 -15.033  0.00  0.00    +0.249 C 
ATOM      5  H   UNL     1      34.437 -22.138 -14.613  0.00  0.00    +0.150 HD
BRANCH   3   6
ATOM      6  C   UNL     1      33.338 -23.291 -15.984  0.00  0.00    +0.092 C 
BRANCH   6   7
ATOM      7  C   UNL     1      32.129 -23.769 -15.190  0.00  0.00    +0.053 C 
BRANCH   7   8
ATOM      8  C   UNL     1      31.602 -22.714 -14.225  0.00  0.00    +0.139 C 
BRANCH   8   9
ATOM      9  O   UNL     1      32.161 -22.949 -12.939  0.00  0.00    -0.382 OA
ATOM     10  H   UNL     1      32.182 -23.903 -12.766  0.00  0.00    +0.210 HD
ENDBRANCH   8   9
ENDBRANCH   7   8
ENDBRANCH   6   7
ENDBRANCH   3   6
ENDBRANCH   1   4
BRANCH   1  11
ATOM     11  C   UNL     1      36.623 -23.942 -12.665  0.00  0.00    +0.060 C 
ATOM     12  C   UNL     1      37.571 -25.163 -12.738  0.00  0.00    +0.005 C 
ATOM     13  C   UNL     1      35.219 -24.466 -12.306  0.00  0.00    +0.005 C 
BRANCH  11  14
ATOM     14  C   UNL     1      37.124 -22.987 -11.553  0.00  0.00    +0.140 C 
BRANCH  14  15
ATOM     15  O   UNL     1      38.526 -22.763 -11.665  0.00  0.00    -0.382 OA
ATOM     16  H   UNL     1      38.770 -22.704 -12.602  0.00  0.00    +0.210 HD
ENDBRANCH  14  15
ENDBRANCH  11  14
ENDBRANCH   1  11
BRANCH   1  17
ATOM     17  O   UNL     1      37.890 -23.398 -14.676  0.00  0.00    -0.376 OA
ATOM     18  H   UNL     1      38.575 -23.486 -13.996  0.00  0.00    +0.211 HD
ENDBRANCH   1  17
TORSDOF 9
ENDMDL
MODEL 8
REMARK VINA RESULT:      -5.8      1.402      2.041
REMARK  Name = 131204
REMARK  9 active torsions:
REMARK  status: ('A' for Active; 'I' for Inactive)
REMARK    1  A    between atoms: C_1  and  C_4
REMARK    2  A    between atoms: C_1  and  C_11
REMARK    3  A    between atoms: C_1  and  O_17
REMARK    4  A    between atoms: N_3  and  C_6
REMARK    5  A    between atoms: C_6  and  C_7
REMARK    6  A    between atoms: C_7  and  C_8
REMARK    7  A    between atoms: C_8  and  O_9
REMARK    8  A    between atoms: C_11  and  C_14
REMARK    9  A    between atoms: C_14  and  O_15
REMARK                            x       y       z     vdW  Elec       q    Type
REMARK                         _______ _______ _______ _____ _____    ______ ____
ROOT
ATOM      1  C   UNL     1      34.404 -17.134 -21.379  0.00  0.00    +0.189 C 
ENDROOT
BRANCH   1   4
ATOM      2  O   UNL     1      35.615 -16.076 -23.187  0.00  0.00    -0.272 OA
ATOM      3  N   UNL     1      33.398 -15.483 -22.846  0.00  0.00    -0.302 N 
ATOM      4  C   UNL     1      34.562 -16.178 -22.560  0.00  0.00    +0.249 C 
ATOM      5  H   UNL     1      32.607 -15.639 -22.280  0.00  0.00    +0.150 HD
BRANCH   3   6
ATOM      6  C   UNL     1      33.292 -14.539 -23.935  0.00  0.00    +0.092 C 
BRANCH   6   7
ATOM      7  C   UNL     1      33.392 -13.094 -23.467  0.00  0.00    +0.053 C 
BRANCH   7   8
ATOM      8  C   UNL     1      32.216 -12.674 -22.593  0.00  0.00    +0.139 C 
BRANCH   8   9
ATOM      9  O   UNL     1      32.371 -13.258 -21.305  0.00  0.00    -0.382 OA
ATOM     10  H   UNL     1      32.619 -14.190 -21.402  0.00  0.00    +0.210 HD
ENDBRANCH   8   9
ENDBRANCH   7   8
ENDBRANCH   6   7
ENDBRANCH   3   6
ENDBRANCH   1   4
BRANCH   1  11
ATOM     11  C   UNL     1      34.830 -18.601 -21.682  0.00  0.00    +0.060 C 
ATOM     12  C   UNL     1      34.591 -18.883 -23.185  0.00  0.00    +0.005 C 
ATOM     13  C   UNL     1      33.976 -19.603 -20.880  0.00  0.00    +0.005 C 
BRANCH  11  14
ATOM     14  C   UNL     1      36.330 -18.823 -21.365  0.00  0.00    +0.140 C 
BRANCH  14  15
ATOM     15  O   UNL     1      36.501 -19.407 -20.078  0.00  0.00    -0.382 OA
ATOM     16  H   UNL     1      37.359 -19.139 -19.713  0.00  0.00    +0.210 HD
ENDBRANCH  14  15
ENDBRANCH  11  14
ENDBRANCH   1  11
BRANCH   1  17
ATOM     17  O   UNL     1      35.208 -16.609 -20.326  0.00  0.00    -0.376 OA
ATOM     18  H   UNL     1      35.094 -15.648 -20.281  0.00  0.00    +0.211 HD
ENDBRANCH   1  17
TORSDOF 9
ENDMDL
MODEL 9
REMARK VINA RESULT:      -5.8      9.868     12.224
REMARK  Name = 131204
REMARK  9 active torsions:
REMARK  status: ('A' for Active; 'I' for Inactive)
REMARK    1  A    between atoms: C_1  and  C_4
REMARK    2  A    between atoms: C_1  and  C_11
REMARK    3  A    between atoms: C_1  and  O_17
REMARK    4  A    between atoms: N_3  and  C_6
REMARK    5  A    between atoms: C_6  and  C_7
REMARK    6  A    between atoms: C_7  and  C_8
REMARK    7  A    between atoms: C_8  and  O_9
REMARK    8  A    between atoms: C_11  and  C_14
REMARK    9  A    between atoms: C_14  and  O_15
REMARK                            x       y       z     vdW  Elec       q    Type
REMARK                         _______ _______ _______ _____ _____    ______ ____
ROOT
ATOM      1  C   UNL     1      36.452 -25.281 -12.855  0.00  0.00    +0.189 C 
ENDROOT
BRANCH   1   4
ATOM      2  O   UNL     1      34.757 -23.827 -11.924  0.00  0.00    -0.272 OA
ATOM      3  N   UNL     1      34.319 -24.883 -13.943  0.00  0.00    -0.302 N 
ATOM      4  C   UNL     1      35.093 -24.585 -12.833  0.00  0.00    +0.249 C 
ATOM      5  H   UNL     1      34.683 -25.505 -14.615  0.00  0.00    +0.150 HD
BRANCH   3   6
ATOM      6  C   UNL     1      33.004 -24.325 -14.159  0.00  0.00    +0.092 C 
BRANCH   6   7
ATOM      7  C   UNL     1      33.031 -23.101 -15.064  0.00  0.00    +0.053 C 
BRANCH   7   8
ATOM      8  C   UNL     1      33.382 -23.441 -16.508  0.00  0.00    +0.139 C 
BRANCH   8   9
ATOM      9  O   UNL     1      34.797 -23.514 -16.630  0.00  0.00    -0.382 OA
ATOM     10  H   UNL     1      35.207 -23.234 -15.797  0.00  0.00    +0.210 HD
ENDBRANCH   8   9
ENDBRANCH   7   8
ENDBRANCH   6   7
ENDBRANCH   3   6
ENDBRANCH   1   4
BRANCH   1  11
ATOM     11  C   UNL     1      37.648 -24.339 -13.186  0.00  0.00    +0.060 C 
ATOM     12  C   UNL     1      37.116 -23.137 -14.004  0.00  0.00    +0.005 C 
ATOM     13  C   UNL     1      38.698 -25.060 -14.053  0.00  0.00    +0.005 C 
BRANCH  11  14
ATOM     14  C   UNL     1      38.313 -23.806 -11.893  0.00  0.00    +0.140 C 
BRANCH  14  15
ATOM     15  O   UNL     1      37.481 -22.850 -11.246  0.00  0.00    -0.382 OA
ATOM     16  H   UNL     1      37.807 -22.695 -10.345  0.00  0.00    +0.210 HD
ENDBRANCH  14  15
ENDBRANCH  11  14
ENDBRANCH   1  11
BRANCH   1  17
ATOM     17  O   UNL     1      36.635 -25.850 -11.562  0.00  0.00    -0.376 OA
ATOM     18  H   UNL     1      36.265 -26.746 -11.548  0.00  0.00    +0.211 HD
ENDBRANCH   1  17
TORSDOF 9
ENDMDL
