MODEL 1
REMARK VINA RESULT:      -8.4      0.000      0.000
REMARK  Name = 9651
REMARK  2 active torsions:
REMARK  status: ('A' for Active; 'I' for Inactive)
REMARK    1  A    between atoms: C_12  and  O_20
REMARK    2  A    between atoms: C_15  and  O_22
REMARK                            x       y       z     vdW  Elec       q    Type
REMARK                         _______ _______ _______ _____ _____    ______ ____
ROOT
ATOM      1  O   UNL     1      32.028 -11.524 -22.733  0.00  0.00    -0.476 OA
ATOM      2  N   UNL     1      32.749  -6.352 -23.413  0.00  0.00    +0.388 N 
ATOM      3  C   UNL     1      31.904  -9.179 -22.051  0.00  0.00    +0.075 C 
ATOM      4  C   UNL     1      31.102 -10.500 -22.285  0.00  0.00    +0.176 C 
ATOM      5  C   UNL     1      33.001  -9.446 -23.034  0.00  0.00    +0.015 C 
ATOM      6  C   UNL     1      31.025  -7.964 -22.411  0.00  0.00    -0.011 C 
ATOM      7  C   UNL     1      30.346 -10.988 -21.047  0.00  0.00    +0.078 C 
ATOM      8  C   UNL     1      32.455  -9.081 -20.641  0.00  0.00    -0.021 C 
ATOM      9  C   UNL     1      33.020 -10.801 -23.349  0.00  0.00    +0.168 C 
ATOM     10  C   UNL     1      31.716  -6.591 -22.406  0.00  0.00    -0.076 C 
ATOM     11  C   UNL     1      33.941  -8.578 -23.576  0.00  0.00    -0.044 C 
ATOM     12  C   UNL     1      31.242 -11.105 -19.811  0.00  0.00    +0.136 C 
ATOM     13  C   UNL     1      33.985  -7.114 -23.225  0.00  0.00    -0.050 C 
ATOM     14  C   UNL     1      32.174  -9.946 -19.656  0.00  0.00    -0.002 C 
ATOM     15  C   UNL     1      33.967 -11.355 -24.186  0.00  0.00    +0.172 C 
ATOM     16  C   UNL     1      34.906  -9.129 -24.438  0.00  0.00    -0.003 C 
ATOM     17  C   UNL     1      34.918 -10.501 -24.739  0.00  0.00    +0.040 C 
ATOM     18  C   UNL     1      32.256  -6.359 -24.784  0.00  0.00    -0.100 C 
ATOM     19  H   UNL     1      33.030  -5.387 -23.239  0.00  0.00    -0.079 HD
ENDROOT
BRANCH  12  20
ATOM     20  O   UNL     1      32.026 -12.292 -19.872  0.00  0.00    -0.380 OA
ATOM     21  H   UNL     1      32.241 -12.490 -20.797  0.00  0.00    +0.211 HD
ENDBRANCH  12  20
BRANCH  15  22
ATOM     22  O   UNL     1      33.975 -12.680 -24.473  0.00  0.00    -0.468 OA
ATOM     23  C   UNL     1      33.399 -13.086 -25.716  0.00  0.00    +0.253 C 
ENDBRANCH  15  22
TORSDOF 2
ENDMDL
MODEL 2
REMARK VINA RESULT:      -7.4     13.312     15.607
REMARK  Name = 9651
REMARK  2 active torsions:
REMARK  status: ('A' for Active; 'I' for Inactive)
REMARK    1  A    between atoms: C_12  and  O_20
REMARK    2  A    between atoms: C_15  and  O_22
REMARK                            x       y       z     vdW  Elec       q    Type
REMARK                         _______ _______ _______ _____ _____    ______ ____
ROOT
ATOM      1  O   UNL     1      30.579 -22.033 -17.115  0.00  0.00    -0.476 OA
ATOM      2  N   UNL     1      33.521 -24.653 -13.620  0.00  0.00    +0.388 N 
ATOM      3  C   UNL     1      30.936 -23.650 -15.315  0.00  0.00    +0.075 C 
ATOM      4  C   UNL     1      30.146 -22.382 -15.774  0.00  0.00    +0.176 C 
ATOM      5  C   UNL     1      32.157 -23.427 -16.153  0.00  0.00    +0.015 C 
ATOM      6  C   UNL     1      31.199 -23.580 -13.797  0.00  0.00    -0.011 C 
ATOM      7  C   UNL     1      28.626 -22.562 -15.749  0.00  0.00    +0.078 C 
ATOM      8  C   UNL     1      30.239 -24.938 -15.709  0.00  0.00    -0.021 C 
ATOM      9  C   UNL     1      31.863 -22.517 -17.164  0.00  0.00    +0.168 C 
ATOM     10  C   UNL     1      32.118 -24.662 -13.208  0.00  0.00    -0.076 C 
ATOM     11  C   UNL     1      33.416 -24.009 -16.065  0.00  0.00    -0.044 C 
ATOM     12  C   UNL     1      28.162 -23.803 -16.516  0.00  0.00    +0.136 C 
ATOM     13  C   UNL     1      33.759 -25.032 -15.014  0.00  0.00    -0.050 C 
ATOM     14  C   UNL     1      29.018 -25.001 -16.259  0.00  0.00    -0.002 C 
ATOM     15  C   UNL     1      32.781 -22.164 -18.133  0.00  0.00    +0.172 C 
ATOM     16  C   UNL     1      34.362 -23.649 -17.040  0.00  0.00    -0.003 C 
ATOM     17  C   UNL     1      34.048 -22.738 -18.062  0.00  0.00    +0.040 C 
ATOM     18  C   UNL     1      34.257 -23.469 -13.197  0.00  0.00    -0.100 C 
ATOM     19  H   UNL     1      33.929 -25.421 -13.087  0.00  0.00    -0.079 HD
ENDROOT
BRANCH  12  20
ATOM     20  O   UNL     1      28.167 -23.554 -17.919  0.00  0.00    -0.380 OA
ATOM     21  H   UNL     1      27.951 -22.622 -18.083  0.00  0.00    +0.211 HD
ENDBRANCH  12  20
BRANCH  15  22
ATOM     22  O   UNL     1      32.472 -21.284 -19.117  0.00  0.00    -0.468 OA
ATOM     23  C   UNL     1      33.536 -20.850 -19.966  0.00  0.00    +0.253 C 
ENDBRANCH  15  22
TORSDOF 2
ENDMDL
MODEL 3
REMARK VINA RESULT:      -7.1      2.387      4.323
REMARK  Name = 9651
REMARK  2 active torsions:
REMARK  status: ('A' for Active; 'I' for Inactive)
REMARK    1  A    between atoms: C_12  and  O_20
REMARK    2  A    between atoms: C_15  and  O_22
REMARK                            x       y       z     vdW  Elec       q    Type
REMARK                         _______ _______ _______ _____ _____    ______ ____
ROOT
ATOM      1  O   UNL     1      34.072  -8.373 -23.581  0.00  0.00    -0.476 OA
ATOM      2  N   UNL     1      31.224 -11.808 -20.785  0.00  0.00    +0.388 N 
ATOM      3  C   UNL     1      32.153  -9.046 -22.224  0.00  0.00    +0.075 C 
ATOM      4  C   UNL     1      33.340  -8.041 -22.373  0.00  0.00    +0.176 C 
ATOM      5  C   UNL     1      32.777 -10.189 -22.963  0.00  0.00    +0.015 C 
ATOM      6  C   UNL     1      31.896  -9.335 -20.731  0.00  0.00    -0.011 C 
ATOM      7  C   UNL     1      32.903  -6.575 -22.415  0.00  0.00    +0.078 C 
ATOM      8  C   UNL     1      30.899  -8.567 -22.930  0.00  0.00    -0.021 C 
ATOM      9  C   UNL     1      33.840  -9.718 -23.728  0.00  0.00    +0.168 C 
ATOM     10  C   UNL     1      30.877 -10.439 -20.409  0.00  0.00    -0.076 C 
ATOM     11  C   UNL     1      32.414 -11.530 -23.001  0.00  0.00    -0.044 C 
ATOM     12  C   UNL     1      31.824  -6.306 -23.469  0.00  0.00    +0.136 C 
ATOM     13  C   UNL     1      31.241 -12.070 -22.225  0.00  0.00    -0.050 C 
ATOM     14  C   UNL     1      30.764  -7.359 -23.497  0.00  0.00    -0.002 C 
ATOM     15  C   UNL     1      34.569 -10.537 -24.567  0.00  0.00    +0.172 C 
ATOM     16  C   UNL     1      33.155 -12.375 -23.845  0.00  0.00    -0.003 C 
ATOM     17  C   UNL     1      34.220 -11.884 -24.618  0.00  0.00    +0.040 C 
ATOM     18  C   UNL     1      32.378 -12.345 -20.075  0.00  0.00    -0.100 C 
ATOM     19  H   UNL     1      30.431 -12.354 -20.448  0.00  0.00    -0.079 HD
ENDROOT
BRANCH  12  20
ATOM     20  O   UNL     1      32.403  -6.232 -24.768  0.00  0.00    -0.380 OA
ATOM     21  H   UNL     1      32.200  -5.369 -25.163  0.00  0.00    +0.211 HD
ENDBRANCH  12  20
BRANCH  15  22
ATOM     22  O   UNL     1      35.596 -10.057 -25.312  0.00  0.00    -0.468 OA
ATOM     23  C   UNL     1      35.703 -10.525 -26.658  0.00  0.00    +0.253 C 
ENDBRANCH  15  22
TORSDOF 2
ENDMDL
MODEL 4
REMARK VINA RESULT:      -7.0     14.062     16.322
REMARK  Name = 9651
REMARK  2 active torsions:
REMARK  status: ('A' for Active; 'I' for Inactive)
REMARK    1  A    between atoms: C_12  and  O_20
REMARK    2  A    between atoms: C_15  and  O_22
REMARK                            x       y       z     vdW  Elec       q    Type
REMARK                         _______ _______ _______ _____ _____    ______ ____
ROOT
ATOM      1  O   UNL     1      35.376 -24.201 -16.211  0.00  0.00    -0.476 OA
ATOM      2  N   UNL     1      30.505 -24.426 -14.223  0.00  0.00    +0.388 N 
ATOM      3  C   UNL     1      33.750 -24.376 -14.393  0.00  0.00    +0.075 C 
ATOM      4  C   UNL     1      34.985 -25.034 -15.089  0.00  0.00    +0.176 C 
ATOM      5  C   UNL     1      33.210 -23.667 -15.596  0.00  0.00    +0.015 C 
ATOM      6  C   UNL     1      32.815 -25.472 -13.842  0.00  0.00    -0.011 C 
ATOM      7  C   UNL     1      36.179 -25.241 -14.153  0.00  0.00    +0.078 C 
ATOM      8  C   UNL     1      34.153 -23.384 -13.318  0.00  0.00    -0.021 C 
ATOM      9  C   UNL     1      34.202 -23.588 -16.570  0.00  0.00    +0.168 C 
ATOM     10  C   UNL     1      31.463 -25.003 -13.281  0.00  0.00    -0.076 C 
ATOM     11  C   UNL     1      31.962 -23.094 -15.807  0.00  0.00    -0.044 C 
ATOM     12  C   UNL     1      36.585 -23.963 -13.415  0.00  0.00    +0.136 C 
ATOM     13  C   UNL     1      30.878 -23.116 -14.761  0.00  0.00    -0.050 C 
ATOM     14  C   UNL     1      35.413 -23.191 -12.901  0.00  0.00    -0.002 C 
ATOM     15  C   UNL     1      34.013 -22.931 -17.769  0.00  0.00    +0.172 C 
ATOM     16  C   UNL     1      31.754 -22.430 -17.028  0.00  0.00    -0.003 C 
ATOM     17  C   UNL     1      32.768 -22.349 -17.998  0.00  0.00    +0.040 C 
ATOM     18  C   UNL     1      30.025 -25.362 -15.232  0.00  0.00    -0.100 C 
ATOM     19  H   UNL     1      29.691 -24.227 -13.641  0.00  0.00    -0.079 HD
ENDROOT
BRANCH  12  20
ATOM     20  O   UNL     1      37.331 -23.106 -14.274  0.00  0.00    -0.380 OA
ATOM     21  H   UNL     1      37.403 -22.226 -13.869  0.00  0.00    +0.211 HD
ENDBRANCH  12  20
BRANCH  15  22
ATOM     22  O   UNL     1      34.995 -22.855 -18.700  0.00  0.00    -0.468 OA
ATOM     23  C   UNL     1      35.086 -21.649 -19.462  0.00  0.00    +0.253 C 
ENDBRANCH  15  22
TORSDOF 2
ENDMDL
MODEL 5
REMARK VINA RESULT:      -6.8      5.672      8.077
REMARK  Name = 9651
REMARK  2 active torsions:
REMARK  status: ('A' for Active; 'I' for Inactive)
REMARK    1  A    between atoms: C_12  and  O_20
REMARK    2  A    between atoms: C_15  and  O_22
REMARK                            x       y       z     vdW  Elec       q    Type
REMARK                         _______ _______ _______ _____ _____    ______ ____
ROOT
ATOM      1  O   UNL     1      34.099 -14.692 -23.556  0.00  0.00    -0.476 OA
ATOM      2  N   UNL     1      35.770 -19.209 -21.427  0.00  0.00    +0.388 N 
ATOM      3  C   UNL     1      34.352 -16.301 -21.732  0.00  0.00    +0.075 C 
ATOM      4  C   UNL     1      34.588 -14.827 -22.196  0.00  0.00    +0.176 C 
ATOM      5  C   UNL     1      34.405 -16.937 -23.086  0.00  0.00    +0.015 C 
ATOM      6  C   UNL     1      35.491 -16.741 -20.790  0.00  0.00    -0.011 C 
ATOM      7  C   UNL     1      33.918 -13.785 -21.297  0.00  0.00    +0.078 C 
ATOM      8  C   UNL     1      32.988 -16.495 -21.098  0.00  0.00    -0.021 C 
ATOM      9  C   UNL     1      34.228 -15.961 -24.063  0.00  0.00    +0.168 C 
ATOM     10  C   UNL     1      35.511 -18.222 -20.380  0.00  0.00    -0.076 C 
ATOM     11  C   UNL     1      34.551 -18.274 -23.437  0.00  0.00    -0.044 C 
ATOM     12  C   UNL     1      32.427 -14.058 -21.079  0.00  0.00    +0.136 C 
ATOM     13  C   UNL     1      34.697 -19.366 -22.410  0.00  0.00    -0.050 C 
ATOM     14  C   UNL     1      32.130 -15.501 -20.827  0.00  0.00    -0.002 C 
ATOM     15  C   UNL     1      34.169 -16.262 -25.409  0.00  0.00    +0.172 C 
ATOM     16  C   UNL     1      34.501 -18.591 -24.806  0.00  0.00    -0.003 C 
ATOM     17  C   UNL     1      34.312 -17.597 -25.780  0.00  0.00    +0.040 C 
ATOM     18  C   UNL     1      37.100 -19.115 -22.016  0.00  0.00    -0.100 C 
ATOM     19  H   UNL     1      35.769 -20.095 -20.921  0.00  0.00    -0.079 HD
ENDROOT
BRANCH  12  20
ATOM     20  O   UNL     1      31.673 -13.647 -22.215  0.00  0.00    -0.380 OA
ATOM     21  H   UNL     1      31.125 -14.386 -22.523  0.00  0.00    +0.211 HD
ENDBRANCH  12  20
BRANCH  15  22
ATOM     22  O   UNL     1      33.985 -15.297 -26.344  0.00  0.00    -0.468 OA
ATOM     23  C   UNL     1      32.655 -14.809 -26.530  0.00  0.00    +0.253 C 
ENDBRANCH  15  22
TORSDOF 2
ENDMDL
MODEL 6
REMARK VINA RESULT:      -6.4      2.397      5.111
REMARK  Name = 9651
REMARK  2 active torsions:
REMARK  status: ('A' for Active; 'I' for Inactive)
REMARK    1  A    between atoms: C_12  and  O_20
REMARK    2  A    between atoms: C_15  and  O_22
REMARK                            x       y       z     vdW  Elec       q    Type
REMARK                         _______ _______ _______ _____ _____    ______ ____
ROOT
ATOM      1  O   UNL     1      31.553  -9.524 -22.359  0.00  0.00    -0.476 OA
ATOM      2  N   UNL     1      33.764 -13.270 -25.328  0.00  0.00    +0.388 N 
ATOM      3  C   UNL     1      33.089 -10.348 -24.074  0.00  0.00    +0.075 C 
ATOM      4  C   UNL     1      31.927  -9.354 -23.751  0.00  0.00    +0.176 C 
ATOM      5  C   UNL     1      32.742 -11.385 -23.051  0.00  0.00    +0.015 C 
ATOM      6  C   UNL     1      32.965 -10.842 -25.530  0.00  0.00    -0.011 C 
ATOM      7  C   UNL     1      32.278  -7.889 -24.020  0.00  0.00    +0.078 C 
ATOM      8  C   UNL     1      34.455  -9.750 -23.795  0.00  0.00    -0.021 C 
ATOM      9  C   UNL     1      31.889 -10.830 -22.102  0.00  0.00    +0.168 C 
ATOM     10  C   UNL     1      33.925 -11.962 -25.960  0.00  0.00    -0.076 C 
ATOM     11  C   UNL     1      33.176 -12.700 -22.933  0.00  0.00    -0.044 C 
ATOM     12  C   UNL     1      33.577  -7.453 -23.335  0.00  0.00    +0.136 C 
ATOM     13  C   UNL     1      34.135 -13.324 -23.913  0.00  0.00    -0.050 C 
ATOM     14  C   UNL     1      34.665  -8.472 -23.449  0.00  0.00    -0.002 C 
ATOM     15  C   UNL     1      31.449 -11.534 -20.999  0.00  0.00    +0.172 C 
ATOM     16  C   UNL     1      32.727 -13.430 -21.819  0.00  0.00    -0.003 C 
ATOM     17  C   UNL     1      31.874 -12.854 -20.863  0.00  0.00    +0.040 C 
ATOM     18  C   UNL     1      32.496 -13.923 -25.629  0.00  0.00    -0.100 C 
ATOM     19  H   UNL     1      34.471 -13.843 -25.787  0.00  0.00    -0.079 HD
ENDROOT
BRANCH  12  20
ATOM     20  O   UNL     1      33.352  -7.206 -21.951  0.00  0.00    -0.380 OA
ATOM     21  H   UNL     1      34.185  -7.314 -21.464  0.00  0.00    +0.211 HD
ENDBRANCH  12  20
BRANCH  15  22
ATOM     22  O   UNL     1      30.627 -10.972 -20.079  0.00  0.00    -0.468 OA
ATOM     23  C   UNL     1      31.203 -10.598 -18.826  0.00  0.00    +0.253 C 
ENDBRANCH  15  22
TORSDOF 2
ENDMDL
MODEL 7
REMARK VINA RESULT:      -5.6      3.140      4.290
REMARK  Name = 9651
REMARK  2 active torsions:
REMARK  status: ('A' for Active; 'I' for Inactive)
REMARK    1  A    between atoms: C_12  and  O_20
REMARK    2  A    between atoms: C_15  and  O_22
REMARK                            x       y       z     vdW  Elec       q    Type
REMARK                         _______ _______ _______ _____ _____    ______ ____
ROOT
ATOM      1  O   UNL     1      33.157 -15.229 -23.617  0.00  0.00    -0.476 OA
ATOM      2  N   UNL     1      32.014 -10.401 -21.852  0.00  0.00    +0.388 N 
ATOM      3  C   UNL     1      32.952 -13.512 -21.887  0.00  0.00    +0.075 C 
ATOM      4  C   UNL     1      32.532 -14.949 -22.337  0.00  0.00    +0.176 C 
ATOM      5  C   UNL     1      33.175 -12.943 -23.254  0.00  0.00    +0.015 C 
ATOM      6  C   UNL     1      31.794 -12.846 -21.116  0.00  0.00    -0.011 C 
ATOM      7  C   UNL     1      32.900 -16.040 -21.328  0.00  0.00    +0.078 C 
ATOM      8  C   UNL     1      34.240 -13.511 -21.086  0.00  0.00    -0.021 C 
ATOM      9  C   UNL     1      33.306 -13.982 -24.171  0.00  0.00    +0.168 C 
ATOM     10  C   UNL     1      31.972 -11.364 -20.753  0.00  0.00    -0.076 C 
ATOM     11  C   UNL     1      33.300 -11.619 -23.659  0.00  0.00    -0.044 C 
ATOM     12  C   UNL     1      34.377 -16.003 -20.925  0.00  0.00    +0.136 C 
ATOM     13  C   UNL     1      33.212 -10.469 -22.691  0.00  0.00    -0.050 C 
ATOM     14  C   UNL     1      34.878 -14.617 -20.677  0.00  0.00    -0.002 C 
ATOM     15  C   UNL     1      33.583 -13.762 -25.506  0.00  0.00    +0.172 C 
ATOM     16  C   UNL     1      33.573 -11.383 -25.017  0.00  0.00    -0.003 C 
ATOM     17  C   UNL     1      33.712 -12.442 -25.930  0.00  0.00    +0.040 C 
ATOM     18  C   UNL     1      30.771 -10.306 -22.608  0.00  0.00    -0.100 C 
ATOM     19  H   UNL     1      32.101  -9.503 -21.376  0.00  0.00    -0.079 HD
ENDROOT
BRANCH  12  20
ATOM     20  O   UNL     1      35.187 -16.587 -21.941  0.00  0.00    -0.380 OA
ATOM     21  H   UNL     1      35.171 -17.553 -21.851  0.00  0.00    +0.211 HD
ENDBRANCH  12  20
BRANCH  15  22
ATOM     22  O   UNL     1      33.717 -14.789 -26.382  0.00  0.00    -0.468 OA
ATOM     23  C   UNL     1      32.535 -15.509 -26.734  0.00  0.00    +0.253 C 
ENDBRANCH  15  22
TORSDOF 2
ENDMDL
