MODEL 1
REMARK VINA RESULT:      -9.3      0.000      0.000
REMARK  Name = 5284570
REMARK  1 active torsions:
REMARK  status: ('A' for Active; 'I' for Inactive)
REMARK    1  A    between atoms: C_19  and  O_22
REMARK                            x       y       z     vdW  Elec       q    Type
REMARK                         _______ _______ _______ _____ _____    ______ ____
ROOT
ATOM      1  O   UNL     1      31.623 -11.247 -22.780  0.00  0.00    -0.469 OA
ATOM      2  O   UNL     1      32.033 -11.518 -20.110  0.00  0.00    -0.292 OA
ATOM      3  N   UNL     1      31.600  -6.084 -23.491  0.00  0.00    +0.387 N 
ATOM      4  C   UNL     1      31.566  -8.838 -22.565  0.00  0.00    +0.061 C 
ATOM      5  C   UNL     1      31.920  -7.657 -21.654  0.00  0.00    -0.011 C 
ATOM      6  C   UNL     1      32.625  -6.589 -22.545  0.00  0.00    -0.053 C 
ATOM      7  C   UNL     1      31.156 -10.167 -21.912  0.00  0.00    +0.226 C 
ATOM      8  C   UNL     1      30.551  -8.351 -23.621  0.00  0.00    -0.015 C 
ATOM      9  C   UNL     1      32.792  -9.338 -23.241  0.00  0.00    +0.014 C 
ATOM     10  C   UNL     1      32.727  -8.086 -20.421  0.00  0.00    +0.006 C 
ATOM     11  C   UNL     1      33.935  -7.132 -23.217  0.00  0.00    +0.005 C 
ATOM     12  C   UNL     1      31.046  -7.108 -24.383  0.00  0.00    -0.077 C 
ATOM     13  C   UNL     1      33.884  -8.582 -23.621  0.00  0.00    -0.025 C 
ATOM     14  C   UNL     1      31.977  -9.172 -19.657  0.00  0.00    +0.068 C 
ATOM     15  C   UNL     1      31.774 -10.390 -20.529  0.00  0.00    +0.191 C 
ATOM     16  C   UNL     1      32.730 -10.709 -23.392  0.00  0.00    +0.168 C 
ATOM     17  C   UNL     1      32.026  -4.903 -24.234  0.00  0.00    -0.101 C 
ATOM     18  C   UNL     1      34.917  -9.255 -24.273  0.00  0.00    -0.001 C 
ATOM     19  C   UNL     1      33.732 -11.390 -24.044  0.00  0.00    +0.167 C 
ATOM     20  C   UNL     1      34.831 -10.646 -24.498  0.00  0.00    +0.039 C 
ATOM     21  H   UNL     1      30.834  -5.794 -22.884  0.00  0.00    -0.080 HD
ENDROOT
BRANCH  19  22
ATOM     22  O   UNL     1      33.684 -12.734 -24.217  0.00  0.00    -0.503 OA
ATOM     23  H   UNL     1      32.955 -13.222 -23.888  0.00  0.00    +0.292 HD
ENDBRANCH  19  22
TORSDOF 1
ENDMDL
MODEL 2
REMARK VINA RESULT:      -7.5     16.347     18.471
REMARK  Name = 5284570
REMARK  1 active torsions:
REMARK  status: ('A' for Active; 'I' for Inactive)
REMARK    1  A    between atoms: C_19  and  O_22
REMARK                            x       y       z     vdW  Elec       q    Type
REMARK                         _______ _______ _______ _____ _____    ______ ____
ROOT
ATOM      1  O   UNL     1      38.718 -23.902 -14.174  0.00  0.00    -0.469 OA
ATOM      2  O   UNL     1      39.313 -26.541 -14.400  0.00  0.00    -0.292 OA
ATOM      3  N   UNL     1      33.760 -23.630 -15.757  0.00  0.00    +0.387 N 
ATOM      4  C   UNL     1      36.513 -24.281 -15.096  0.00  0.00    +0.061 C 
ATOM      5  C   UNL     1      35.458 -25.347 -15.409  0.00  0.00    -0.011 C 
ATOM      6  C   UNL     1      34.089 -24.797 -14.902  0.00  0.00    -0.053 C 
ATOM      7  C   UNL     1      37.997 -24.672 -15.186  0.00  0.00    +0.226 C 
ATOM      8  C   UNL     1      36.179 -23.010 -15.906  0.00  0.00    -0.015 C 
ATOM      9  C   UNL     1      36.497 -23.967 -13.642  0.00  0.00    +0.014 C 
ATOM     10  C   UNL     1      35.831 -26.727 -14.853  0.00  0.00    +0.006 C 
ATOM     11  C   UNL     1      34.088 -24.509 -13.359  0.00  0.00    +0.005 C 
ATOM     12  C   UNL     1      34.732 -22.534 -15.682  0.00  0.00    -0.077 C 
ATOM     13  C   UNL     1      35.393 -23.994 -12.811  0.00  0.00    -0.025 C 
ATOM     14  C   UNL     1      37.208 -27.142 -15.361  0.00  0.00    +0.068 C 
ATOM     15  C   UNL     1      38.260 -26.155 -14.908  0.00  0.00    +0.191 C 
ATOM     16  C   UNL     1      37.774 -23.696 -13.196  0.00  0.00    +0.168 C 
ATOM     17  C   UNL     1      32.395 -23.146 -15.579  0.00  0.00    -0.101 C 
ATOM     18  C   UNL     1      35.600 -23.633 -11.480  0.00  0.00    -0.001 C 
ATOM     19  C   UNL     1      37.998 -23.323 -11.890  0.00  0.00    +0.167 C 
ATOM     20  C   UNL     1      36.891 -23.282 -11.031  0.00  0.00    +0.039 C 
ATOM     21  H   UNL     1      33.824 -24.000 -16.704  0.00  0.00    -0.080 HD
ENDROOT
BRANCH  19  22
ATOM     22  O   UNL     1      39.243 -23.038 -11.435  0.00  0.00    -0.503 OA
ATOM     23  H   UNL     1      39.989 -23.446 -11.827  0.00  0.00    +0.292 HD
ENDBRANCH  19  22
TORSDOF 1
ENDMDL
MODEL 3
REMARK VINA RESULT:      -6.5      7.295      9.753
REMARK  Name = 5284570
REMARK  1 active torsions:
REMARK  status: ('A' for Active; 'I' for Inactive)
REMARK    1  A    between atoms: C_19  and  O_22
REMARK                            x       y       z     vdW  Elec       q    Type
REMARK                         _______ _______ _______ _____ _____    ______ ____
ROOT
ATOM      1  O   UNL     1      34.981 -15.385 -23.204  0.00  0.00    -0.469 OA
ATOM      2  O   UNL     1      32.600 -14.348 -22.412  0.00  0.00    -0.292 OA
ATOM      3  N   UNL     1      35.457 -19.694 -20.312  0.00  0.00    +0.387 N 
ATOM      4  C   UNL     1      34.792 -17.163 -21.574  0.00  0.00    +0.061 C 
ATOM      5  C   UNL     1      33.825 -17.912 -20.651  0.00  0.00    -0.011 C 
ATOM      6  C   UNL     1      34.097 -19.436 -20.845  0.00  0.00    -0.053 C 
ATOM      7  C   UNL     1      34.541 -15.670 -21.840  0.00  0.00    +0.226 C 
ATOM      8  C   UNL     1      36.235 -17.455 -21.110  0.00  0.00    -0.015 C 
ATOM      9  C   UNL     1      34.613 -17.629 -22.976  0.00  0.00    +0.014 C 
ATOM     10  C   UNL     1      32.364 -17.497 -20.866  0.00  0.00    +0.006 C 
ATOM     11  C   UNL     1      33.865 -19.907 -22.324  0.00  0.00    +0.005 C 
ATOM     12  C   UNL     1      36.524 -18.963 -21.003  0.00  0.00    -0.077 C 
ATOM     13  C   UNL     1      34.250 -18.901 -23.376  0.00  0.00    -0.025 C 
ATOM     14  C   UNL     1      32.221 -15.987 -20.712  0.00  0.00    +0.068 C 
ATOM     15  C   UNL     1      33.068 -15.267 -21.738  0.00  0.00    +0.191 C 
ATOM     16  C   UNL     1      34.799 -16.582 -23.856  0.00  0.00    +0.168 C 
ATOM     17  C   UNL     1      35.774 -21.113 -20.190  0.00  0.00    -0.101 C 
ATOM     18  C   UNL     1      34.170 -19.127 -24.749  0.00  0.00    -0.001 C 
ATOM     19  C   UNL     1      34.739 -16.787 -25.215  0.00  0.00    +0.167 C 
ATOM     20  C   UNL     1      34.431 -18.081 -25.660  0.00  0.00    +0.039 C 
ATOM     21  H   UNL     1      35.421 -19.315 -19.367  0.00  0.00    -0.080 HD
ENDROOT
BRANCH  19  22
ATOM     22  O   UNL     1      34.934 -15.777 -26.097  0.00  0.00    -0.503 OA
ATOM     23  H   UNL     1      34.351 -15.670 -26.823  0.00  0.00    +0.292 HD
ENDBRANCH  19  22
TORSDOF 1
ENDMDL
