MODEL 1
REMARK VINA RESULT:      -7.2      0.000      0.000
REMARK  Name = 1237169
REMARK  2 active torsions:
REMARK  status: ('A' for Active; 'I' for Inactive)
REMARK    1  A    between atoms: C_1  and  C_8
REMARK    2  A    between atoms: C_6  and  N_12
REMARK                            x       y       z     vdW  Elec       q    Type
REMARK                         _______ _______ _______ _____ _____    ______ ____
ROOT
ATOM      1  C   UNL     1      34.388 -19.221 -21.046  0.00  0.00    +0.007 C 
ATOM      2  C   UNL     1      33.172 -19.753 -20.617  0.00  0.00    -0.000 C 
ATOM      3  C   UNL     1      35.582 -19.872 -20.737  0.00  0.00    -0.000 C 
ATOM      4  C   UNL     1      33.151 -20.936 -19.877  0.00  0.00    +0.024 C 
ATOM      5  C   UNL     1      35.561 -21.054 -19.997  0.00  0.00    +0.024 C 
ATOM      6  C   UNL     1      34.346 -21.586 -19.566  0.00  0.00    +0.143 C 
ENDROOT
BRANCH   1   8
ATOM      7  O   UNL     1      35.690 -17.380 -22.090  0.00  0.00    -0.346 OA
ATOM      8  C   UNL     1      34.410 -17.959 -21.837  0.00  0.00    +0.167 C 
ATOM      9  C   UNL     1      34.827 -16.679 -21.184  0.00  0.00    +0.177 C 
ENDBRANCH   1   8
BRANCH   6  12
ATOM     10  O   UNL     1      33.874 -23.832 -19.346  0.00  0.00    -0.126 OA
ATOM     11  O   UNL     1      34.755 -22.777 -17.635  0.00  0.00    -0.126 OA
ATOM     12  N   UNL     1      34.324 -22.789 -18.813  0.00  0.00    +0.058 N 
ENDBRANCH   6  12
TORSDOF 2
ENDMDL
MODEL 2
REMARK VINA RESULT:      -6.9      2.117      4.952
REMARK  Name = 1237169
REMARK  2 active torsions:
REMARK  status: ('A' for Active; 'I' for Inactive)
REMARK    1  A    between atoms: C_1  and  C_8
REMARK    2  A    between atoms: C_6  and  N_12
REMARK                            x       y       z     vdW  Elec       q    Type
REMARK                         _______ _______ _______ _____ _____    ______ ____
ROOT
ATOM      1  C   UNL     1      34.133 -21.671 -19.592  0.00  0.00    +0.007 C 
ATOM      2  C   UNL     1      33.225 -20.760 -20.134  0.00  0.00    -0.000 C 
ATOM      3  C   UNL     1      35.503 -21.445 -19.712  0.00  0.00    -0.000 C 
ATOM      4  C   UNL     1      33.690 -19.624 -20.797  0.00  0.00    +0.024 C 
ATOM      5  C   UNL     1      35.968 -20.309 -20.375  0.00  0.00    +0.024 C 
ATOM      6  C   UNL     1      35.061 -19.398 -20.919  0.00  0.00    +0.143 C 
ENDROOT
BRANCH   1   8
ATOM      7  O   UNL     1      32.486 -22.719 -18.053  0.00  0.00    -0.346 OA
ATOM      8  C   UNL     1      33.636 -22.883 -18.884  0.00  0.00    +0.167 C 
ATOM      9  C   UNL     1      33.734 -22.967 -17.393  0.00  0.00    +0.177 C 
ENDBRANCH   1   8
BRANCH   6  12
ATOM     10  O   UNL     1      35.279 -17.111 -21.112  0.00  0.00    -0.126 OA
ATOM     11  O   UNL     1      36.191 -18.383 -22.652  0.00  0.00    -0.126 OA
ATOM     12  N   UNL     1      35.533 -18.242 -21.593  0.00  0.00    +0.058 N 
ENDBRANCH   6  12
TORSDOF 2
ENDMDL
MODEL 3
REMARK VINA RESULT:      -6.7      7.601      8.553
REMARK  Name = 1237169
REMARK  2 active torsions:
REMARK  status: ('A' for Active; 'I' for Inactive)
REMARK    1  A    between atoms: C_1  and  C_8
REMARK    2  A    between atoms: C_6  and  N_12
REMARK                            x       y       z     vdW  Elec       q    Type
REMARK                         _______ _______ _______ _____ _____    ______ ____
ROOT
ATOM      1  C   UNL     1      30.896 -24.255 -14.575  0.00  0.00    +0.007 C 
ATOM      2  C   UNL     1      30.740 -22.878 -14.735  0.00  0.00    -0.000 C 
ATOM      3  C   UNL     1      30.036 -25.135 -15.231  0.00  0.00    -0.000 C 
ATOM      4  C   UNL     1      29.722 -22.382 -15.550  0.00  0.00    +0.024 C 
ATOM      5  C   UNL     1      29.018 -24.639 -16.046  0.00  0.00    +0.024 C 
ATOM      6  C   UNL     1      28.860 -23.262 -16.205  0.00  0.00    +0.143 C 
ENDROOT
BRANCH   1   8
ATOM      7  O   UNL     1      32.781 -23.822 -13.014  0.00  0.00    -0.346 OA
ATOM      8  C   UNL     1      31.983 -24.784 -13.706  0.00  0.00    +0.167 C 
ATOM      9  C   UNL     1      33.414 -24.549 -14.076  0.00  0.00    +0.177 C 
ENDBRANCH   1   8
BRANCH   6  12
ATOM     10  O   UNL     1      27.306 -23.514 -17.889  0.00  0.00    -0.126 OA
ATOM     11  O   UNL     1      27.457 -21.566 -16.888  0.00  0.00    -0.126 OA
ATOM     12  N   UNL     1      27.825 -22.756 -17.034  0.00  0.00    +0.058 N 
ENDBRANCH   6  12
TORSDOF 2
ENDMDL
MODEL 4
REMARK VINA RESULT:      -6.5      8.305      9.428
REMARK  Name = 1237169
REMARK  2 active torsions:
REMARK  status: ('A' for Active; 'I' for Inactive)
REMARK    1  A    between atoms: C_1  and  C_8
REMARK    2  A    between atoms: C_6  and  N_12
REMARK                            x       y       z     vdW  Elec       q    Type
REMARK                         _______ _______ _______ _____ _____    ______ ____
ROOT
ATOM      1  C   UNL     1      36.799 -24.304 -13.313  0.00  0.00    +0.007 C 
ATOM      2  C   UNL     1      37.478 -25.223 -12.512  0.00  0.00    -0.000 C 
ATOM      3  C   UNL     1      37.303 -23.968 -14.569  0.00  0.00    -0.000 C 
ATOM      4  C   UNL     1      38.661 -25.804 -12.968  0.00  0.00    +0.024 C 
ATOM      5  C   UNL     1      38.486 -24.549 -15.025  0.00  0.00    +0.024 C 
ATOM      6  C   UNL     1      39.166 -25.467 -14.224  0.00  0.00    +0.143 C 
ENDROOT
BRANCH   1   8
ATOM      7  O   UNL     1      34.682 -24.504 -12.027  0.00  0.00    -0.346 OA
ATOM      8  C   UNL     1      35.536 -23.684 -12.826  0.00  0.00    +0.167 C 
ATOM      9  C   UNL     1      34.220 -24.172 -13.343  0.00  0.00    +0.177 C 
ENDBRANCH   1   8
BRANCH   6  12
ATOM     10  O   UNL     1      41.131 -26.617 -13.860  0.00  0.00    -0.126 OA
ATOM     11  O   UNL     1      40.640 -26.010 -15.912  0.00  0.00    -0.126 OA
ATOM     12  N   UNL     1      40.370 -26.060 -14.687  0.00  0.00    +0.058 N 
ENDBRANCH   6  12
TORSDOF 2
ENDMDL
MODEL 5
REMARK VINA RESULT:      -6.5      4.317      6.928
REMARK  Name = 1237169
REMARK  2 active torsions:
REMARK  status: ('A' for Active; 'I' for Inactive)
REMARK    1  A    between atoms: C_1  and  C_8
REMARK    2  A    between atoms: C_6  and  N_12
REMARK                            x       y       z     vdW  Elec       q    Type
REMARK                         _______ _______ _______ _____ _____    ______ ____
ROOT
ATOM      1  C   UNL     1      34.833 -17.824 -22.824  0.00  0.00    +0.007 C 
ATOM      2  C   UNL     1      34.438 -16.561 -22.381  0.00  0.00    -0.000 C 
ATOM      3  C   UNL     1      34.787 -18.133 -24.182  0.00  0.00    -0.000 C 
ATOM      4  C   UNL     1      33.996 -15.608 -23.300  0.00  0.00    +0.024 C 
ATOM      5  C   UNL     1      34.344 -17.181 -25.101  0.00  0.00    +0.024 C 
ATOM      6  C   UNL     1      33.948 -15.918 -24.659  0.00  0.00    +0.143 C 
ENDROOT
BRANCH   1   8
ATOM      7  O   UNL     1      35.714 -18.359 -20.562  0.00  0.00    -0.346 OA
ATOM      8  C   UNL     1      35.306 -18.841 -21.843  0.00  0.00    +0.167 C 
ATOM      9  C   UNL     1      36.743 -18.860 -21.425  0.00  0.00    +0.177 C 
ENDBRANCH   1   8
BRANCH   6  12
ATOM     10  O   UNL     1      33.084 -13.842 -25.168  0.00  0.00    -0.126 OA
ATOM     11  O   UNL     1      33.526 -15.223 -26.816  0.00  0.00    -0.126 OA
ATOM     12  N   UNL     1      33.498 -14.948 -25.592  0.00  0.00    +0.058 N 
ENDBRANCH   6  12
TORSDOF 2
ENDMDL
MODEL 6
REMARK VINA RESULT:      -6.4      6.573      7.628
REMARK  Name = 1237169
REMARK  2 active torsions:
REMARK  status: ('A' for Active; 'I' for Inactive)
REMARK    1  A    between atoms: C_1  and  C_8
REMARK    2  A    between atoms: C_6  and  N_12
REMARK                            x       y       z     vdW  Elec       q    Type
REMARK                         _______ _______ _______ _____ _____    ______ ____
ROOT
ATOM      1  C   UNL     1      29.826 -23.620 -15.901  0.00  0.00    +0.007 C 
ATOM      2  C   UNL     1      30.978 -22.923 -16.264  0.00  0.00    -0.000 C 
ATOM      3  C   UNL     1      29.883 -24.589 -14.900  0.00  0.00    -0.000 C 
ATOM      4  C   UNL     1      32.188 -23.196 -15.626  0.00  0.00    +0.024 C 
ATOM      5  C   UNL     1      31.093 -24.863 -14.262  0.00  0.00    +0.024 C 
ATOM      6  C   UNL     1      32.247 -24.166 -14.626  0.00  0.00    +0.143 C 
ENDROOT
BRANCH   1   8
ATOM      7  O   UNL     1      28.355 -22.003 -17.083  0.00  0.00    -0.346 OA
ATOM      8  C   UNL     1      28.534 -23.328 -16.582  0.00  0.00    +0.167 C 
ATOM      9  C   UNL     1      27.558 -22.384 -15.954  0.00  0.00    +0.177 C 
ENDBRANCH   1   8
BRANCH   6  12
ATOM     10  O   UNL     1      34.481 -24.734 -14.673  0.00  0.00    -0.126 OA
ATOM     11  O   UNL     1      33.531 -24.390 -12.724  0.00  0.00    -0.126 OA
ATOM     12  N   UNL     1      33.478 -24.444 -13.977  0.00  0.00    +0.058 N 
ENDBRANCH   6  12
TORSDOF 2
ENDMDL
MODEL 7
REMARK VINA RESULT:      -6.3      3.348      5.949
REMARK  Name = 1237169
REMARK  2 active torsions:
REMARK  status: ('A' for Active; 'I' for Inactive)
REMARK    1  A    between atoms: C_1  and  C_8
REMARK    2  A    between atoms: C_6  and  N_12
REMARK                            x       y       z     vdW  Elec       q    Type
REMARK                         _______ _______ _______ _____ _____    ______ ____
ROOT
ATOM      1  C   UNL     1      35.261 -18.956 -21.544  0.00  0.00    +0.007 C 
ATOM      2  C   UNL     1      35.204 -17.579 -21.327  0.00  0.00    -0.000 C 
ATOM      3  C   UNL     1      35.033 -19.471 -22.820  0.00  0.00    -0.000 C 
ATOM      4  C   UNL     1      34.918 -16.718 -22.387  0.00  0.00    +0.024 C 
ATOM      5  C   UNL     1      34.747 -18.610 -23.880  0.00  0.00    +0.024 C 
ATOM      6  C   UNL     1      34.689 -17.233 -23.663  0.00  0.00    +0.143 C 
ENDROOT
BRANCH   1   8
ATOM      7  O   UNL     1      35.665 -21.266 -20.721  0.00  0.00    -0.346 OA
ATOM      8  C   UNL     1      35.566 -19.875 -20.413  0.00  0.00    +0.167 C 
ATOM      9  C   UNL     1      34.533 -20.851 -19.946  0.00  0.00    +0.177 C 
ENDBRANCH   1   8
BRANCH   6  12
ATOM     10  O   UNL     1      33.765 -15.298 -24.510  0.00  0.00    -0.126 OA
ATOM     11  O   UNL     1      34.784 -16.662 -25.894  0.00  0.00    -0.126 OA
ATOM     12  N   UNL     1      34.399 -16.356 -24.741  0.00  0.00    +0.058 N 
ENDBRANCH   6  12
TORSDOF 2
ENDMDL
MODEL 8
REMARK VINA RESULT:      -6.2      5.871      7.194
REMARK  Name = 1237169
REMARK  2 active torsions:
REMARK  status: ('A' for Active; 'I' for Inactive)
REMARK    1  A    between atoms: C_1  and  C_8
REMARK    2  A    between atoms: C_6  and  N_12
REMARK                            x       y       z     vdW  Elec       q    Type
REMARK                         _______ _______ _______ _____ _____    ______ ____
ROOT
ATOM      1  C   UNL     1      33.255 -23.350 -15.267  0.00  0.00    +0.007 C 
ATOM      2  C   UNL     1      32.318 -23.320 -14.234  0.00  0.00    -0.000 C 
ATOM      3  C   UNL     1      32.838 -23.216 -16.591  0.00  0.00    -0.000 C 
ATOM      4  C   UNL     1      30.964 -23.157 -14.526  0.00  0.00    +0.024 C 
ATOM      5  C   UNL     1      31.484 -23.053 -16.883  0.00  0.00    +0.024 C 
ATOM      6  C   UNL     1      30.546 -23.024 -15.850  0.00  0.00    +0.143 C 
ENDROOT
BRANCH   1   8
ATOM      7  O   UNL     1      35.538 -23.988 -16.015  0.00  0.00    -0.346 OA
ATOM      8  C   UNL     1      34.701 -23.524 -14.955  0.00  0.00    +0.167 C 
ATOM      9  C   UNL     1      35.298 -24.895 -14.931  0.00  0.00    +0.177 C 
ENDBRANCH   1   8
BRANCH   6  12
ATOM     10  O   UNL     1      28.825 -21.978 -16.973  0.00  0.00    -0.126 OA
ATOM     11  O   UNL     1      28.330 -23.596 -15.574  0.00  0.00    -0.126 OA
ATOM     12  N   UNL     1      29.168 -22.858 -16.146  0.00  0.00    +0.058 N 
ENDBRANCH   6  12
TORSDOF 2
ENDMDL
MODEL 9
REMARK VINA RESULT:      -6.2      2.291      5.012
REMARK  Name = 1237169
REMARK  2 active torsions:
REMARK  status: ('A' for Active; 'I' for Inactive)
REMARK    1  A    between atoms: C_1  and  C_8
REMARK    2  A    between atoms: C_6  and  N_12
REMARK                            x       y       z     vdW  Elec       q    Type
REMARK                         _______ _______ _______ _____ _____    ______ ____
ROOT
ATOM      1  C   UNL     1      36.026 -20.789 -19.787  0.00  0.00    +0.007 C 
ATOM      2  C   UNL     1      34.676 -20.738 -20.135  0.00  0.00    -0.000 C 
ATOM      3  C   UNL     1      36.913 -19.839 -20.293  0.00  0.00    -0.000 C 
ATOM      4  C   UNL     1      34.214 -19.737 -20.990  0.00  0.00    +0.024 C 
ATOM      5  C   UNL     1      36.451 -18.838 -21.148  0.00  0.00    +0.024 C 
ATOM      6  C   UNL     1      35.101 -18.788 -21.497  0.00  0.00    +0.143 C 
ENDROOT
BRANCH   1   8
ATOM      7  O   UNL     1      35.637 -22.269 -17.829  0.00  0.00    -0.346 OA
ATOM      8  C   UNL     1      36.519 -21.858 -18.874  0.00  0.00    +0.167 C 
ATOM      9  C   UNL     1      36.808 -21.538 -17.442  0.00  0.00    +0.177 C 
ENDBRANCH   1   8
BRANCH   6  12
ATOM     10  O   UNL     1      34.311 -16.656 -21.884  0.00  0.00    -0.126 OA
ATOM     11  O   UNL     1      34.546 -18.010 -23.595  0.00  0.00    -0.126 OA
ATOM     12  N   UNL     1      34.630 -17.769 -22.367  0.00  0.00    +0.058 N 
ENDBRANCH   6  12
TORSDOF 2
ENDMDL
