MODEL 1
REMARK VINA RESULT:     -10.7      0.000      0.000
REMARK  Name = 10317619
REMARK  4 active torsions:
REMARK  status: ('A' for Active; 'I' for Inactive)
REMARK    1  A    between atoms: C_4  and  N_17
REMARK    2  A    between atoms: C_6  and  C_11
REMARK    3  A    between atoms: N_17  and  C_19
REMARK    4  A    between atoms: C_19  and  C_22
REMARK                            x       y       z     vdW  Elec       q    Type
REMARK                         _______ _______ _______ _____ _____    ______ ____
ROOT
ATOM      1 BR   UNL     1      28.841 -23.511 -15.908  0.00  0.00    -0.046 Br
ATOM      2  N   UNL     1      32.555 -24.428 -14.525  0.00  0.00    -0.176 N 
ATOM      3  N   UNL     1      31.799 -25.011 -13.549  0.00  0.00    -0.171 NA
ATOM      4  C   UNL     1      33.963 -24.399 -14.617  0.00  0.00    +0.121 C 
ATOM      5  C   UNL     1      31.733 -23.827 -15.483  0.00  0.00    +0.083 C 
ATOM      6  C   UNL     1      33.690 -23.123 -16.690  0.00  0.00    +0.004 C 
ATOM      7  C   UNL     1      34.519 -23.766 -15.669  0.00  0.00    +0.032 C 
ATOM      8  C   UNL     1      32.343 -23.165 -16.584  0.00  0.00    +0.017 C 
ATOM      9  C   UNL     1      30.433 -24.039 -15.096  0.00  0.00    +0.071 C 
ATOM     10  C   UNL     1      30.538 -24.769 -13.905  0.00  0.00    +0.126 C 
ENDROOT
BRANCH   6  11
ATOM     11  C   UNL     1      34.278 -22.431 -17.854  0.00  0.00    +0.000 C 
ATOM     12  C   UNL     1      35.651 -22.193 -17.901  0.00  0.00    +0.000 C 
ATOM     13  C   UNL     1      33.459 -22.018 -18.903  0.00  0.00    +0.000 C 
ATOM     14  C   UNL     1      36.206 -21.539 -19.000  0.00  0.00    +0.000 C 
ATOM     15  C   UNL     1      34.015 -21.364 -20.002  0.00  0.00    +0.000 C 
ATOM     16  C   UNL     1      35.388 -21.124 -20.051  0.00  0.00    +0.000 C 
ENDBRANCH   6  11
BRANCH   4  17
ATOM     17  N   UNL     1      34.675 -25.018 -13.628  0.00  0.00    -0.316 N 
ATOM     18  H   UNL     1      34.423 -25.932 -13.365  0.00  0.00    +0.148 HD
BRANCH  17  19
ATOM     19  C   UNL     1      35.774 -24.385 -12.962  0.00  0.00    +0.118 C 
BRANCH  19  22
ATOM     20  N   UNL     1      38.340 -26.662 -14.511  0.00  0.00    -0.223 NA
ATOM     21  N   UNL     1      39.479 -24.812 -13.469  0.00  0.00    -0.223 NA
ATOM     22  C   UNL     1      37.097 -24.956 -13.396  0.00  0.00    +0.036 C 
ATOM     23  C   UNL     1      37.171 -26.123 -14.107  0.00  0.00    +0.100 C 
ATOM     24  C   UNL     1      38.276 -24.330 -13.096  0.00  0.00    +0.100 C 
ATOM     25  C   UNL     1      39.438 -25.966 -14.164  0.00  0.00    +0.199 C 
ENDBRANCH  19  22
ENDBRANCH  17  19
ENDBRANCH   4  17
TORSDOF 4
ENDMDL
MODEL 2
REMARK VINA RESULT:     -10.3      3.789      7.180
REMARK  Name = 10317619
REMARK  4 active torsions:
REMARK  status: ('A' for Active; 'I' for Inactive)
REMARK    1  A    between atoms: C_4  and  N_17
REMARK    2  A    between atoms: C_6  and  C_11
REMARK    3  A    between atoms: N_17  and  C_19
REMARK    4  A    between atoms: C_19  and  C_22
REMARK                            x       y       z     vdW  Elec       q    Type
REMARK                         _______ _______ _______ _____ _____    ______ ____
ROOT
ATOM      1 BR   UNL     1      36.304 -23.543 -12.830  0.00  0.00    -0.046 Br
ATOM      2  N   UNL     1      35.191 -22.796 -16.672  0.00  0.00    -0.176 N 
ATOM      3  N   UNL     1      36.525 -22.522 -16.764  0.00  0.00    -0.171 NA
ATOM      4  C   UNL     1      34.227 -22.721 -17.699  0.00  0.00    +0.121 C 
ATOM      5  C   UNL     1      34.863 -23.182 -15.368  0.00  0.00    +0.083 C 
ATOM      6  C   UNL     1      32.570 -23.442 -16.044  0.00  0.00    +0.004 C 
ATOM      7  C   UNL     1      32.950 -23.035 -17.398  0.00  0.00    +0.032 C 
ATOM      8  C   UNL     1      33.511 -23.509 -15.075  0.00  0.00    +0.017 C 
ATOM      9  C   UNL     1      36.020 -23.149 -14.629  0.00  0.00    +0.071 C 
ATOM     10  C   UNL     1      37.003 -22.737 -15.539  0.00  0.00    +0.126 C 
ENDROOT
BRANCH   6  11
ATOM     11  C   UNL     1      31.181 -23.798 -15.695  0.00  0.00    +0.000 C 
ATOM     12  C   UNL     1      30.124 -23.016 -16.161  0.00  0.00    +0.000 C 
ATOM     13  C   UNL     1      30.928 -24.914 -14.901  0.00  0.00    +0.000 C 
ATOM     14  C   UNL     1      28.812 -23.352 -15.831  0.00  0.00    +0.000 C 
ATOM     15  C   UNL     1      29.615 -25.250 -14.571  0.00  0.00    +0.000 C 
ATOM     16  C   UNL     1      28.558 -24.469 -15.036  0.00  0.00    +0.000 C 
ENDBRANCH   6  11
BRANCH   4  17
ATOM     17  N   UNL     1      34.651 -22.333 -18.938  0.00  0.00    -0.316 N 
ATOM     18  H   UNL     1      35.561 -22.573 -19.224  0.00  0.00    +0.148 HD
BRANCH  17  19
ATOM     19  C   UNL     1      33.819 -21.589 -19.836  0.00  0.00    +0.118 C 
BRANCH  19  22
ATOM     20  N   UNL     1      36.547 -19.158 -20.742  0.00  0.00    -0.223 NA
ATOM     21  N   UNL     1      34.444 -18.286 -21.531  0.00  0.00    -0.223 NA
ATOM     22  C   UNL     1      34.527 -20.379 -20.385  0.00  0.00    +0.036 C 
ATOM     23  C   UNL     1      35.881 -20.229 -20.262  0.00  0.00    +0.100 C 
ATOM     24  C   UNL     1      33.843 -19.383 -21.026  0.00  0.00    +0.100 C 
ATOM     25  C   UNL     1      35.780 -18.239 -21.355  0.00  0.00    +0.199 C 
ENDBRANCH  19  22
ENDBRANCH  17  19
ENDBRANCH   4  17
TORSDOF 4
ENDMDL
MODEL 3
REMARK VINA RESULT:     -10.3      2.806      5.973
REMARK  Name = 10317619
REMARK  4 active torsions:
REMARK  status: ('A' for Active; 'I' for Inactive)
REMARK    1  A    between atoms: C_4  and  N_17
REMARK    2  A    between atoms: C_6  and  C_11
REMARK    3  A    between atoms: N_17  and  C_19
REMARK    4  A    between atoms: C_19  and  C_22
REMARK                            x       y       z     vdW  Elec       q    Type
REMARK                         _______ _______ _______ _____ _____    ______ ____
ROOT
ATOM      1 BR   UNL     1      38.172 -24.357 -12.951  0.00  0.00    -0.046 Br
ATOM      2  N   UNL     1      34.181 -24.035 -13.670  0.00  0.00    -0.176 N 
ATOM      3  N   UNL     1      34.143 -24.563 -12.412  0.00  0.00    -0.171 NA
ATOM      4  C   UNL     1      33.085 -23.687 -14.486  0.00  0.00    +0.121 C 
ATOM      5  C   UNL     1      35.505 -23.866 -14.087  0.00  0.00    +0.083 C 
ATOM      6  C   UNL     1      34.711 -22.987 -16.179  0.00  0.00    +0.004 C 
ATOM      7  C   UNL     1      33.338 -23.175 -15.708  0.00  0.00    +0.032 C 
ATOM      8  C   UNL     1      35.747 -23.325 -15.379  0.00  0.00    +0.017 C 
ATOM      9  C   UNL     1      36.313 -24.300 -13.065  0.00  0.00    +0.071 C 
ATOM     10  C   UNL     1      35.422 -24.715 -12.067  0.00  0.00    +0.126 C 
ENDROOT
BRANCH   6  11
ATOM     11  C   UNL     1      35.011 -22.421 -17.510  0.00  0.00    +0.000 C 
ATOM     12  C   UNL     1      36.278 -21.901 -17.774  0.00  0.00    +0.000 C 
ATOM     13  C   UNL     1      34.029 -22.409 -18.498  0.00  0.00    +0.000 C 
ATOM     14  C   UNL     1      36.561 -21.366 -19.031  0.00  0.00    +0.000 C 
ATOM     15  C   UNL     1      34.313 -21.875 -19.754  0.00  0.00    +0.000 C 
ATOM     16  C   UNL     1      35.579 -21.353 -20.020  0.00  0.00    +0.000 C 
ENDBRANCH   6  11
BRANCH   4  17
ATOM     17  N   UNL     1      31.831 -23.891 -13.985  0.00  0.00    -0.316 N 
ATOM     18  H   UNL     1      31.554 -23.391 -13.184  0.00  0.00    +0.148 HD
BRANCH  17  19
ATOM     19  C   UNL     1      30.904 -24.806 -14.581  0.00  0.00    +0.118 C 
BRANCH  19  22
ATOM     20  N   UNL     1      28.127 -24.106 -17.025  0.00  0.00    -0.223 NA
ATOM     21  N   UNL     1      28.545 -22.111 -15.739  0.00  0.00    -0.223 NA
ATOM     22  C   UNL     1      29.820 -24.090 -15.342  0.00  0.00    +0.036 C 
ATOM     23  C   UNL     1      29.104 -24.718 -16.324  0.00  0.00    +0.100 C 
ATOM     24  C   UNL     1      29.510 -22.784 -15.079  0.00  0.00    +0.100 C 
ATOM     25  C   UNL     1      27.902 -22.823 -16.687  0.00  0.00    +0.199 C 
ENDBRANCH  19  22
ENDBRANCH  17  19
ENDBRANCH   4  17
TORSDOF 4
ENDMDL
MODEL 4
REMARK VINA RESULT:      -9.8      8.563     11.393
REMARK  Name = 10317619
REMARK  4 active torsions:
REMARK  status: ('A' for Active; 'I' for Inactive)
REMARK    1  A    between atoms: C_4  and  N_17
REMARK    2  A    between atoms: C_6  and  C_11
REMARK    3  A    between atoms: N_17  and  C_19
REMARK    4  A    between atoms: C_19  and  C_22
REMARK                            x       y       z     vdW  Elec       q    Type
REMARK                         _______ _______ _______ _____ _____    ______ ____
ROOT
ATOM      1 BR   UNL     1      33.079 -14.199 -26.959  0.00  0.00    -0.046 Br
ATOM      2  N   UNL     1      33.931 -15.956 -23.390  0.00  0.00    -0.176 N 
ATOM      3  N   UNL     1      34.431 -16.903 -24.235  0.00  0.00    -0.171 NA
ATOM      4  C   UNL     1      33.924 -15.982 -21.980  0.00  0.00    +0.121 C 
ATOM      5  C   UNL     1      33.393 -14.890 -24.118  0.00  0.00    +0.083 C 
ATOM      6  C   UNL     1      32.803 -13.805 -22.056  0.00  0.00    +0.004 C 
ATOM      7  C   UNL     1      33.377 -14.937 -21.326  0.00  0.00    +0.032 C 
ATOM      8  C   UNL     1      32.822 -13.799 -23.407  0.00  0.00    +0.017 C 
ATOM      9  C   UNL     1      33.562 -15.180 -25.450  0.00  0.00    +0.071 C 
ATOM     10  C   UNL     1      34.203 -16.426 -25.458  0.00  0.00    +0.126 C 
ENDROOT
BRANCH   6  11
ATOM     11  C   UNL     1      32.206 -12.648 -21.361  0.00  0.00    +0.000 C 
ATOM     12  C   UNL     1      32.111 -12.645 -19.969  0.00  0.00    +0.000 C 
ATOM     13  C   UNL     1      31.739 -11.560 -22.096  0.00  0.00    +0.000 C 
ATOM     14  C   UNL     1      31.546 -11.552 -19.313  0.00  0.00    +0.000 C 
ATOM     15  C   UNL     1      31.175 -10.467 -21.439  0.00  0.00    +0.000 C 
ATOM     16  C   UNL     1      31.079 -10.463 -20.048  0.00  0.00    +0.000 C 
ENDBRANCH   6  11
BRANCH   4  17
ATOM     17  N   UNL     1      34.475 -17.069 -21.364  0.00  0.00    -0.316 N 
ATOM     18  H   UNL     1      34.801 -16.975 -20.440  0.00  0.00    +0.148 HD
BRANCH  17  19
ATOM     19  C   UNL     1      34.596 -18.341 -22.012  0.00  0.00    +0.118 C 
BRANCH  19  22
ATOM     20  N   UNL     1      32.710 -20.792 -19.865  0.00  0.00    -0.223 NA
ATOM     21  N   UNL     1      35.064 -21.287 -19.716  0.00  0.00    -0.223 NA
ATOM     22  C   UNL     1      34.296 -19.480 -21.075  0.00  0.00    +0.036 C 
ATOM     23  C   UNL     1      33.014 -19.779 -20.704  0.00  0.00    +0.100 C 
ATOM     24  C   UNL     1      35.295 -20.258 -20.558  0.00  0.00    +0.100 C 
ATOM     25  C   UNL     1      33.767 -21.494 -19.416  0.00  0.00    +0.199 C 
ENDBRANCH  19  22
ENDBRANCH  17  19
ENDBRANCH   4  17
TORSDOF 4
ENDMDL
MODEL 5
REMARK VINA RESULT:      -9.8      3.089      7.382
REMARK  Name = 10317619
REMARK  4 active torsions:
REMARK  status: ('A' for Active; 'I' for Inactive)
REMARK    1  A    between atoms: C_4  and  N_17
REMARK    2  A    between atoms: C_6  and  C_11
REMARK    3  A    between atoms: N_17  and  C_19
REMARK    4  A    between atoms: C_19  and  C_22
REMARK                            x       y       z     vdW  Elec       q    Type
REMARK                         _______ _______ _______ _____ _____    ______ ____
ROOT
ATOM      1 BR   UNL     1      36.429 -21.334 -19.418  0.00  0.00    -0.046 Br
ATOM      2  N   UNL     1      33.413 -22.970 -17.231  0.00  0.00    -0.176 N 
ATOM      3  N   UNL     1      32.717 -22.616 -18.350  0.00  0.00    -0.171 NA
ATOM      4  C   UNL     1      32.912 -23.599 -16.073  0.00  0.00    +0.121 C 
ATOM      5  C   UNL     1      34.760 -22.619 -17.365  0.00  0.00    +0.083 C 
ATOM      6  C   UNL     1      35.189 -23.510 -15.174  0.00  0.00    +0.004 C 
ATOM      7  C   UNL     1      33.773 -23.865 -15.069  0.00  0.00    +0.032 C 
ATOM      8  C   UNL     1      35.649 -22.909 -16.295  0.00  0.00    +0.017 C 
ATOM      9  C   UNL     1      34.908 -22.032 -18.598  0.00  0.00    +0.071 C 
ATOM     10  C   UNL     1      33.622 -22.058 -19.154  0.00  0.00    +0.126 C 
ENDROOT
BRANCH   6  11
ATOM     11  C   UNL     1      36.151 -23.799 -14.092  0.00  0.00    +0.000 C 
ATOM     12  C   UNL     1      35.816 -23.511 -12.769  0.00  0.00    +0.000 C 
ATOM     13  C   UNL     1      37.390 -24.359 -14.394  0.00  0.00    +0.000 C 
ATOM     14  C   UNL     1      36.724 -23.783 -11.747  0.00  0.00    +0.000 C 
ATOM     15  C   UNL     1      38.298 -24.631 -13.371  0.00  0.00    +0.000 C 
ATOM     16  C   UNL     1      37.965 -24.343 -12.048  0.00  0.00    +0.000 C 
ENDBRANCH   6  11
BRANCH   4  17
ATOM     17  N   UNL     1      31.580 -23.901 -16.041  0.00  0.00    -0.316 N 
ATOM     18  H   UNL     1      31.236 -24.587 -16.657  0.00  0.00    +0.148 HD
BRANCH  17  19
ATOM     19  C   UNL     1      30.667 -23.255 -15.146  0.00  0.00    +0.118 C 
BRANCH  19  22
ATOM     20  N   UNL     1      27.832 -23.294 -17.624  0.00  0.00    -0.223 NA
ATOM     21  N   UNL     1      27.235 -21.848 -15.791  0.00  0.00    -0.223 NA
ATOM     22  C   UNL     1      29.344 -22.967 -15.805  0.00  0.00    +0.036 C 
ATOM     23  C   UNL     1      29.008 -23.531 -17.005  0.00  0.00    +0.100 C 
ATOM     24  C   UNL     1      28.430 -22.129 -15.229  0.00  0.00    +0.100 C 
ATOM     25  C   UNL     1      27.005 -22.456 -16.971  0.00  0.00    +0.199 C 
ENDBRANCH  19  22
ENDBRANCH  17  19
ENDBRANCH   4  17
TORSDOF 4
ENDMDL
MODEL 6
REMARK VINA RESULT:      -8.9     12.191     15.032
REMARK  Name = 10317619
REMARK  4 active torsions:
REMARK  status: ('A' for Active; 'I' for Inactive)
REMARK    1  A    between atoms: C_4  and  N_17
REMARK    2  A    between atoms: C_6  and  C_11
REMARK    3  A    between atoms: N_17  and  C_19
REMARK    4  A    between atoms: C_19  and  C_22
REMARK                            x       y       z     vdW  Elec       q    Type
REMARK                         _______ _______ _______ _____ _____    ______ ____
ROOT
ATOM      1 BR   UNL     1      30.706 -10.785 -19.126  0.00  0.00    -0.046 Br
ATOM      2  N   UNL     1      32.749 -12.106 -22.387  0.00  0.00    -0.176 N 
ATOM      3  N   UNL     1      32.612 -13.284 -21.712  0.00  0.00    -0.171 NA
ATOM      4  C   UNL     1      33.387 -11.898 -23.628  0.00  0.00    +0.121 C 
ATOM      5  C   UNL     1      32.152 -11.063 -21.672  0.00  0.00    +0.083 C 
ATOM      6  C   UNL     1      32.801  -9.529 -23.406  0.00  0.00    +0.004 C 
ATOM      7  C   UNL     1      33.413 -10.645 -24.128  0.00  0.00    +0.032 C 
ATOM      8  C   UNL     1      32.193  -9.752 -22.219  0.00  0.00    +0.017 C 
ATOM      9  C   UNL     1      31.630 -11.604 -20.522  0.00  0.00    +0.071 C 
ATOM     10  C   UNL     1      31.944 -12.967 -20.603  0.00  0.00    +0.126 C 
ENDROOT
BRANCH   6  11
ATOM     11  C   UNL     1      32.811  -8.152 -23.938  0.00  0.00    +0.000 C 
ATOM     12  C   UNL     1      31.625  -7.422 -24.000  0.00  0.00    +0.000 C 
ATOM     13  C   UNL     1      34.006  -7.586 -24.376  0.00  0.00    +0.000 C 
ATOM     14  C   UNL     1      31.635  -6.122 -24.504  0.00  0.00    +0.000 C 
ATOM     15  C   UNL     1      34.016  -6.285 -24.879  0.00  0.00    +0.000 C 
ATOM     16  C   UNL     1      32.830  -5.553 -24.943  0.00  0.00    +0.000 C 
ENDBRANCH   6  11
BRANCH   4  17
ATOM     17  N   UNL     1      33.939 -12.983 -24.247  0.00  0.00    -0.316 N 
ATOM     18  H   UNL     1      34.919 -13.042 -24.314  0.00  0.00    +0.148 HD
BRANCH  17  19
ATOM     19  C   UNL     1      33.144 -14.039 -24.801  0.00  0.00    +0.118 C 
BRANCH  19  22
ATOM     20  N   UNL     1      34.393 -17.521 -25.500  0.00  0.00    -0.223 NA
ATOM     21  N   UNL     1      34.977 -16.932 -23.238  0.00  0.00    -0.223 NA
ATOM     22  C   UNL     1      33.794 -15.385 -24.619  0.00  0.00    +0.036 C 
ATOM     23  C   UNL     1      33.819 -16.306 -25.629  0.00  0.00    +0.100 C 
ATOM     24  C   UNL     1      34.384 -15.736 -23.436  0.00  0.00    +0.100 C 
ATOM     25  C   UNL     1      34.944 -17.765 -24.297  0.00  0.00    +0.199 C 
ENDBRANCH  19  22
ENDBRANCH  17  19
ENDBRANCH   4  17
TORSDOF 4
ENDMDL
MODEL 7
REMARK VINA RESULT:      -8.9     12.284     15.016
REMARK  Name = 10317619
REMARK  4 active torsions:
REMARK  status: ('A' for Active; 'I' for Inactive)
REMARK    1  A    between atoms: C_4  and  N_17
REMARK    2  A    between atoms: C_6  and  C_11
REMARK    3  A    between atoms: N_17  and  C_19
REMARK    4  A    between atoms: C_19  and  C_22
REMARK                            x       y       z     vdW  Elec       q    Type
REMARK                         _______ _______ _______ _____ _____    ______ ____
ROOT
ATOM      1 BR   UNL     1      35.343 -10.526 -26.317  0.00  0.00    -0.046 Br
ATOM      2  N   UNL     1      32.949 -11.966 -23.359  0.00  0.00    -0.176 N 
ATOM      3  N   UNL     1      33.440 -13.142 -23.847  0.00  0.00    -0.171 NA
ATOM      4  C   UNL     1      32.041 -11.792 -22.294  0.00  0.00    +0.121 C 
ATOM      5  C   UNL     1      33.477 -10.885 -24.073  0.00  0.00    +0.083 C 
ATOM      6  C   UNL     1      32.209  -9.380 -22.692  0.00  0.00    +0.004 C 
ATOM      7  C   UNL     1      31.678 -10.535 -21.965  0.00  0.00    +0.032 C 
ATOM      8  C   UNL     1      33.081  -9.570 -23.707  0.00  0.00    +0.017 C 
ATOM      9  C   UNL     1      34.318 -11.399 -25.029  0.00  0.00    +0.071 C 
ATOM     10  C   UNL     1      34.253 -12.787 -24.842  0.00  0.00    +0.126 C 
ENDROOT
BRANCH   6  11
ATOM     11  C   UNL     1      31.832  -7.996 -22.344  0.00  0.00    +0.000 C 
ATOM     12  C   UNL     1      32.217  -7.459 -21.115  0.00  0.00    +0.000 C 
ATOM     13  C   UNL     1      31.094  -7.229 -23.243  0.00  0.00    +0.000 C 
ATOM     14  C   UNL     1      31.860  -6.151 -20.787  0.00  0.00    +0.000 C 
ATOM     15  C   UNL     1      30.738  -5.922 -22.913  0.00  0.00    +0.000 C 
ATOM     16  C   UNL     1      31.121  -5.383 -21.685  0.00  0.00    +0.000 C 
ENDBRANCH   6  11
BRANCH   4  17
ATOM     17  N   UNL     1      31.584 -12.913 -21.662  0.00  0.00    -0.316 N 
ATOM     18  H   UNL     1      30.823 -13.400 -22.053  0.00  0.00    +0.148 HD
BRANCH  17  19
ATOM     19  C   UNL     1      32.171 -13.406 -20.451  0.00  0.00    +0.118 C 
BRANCH  19  22
ATOM     20  N   UNL     1      32.999 -17.029 -21.054  0.00  0.00    -0.223 NA
ATOM     21  N   UNL     1      35.054 -15.775 -20.943  0.00  0.00    -0.223 NA
ATOM     22  C   UNL     1      32.954 -14.671 -20.682  0.00  0.00    +0.036 C 
ATOM     23  C   UNL     1      32.328 -15.876 -20.846  0.00  0.00    +0.100 C 
ATOM     24  C   UNL     1      34.320 -14.662 -20.737  0.00  0.00    +0.100 C 
ATOM     25  C   UNL     1      34.339 -16.908 -21.090  0.00  0.00    +0.199 C 
ENDBRANCH  19  22
ENDBRANCH  17  19
ENDBRANCH   4  17
TORSDOF 4
ENDMDL
MODEL 8
REMARK VINA RESULT:      -8.8      3.366      6.463
REMARK  Name = 10317619
REMARK  4 active torsions:
REMARK  status: ('A' for Active; 'I' for Inactive)
REMARK    1  A    between atoms: C_4  and  N_17
REMARK    2  A    between atoms: C_6  and  C_11
REMARK    3  A    between atoms: N_17  and  C_19
REMARK    4  A    between atoms: C_19  and  C_22
REMARK                            x       y       z     vdW  Elec       q    Type
REMARK                         _______ _______ _______ _____ _____    ______ ____
ROOT
ATOM      1 BR   UNL     1      36.568 -20.185 -20.489  0.00  0.00    -0.046 Br
ATOM      2  N   UNL     1      33.434 -22.010 -18.645  0.00  0.00    -0.176 N 
ATOM      3  N   UNL     1      32.770 -21.397 -19.668  0.00  0.00    -0.171 NA
ATOM      4  C   UNL     1      32.884 -22.820 -17.630  0.00  0.00    +0.121 C 
ATOM      5  C   UNL     1      34.802 -21.732 -18.717  0.00  0.00    +0.083 C 
ATOM      6  C   UNL     1      35.156 -23.064 -16.748  0.00  0.00    +0.004 C 
ATOM      7  C   UNL     1      33.719 -23.336 -16.704  0.00  0.00    +0.032 C 
ATOM      8  C   UNL     1      35.663 -22.287 -17.731  0.00  0.00    +0.017 C 
ATOM      9  C   UNL     1      34.998 -20.925 -19.811  0.00  0.00    +0.071 C 
ATOM     10  C   UNL     1      33.716 -20.755 -20.353  0.00  0.00    +0.126 C 
ENDROOT
BRANCH   6  11
ATOM     11  C   UNL     1      36.089 -23.624 -15.750  0.00  0.00    +0.000 C 
ATOM     12  C   UNL     1      37.419 -23.206 -15.729  0.00  0.00    +0.000 C 
ATOM     13  C   UNL     1      35.638 -24.569 -14.831  0.00  0.00    +0.000 C 
ATOM     14  C   UNL     1      38.300 -23.736 -14.787  0.00  0.00    +0.000 C 
ATOM     15  C   UNL     1      36.519 -25.099 -13.889  0.00  0.00    +0.000 C 
ATOM     16  C   UNL     1      37.850 -24.682 -13.867  0.00  0.00    +0.000 C 
ENDBRANCH   6  11
BRANCH   4  17
ATOM     17  N   UNL     1      31.534 -23.031 -17.649  0.00  0.00    -0.316 N 
ATOM     18  H   UNL     1      31.149 -23.564 -18.380  0.00  0.00    +0.148 HD
BRANCH  17  19
ATOM     19  C   UNL     1      30.660 -22.504 -16.644  0.00  0.00    +0.118 C 
BRANCH  19  22
ATOM     20  N   UNL     1      31.124 -23.679 -13.097  0.00  0.00    -0.223 NA
ATOM     21  N   UNL     1      30.068 -25.438 -14.361  0.00  0.00    -0.223 NA
ATOM     22  C   UNL     1      30.633 -23.371 -15.413  0.00  0.00    +0.036 C 
ATOM     23  C   UNL     1      31.132 -22.928 -14.219  0.00  0.00    +0.100 C 
ATOM     24  C   UNL     1      30.109 -24.634 -15.444  0.00  0.00    +0.100 C 
ATOM     25  C   UNL     1      30.586 -24.904 -13.237  0.00  0.00    +0.199 C 
ENDBRANCH  19  22
ENDBRANCH  17  19
ENDBRANCH   4  17
TORSDOF 4
ENDMDL
MODEL 9
REMARK VINA RESULT:      -8.7      3.123      6.237
REMARK  Name = 10317619
REMARK  4 active torsions:
REMARK  status: ('A' for Active; 'I' for Inactive)
REMARK    1  A    between atoms: C_4  and  N_17
REMARK    2  A    between atoms: C_6  and  C_11
REMARK    3  A    between atoms: N_17  and  C_19
REMARK    4  A    between atoms: C_19  and  C_22
REMARK                            x       y       z     vdW  Elec       q    Type
REMARK                         _______ _______ _______ _____ _____    ______ ____
ROOT
ATOM      1 BR   UNL     1      35.736 -24.260 -10.180  0.00  0.00    -0.046 Br
ATOM      2  N   UNL     1      36.248 -23.575 -14.158  0.00  0.00    -0.176 N 
ATOM      3  N   UNL     1      37.546 -23.495 -13.744  0.00  0.00    -0.171 NA
ATOM      4  C   UNL     1      35.755 -23.424 -15.471  0.00  0.00    +0.121 C 
ATOM      5  C   UNL     1      35.407 -23.841 -13.072  0.00  0.00    +0.083 C 
ATOM      6  C   UNL     1      33.516 -23.818 -14.557  0.00  0.00    +0.004 C 
ATOM      7  C   UNL     1      34.426 -23.542 -15.670  0.00  0.00    +0.032 C 
ATOM      8  C   UNL     1      34.010 -23.962 -13.307  0.00  0.00    +0.017 C 
ATOM      9  C   UNL     1      36.200 -23.928 -11.955  0.00  0.00    +0.071 C 
ATOM     10  C   UNL     1      37.499 -23.706 -12.430  0.00  0.00    +0.126 C 
ENDROOT
BRANCH   6  11
ATOM     11  C   UNL     1      32.060 -23.959 -14.753  0.00  0.00    +0.000 C 
ATOM     12  C   UNL     1      31.412 -25.124 -14.343  0.00  0.00    +0.000 C 
ATOM     13  C   UNL     1      31.336 -22.928 -15.348  0.00  0.00    +0.000 C 
ATOM     14  C   UNL     1      30.037 -25.257 -14.529  0.00  0.00    +0.000 C 
ATOM     15  C   UNL     1      29.960 -23.061 -15.533  0.00  0.00    +0.000 C 
ATOM     16  C   UNL     1      29.311 -24.226 -15.124  0.00  0.00    +0.000 C 
ENDBRANCH   6  11
BRANCH   4  17
ATOM     17  N   UNL     1      36.660 -23.166 -16.461  0.00  0.00    -0.316 N 
ATOM     18  H   UNL     1      37.058 -23.924 -16.947  0.00  0.00    +0.148 HD
BRANCH  17  19
ATOM     19  C   UNL     1      37.049 -21.835 -16.819  0.00  0.00    +0.118 C 
BRANCH  19  22
ATOM     20  N   UNL     1      36.561 -20.061 -20.104  0.00  0.00    -0.223 NA
ATOM     21  N   UNL     1      34.748 -21.617 -19.791  0.00  0.00    -0.223 NA
ATOM     22  C   UNL     1      36.461 -21.414 -18.140  0.00  0.00    +0.036 C 
ATOM     23  C   UNL     1      37.061 -20.461 -18.916  0.00  0.00    +0.100 C 
ATOM     24  C   UNL     1      35.303 -21.969 -18.612  0.00  0.00    +0.100 C 
ATOM     25  C   UNL     1      35.420 -20.670 -20.475  0.00  0.00    +0.199 C 
ENDBRANCH  19  22
ENDBRANCH  17  19
ENDBRANCH   4  17
TORSDOF 4
ENDMDL
