MODEL 1
REMARK VINA RESULT:     -10.4      0.000      0.000
REMARK  Name = 448836
REMARK  15 active torsions:
REMARK  status: ('A' for Active; 'I' for Inactive)
REMARK    1  A    between atoms: C_1  and  C_4
REMARK    2  A    between atoms: C_1  and  N_17
REMARK    3  A    between atoms: C_1  and  C_33
REMARK    4  A    between atoms: N_3  and  C_6
REMARK    5  A    between atoms: C_6  and  C_9
REMARK    6  A    between atoms: C_6  and  C_12
REMARK    7  A    between atoms: C_12  and  C_14
REMARK    8  A    between atoms: C_14  and  O_15
REMARK    9  A    between atoms: N_17  and  CA_20
REMARK   10  A    between atoms: CA_20  and  C_22
REMARK   11  A    between atoms: CA_20  and  C_25
REMARK   12  A    between atoms: C_22  and  O_23
REMARK   13  A    between atoms: C_25  and  C_26
REMARK   14  A    between atoms: C_26  and  C_27
REMARK   15  A    between atoms: C_33  and  C_34
REMARK                            x       y       z     vdW  Elec       q    Type
REMARK                         _______ _______ _______ _____ _____    ______ ____
ROOT
ATOM      1  C   UNL     1      33.788 -23.395 -14.020  0.00  0.00    +0.022 C 
ENDROOT
BRANCH   1   4
ATOM      2  O   UNL     1      34.688 -23.769 -11.802  0.00  0.00    -0.277 OA
ATOM      3  N   UNL     1      35.680 -24.851 -13.597  0.00  0.00    -0.300 N 
ATOM      4  C   UNL     1      34.744 -24.015 -13.006  0.00  0.00    +0.203 C 
ATOM      5  H   UNL     1      35.647 -24.988 -14.572  0.00  0.00    +0.150 HD
BRANCH   3   6
ATOM      6  C   UNL     1      36.699 -25.527 -12.831  0.00  0.00    +0.159 C 
BRANCH   6   9
ATOM      7  O   UNL     1      38.701 -24.301 -13.454  0.00  0.00    -0.274 OA
ATOM      8  N   UNL     1      37.842 -23.997 -11.346  0.00  0.00    -0.327 N 
ATOM      9  C   UNL     1      37.842 -24.546 -12.611  0.00  0.00    +0.238 C 
ATOM     10  H   UNL     1      38.536 -23.348 -11.091  0.00  0.00    +0.145 HD
ATOM     11  H   UNL     1      37.146 -24.253 -10.698  0.00  0.00    +0.145 HD
ENDBRANCH   6   9
BRANCH   6  12
ATOM     12  C   UNL     1      37.198 -26.786 -13.540  0.00  0.00    +0.138 C 
BRANCH  12  14
ATOM     13  O   UNL     1      36.170 -26.792 -15.751  0.00  0.00    -0.250 OA
ATOM     14  C   UNL     1      37.163 -26.661 -15.048  0.00  0.00    +0.316 C 
BRANCH  14  15
ATOM     15  O   UNL     1      38.394 -26.385 -15.551  0.00  0.00    -0.480 OA
ATOM     16  H   UNL     1      38.482 -25.802 -16.281  0.00  0.00    +0.295 HD
ENDBRANCH  14  15
ENDBRANCH  12  14
ENDBRANCH   6  12
ENDBRANCH   3   6
ENDBRANCH   1   4
BRANCH   1  17
ATOM     17  N   UNL     1      34.574 -22.457 -14.822  0.00  0.00    +0.399 N 
ATOM     18  H1  UNL     1      35.343 -22.094 -14.257  0.00  0.00    -0.083 HD
ATOM     19  H2  UNL     1      33.967 -21.696 -15.125  0.00  0.00    -0.083 HD
BRANCH  17  20
ATOM     20  CA  UNL     1      35.118 -23.119 -15.997  0.00  0.00    +0.041 C 
BRANCH  20  22
ATOM     21  OXT UNL     1      37.004 -21.589 -16.168  0.00  0.00    -0.253 OA
ATOM     22  C   UNL     1      36.585 -22.737 -16.082  0.00  0.00    +0.293 C 
BRANCH  22  23
ATOM     23  O   UNL     1      37.407 -23.815 -16.025  0.00  0.00    -0.482 OA
ATOM     24  H   UNL     1      38.020 -23.901 -15.322  0.00  0.00    +0.295 HD
ENDBRANCH  22  23
ENDBRANCH  20  22
BRANCH  20  25
ATOM     25  C   UNL     1      34.351 -22.649 -17.243  0.00  0.00    -0.006 C 
BRANCH  25  26
ATOM     26  C   UNL     1      35.225 -22.445 -18.490  0.00  0.00    +0.025 C 
BRANCH  26  27
ATOM     27  C   UNL     1      34.714 -21.396 -19.447  0.00  0.00    -0.022 C 
ATOM     28  C   UNL     1      35.613 -20.657 -20.216  0.00  0.00    -0.004 C 
ATOM     29  C   UNL     1      33.343 -21.166 -19.563  0.00  0.00    -0.004 C 
ATOM     30  C   UNL     1      35.141 -19.688 -21.102  0.00  0.00    -0.000 C 
ATOM     31  C   UNL     1      32.871 -20.198 -20.448  0.00  0.00    -0.000 C 
ATOM     32  C   UNL     1      33.769 -19.458 -21.218  0.00  0.00    -0.000 C 
ENDBRANCH  26  27
ENDBRANCH  25  26
ENDBRANCH  20  25
ENDBRANCH  17  20
ENDBRANCH   1  17
BRANCH   1  33
ATOM     33  C   UNL     1      33.180 -24.477 -14.926  0.00  0.00    +0.014 C 
BRANCH  33  34
ATOM     34  C   UNL     1      31.691 -24.310 -15.119  0.00  0.00    -0.024 C 
ATOM     35  C   UNL     1      30.803 -25.178 -14.484  0.00  0.00    -0.004 C 
ATOM     36  C   UNL     1      31.204 -23.287 -15.934  0.00  0.00    -0.004 C 
ATOM     37  C   UNL     1      29.428 -25.024 -14.662  0.00  0.00    -0.000 C 
ATOM     38  C   UNL     1      29.829 -23.132 -16.112  0.00  0.00    -0.000 C 
ATOM     39  C   UNL     1      28.941 -24.001 -15.476  0.00  0.00    -0.000 C 
ENDBRANCH  33  34
ENDBRANCH   1  33
TORSDOF 15
ENDMDL
MODEL 2
REMARK VINA RESULT:     -10.3      1.553      5.213
REMARK  Name = 448836
REMARK  15 active torsions:
REMARK  status: ('A' for Active; 'I' for Inactive)
REMARK    1  A    between atoms: C_1  and  C_4
REMARK    2  A    between atoms: C_1  and  N_17
REMARK    3  A    between atoms: C_1  and  C_33
REMARK    4  A    between atoms: N_3  and  C_6
REMARK    5  A    between atoms: C_6  and  C_9
REMARK    6  A    between atoms: C_6  and  C_12
REMARK    7  A    between atoms: C_12  and  C_14
REMARK    8  A    between atoms: C_14  and  O_15
REMARK    9  A    between atoms: N_17  and  CA_20
REMARK   10  A    between atoms: CA_20  and  C_22
REMARK   11  A    between atoms: CA_20  and  C_25
REMARK   12  A    between atoms: C_22  and  O_23
REMARK   13  A    between atoms: C_25  and  C_26
REMARK   14  A    between atoms: C_26  and  C_27
REMARK   15  A    between atoms: C_33  and  C_34
REMARK                            x       y       z     vdW  Elec       q    Type
REMARK                         _______ _______ _______ _____ _____    ______ ____
ROOT
ATOM      1  C   UNL     1      35.709 -23.385 -15.834  0.00  0.00    +0.022 C 
ENDROOT
BRANCH   1   4
ATOM      2  O   UNL     1      36.149 -25.763 -15.683  0.00  0.00    -0.277 OA
ATOM      3  N   UNL     1      37.407 -24.318 -14.377  0.00  0.00    -0.300 N 
ATOM      4  C   UNL     1      36.431 -24.624 -15.314  0.00  0.00    +0.203 C 
ATOM      5  H   UNL     1      37.563 -23.373 -14.143  0.00  0.00    +0.150 HD
BRANCH   3   6
ATOM      6  C   UNL     1      38.201 -25.337 -13.733  0.00  0.00    +0.159 C 
BRANCH   6   9
ATOM      7  O   UNL     1      37.194 -26.468 -11.835  0.00  0.00    -0.274 OA
ATOM      8  N   UNL     1      37.897 -24.298 -11.570  0.00  0.00    -0.327 N 
ATOM      9  C   UNL     1      37.722 -25.458 -12.293  0.00  0.00    +0.238 C 
ATOM     10  H   UNL     1      37.623 -24.260 -10.625  0.00  0.00    +0.145 HD
ATOM     11  H   UNL     1      38.298 -23.506 -11.998  0.00  0.00    +0.145 HD
ENDBRANCH   6   9
BRANCH   6  12
ATOM     12  C   UNL     1      39.693 -25.005 -13.779  0.00  0.00    +0.138 C 
BRANCH  12  14
ATOM     13  O   UNL     1      41.231 -26.852 -14.186  0.00  0.00    -0.250 OA
ATOM     14  C   UNL     1      40.484 -25.985 -14.619  0.00  0.00    +0.316 C 
BRANCH  14  15
ATOM     15  O   UNL     1      40.272 -25.786 -15.946  0.00  0.00    -0.480 OA
ATOM     16  H   UNL     1      40.962 -25.947 -16.560  0.00  0.00    +0.295 HD
ENDBRANCH  14  15
ENDBRANCH  12  14
ENDBRANCH   6  12
ENDBRANCH   3   6
ENDBRANCH   1   4
BRANCH   1  17
ATOM     17  N   UNL     1      35.179 -22.684 -14.664  0.00  0.00    +0.399 N 
ATOM     18  H1  UNL     1      35.160 -21.681 -14.854  0.00  0.00    -0.083 HD
ATOM     19  H2  UNL     1      35.778 -22.881 -13.864  0.00  0.00    -0.083 HD
BRANCH  17  20
ATOM     20  CA  UNL     1      33.830 -23.136 -14.363  0.00  0.00    +0.041 C 
BRANCH  20  22
ATOM     21  OXT UNL     1      34.774 -24.009 -12.295  0.00  0.00    -0.253 OA
ATOM     22  C   UNL     1      33.934 -24.087 -13.184  0.00  0.00    +0.293 C 
BRANCH  22  23
ATOM     23  O   UNL     1      32.968 -25.040 -13.197  0.00  0.00    -0.482 OA
ATOM     24  H   UNL     1      32.975 -25.705 -13.857  0.00  0.00    +0.295 HD
ENDBRANCH  22  23
ENDBRANCH  20  22
BRANCH  20  25
ATOM     25  C   UNL     1      33.246 -23.843 -15.594  0.00  0.00    -0.006 C 
BRANCH  25  26
ATOM     26  C   UNL     1      32.232 -23.006 -16.389  0.00  0.00    +0.025 C 
BRANCH  26  27
ATOM     27  C   UNL     1      30.787 -23.353 -16.122  0.00  0.00    -0.022 C 
ATOM     28  C   UNL     1      29.773 -22.504 -16.566  0.00  0.00    -0.004 C 
ATOM     29  C   UNL     1      30.467 -24.522 -15.432  0.00  0.00    -0.004 C 
ATOM     30  C   UNL     1      28.438 -22.826 -16.319  0.00  0.00    -0.000 C 
ATOM     31  C   UNL     1      29.133 -24.843 -15.186  0.00  0.00    -0.000 C 
ATOM     32  C   UNL     1      28.118 -23.995 -15.629  0.00  0.00    -0.000 C 
ENDBRANCH  26  27
ENDBRANCH  25  26
ENDBRANCH  20  25
ENDBRANCH  17  20
ENDBRANCH   1  17
BRANCH   1  33
ATOM     33  C   UNL     1      36.678 -22.470 -16.598  0.00  0.00    +0.014 C 
BRANCH  33  34
ATOM     34  C   UNL     1      36.098 -21.954 -17.894  0.00  0.00    -0.024 C 
ATOM     35  C   UNL     1      34.791 -22.281 -18.253  0.00  0.00    -0.004 C 
ATOM     36  C   UNL     1      36.872 -21.151 -18.733  0.00  0.00    -0.004 C 
ATOM     37  C   UNL     1      34.256 -21.805 -19.450  0.00  0.00    -0.000 C 
ATOM     38  C   UNL     1      36.338 -20.674 -19.930  0.00  0.00    -0.000 C 
ATOM     39  C   UNL     1      35.029 -21.002 -20.288  0.00  0.00    -0.000 C 
ENDBRANCH  33  34
ENDBRANCH   1  33
TORSDOF 15
ENDMDL
MODEL 3
REMARK VINA RESULT:     -10.0      2.012      2.952
REMARK  Name = 448836
REMARK  15 active torsions:
REMARK  status: ('A' for Active; 'I' for Inactive)
REMARK    1  A    between atoms: C_1  and  C_4
REMARK    2  A    between atoms: C_1  and  N_17
REMARK    3  A    between atoms: C_1  and  C_33
REMARK    4  A    between atoms: N_3  and  C_6
REMARK    5  A    between atoms: C_6  and  C_9
REMARK    6  A    between atoms: C_6  and  C_12
REMARK    7  A    between atoms: C_12  and  C_14
REMARK    8  A    between atoms: C_14  and  O_15
REMARK    9  A    between atoms: N_17  and  CA_20
REMARK   10  A    between atoms: CA_20  and  C_22
REMARK   11  A    between atoms: CA_20  and  C_25
REMARK   12  A    between atoms: C_22  and  O_23
REMARK   13  A    between atoms: C_25  and  C_26
REMARK   14  A    between atoms: C_26  and  C_27
REMARK   15  A    between atoms: C_33  and  C_34
REMARK                            x       y       z     vdW  Elec       q    Type
REMARK                         _______ _______ _______ _____ _____    ______ ____
ROOT
ATOM      1  C   UNL     1      35.141 -23.161 -15.086  0.00  0.00    +0.022 C 
ENDROOT
BRANCH   1   4
ATOM      2  O   UNL     1      37.379 -22.234 -15.044  0.00  0.00    -0.277 OA
ATOM      3  N   UNL     1      37.053 -24.379 -14.226  0.00  0.00    -0.300 N 
ATOM      4  C   UNL     1      36.637 -23.180 -14.787  0.00  0.00    +0.203 C 
ATOM      5  H   UNL     1      36.385 -25.082 -14.056  0.00  0.00    +0.150 HD
BRANCH   3   6
ATOM      6  C   UNL     1      38.433 -24.629 -13.885  0.00  0.00    +0.159 C 
BRANCH   6   9
ATOM      7  O   UNL     1      38.378 -26.937 -14.639  0.00  0.00    -0.274 OA
ATOM      8  N   UNL     1      40.012 -25.552 -15.467  0.00  0.00    -0.327 N 
ATOM      9  C   UNL     1      38.903 -25.828 -14.696  0.00  0.00    +0.238 C 
ATOM     10  H   UNL     1      40.404 -26.254 -16.035  0.00  0.00    +0.145 HD
ATOM     11  H   UNL     1      40.411 -24.652 -15.451  0.00  0.00    +0.145 HD
ENDBRANCH   6   9
BRANCH   6  12
ATOM     12  C   UNL     1      38.606 -24.889 -12.388  0.00  0.00    +0.138 C 
BRANCH  12  14
ATOM     13  O   UNL     1      36.746 -24.334 -10.913  0.00  0.00    -0.250 OA
ATOM     14  C   UNL     1      37.289 -25.119 -11.678  0.00  0.00    +0.316 C 
BRANCH  14  15
ATOM     15  O   UNL     1      36.763 -26.333 -11.988  0.00  0.00    -0.480 OA
ATOM     16  H   UNL     1      36.409 -26.877 -11.312  0.00  0.00    +0.295 HD
ENDBRANCH  14  15
ENDBRANCH  12  14
ENDBRANCH   6  12
ENDBRANCH   3   6
ENDBRANCH   1   4
BRANCH   1  17
ATOM     17  N   UNL     1      34.980 -23.623 -16.464  0.00  0.00    +0.399 N 
ATOM     18  H1  UNL     1      34.286 -24.371 -16.488  0.00  0.00    -0.083 HD
ATOM     19  H2  UNL     1      35.879 -23.963 -16.804  0.00  0.00    -0.083 HD
BRANCH  17  20
ATOM     20  CA  UNL     1      34.536 -22.536 -17.322  0.00  0.00    +0.041 C 
BRANCH  20  22
ATOM     21  OXT UNL     1      33.650 -24.154 -18.911  0.00  0.00    -0.253 OA
ATOM     22  C   UNL     1      33.508 -23.115 -18.277  0.00  0.00    +0.293 C 
BRANCH  22  23
ATOM     23  O   UNL     1      32.378 -22.365 -18.341  0.00  0.00    -0.482 OA
ATOM     24  H   UNL     1      31.591 -22.669 -17.933  0.00  0.00    +0.295 HD
ENDBRANCH  22  23
ENDBRANCH  20  22
BRANCH  20  25
ATOM     25  C   UNL     1      35.743 -21.969 -18.085  0.00  0.00    -0.006 C 
BRANCH  25  26
ATOM     26  C   UNL     1      35.602 -22.001 -19.614  0.00  0.00    +0.025 C 
BRANCH  26  27
ATOM     27  C   UNL     1      35.341 -20.655 -20.247  0.00  0.00    -0.022 C 
ATOM     28  C   UNL     1      36.408 -19.808 -20.547  0.00  0.00    -0.004 C 
ATOM     29  C   UNL     1      34.034 -20.260 -20.532  0.00  0.00    -0.004 C 
ATOM     30  C   UNL     1      36.167 -18.565 -21.133  0.00  0.00    -0.000 C 
ATOM     31  C   UNL     1      33.794 -19.017 -21.117  0.00  0.00    -0.000 C 
ATOM     32  C   UNL     1      34.860 -18.170 -21.418  0.00  0.00    -0.000 C 
ENDBRANCH  26  27
ENDBRANCH  25  26
ENDBRANCH  20  25
ENDBRANCH  17  20
ENDBRANCH   1  17
BRANCH   1  33
ATOM     33  C   UNL     1      34.383 -24.094 -14.129  0.00  0.00    +0.014 C 
BRANCH  33  34
ATOM     34  C   UNL     1      32.883 -23.995 -14.280  0.00  0.00    -0.024 C 
ATOM     35  C   UNL     1      32.300 -22.795 -14.687  0.00  0.00    -0.004 C 
ATOM     36  C   UNL     1      32.081 -25.104 -14.011  0.00  0.00    -0.004 C 
ATOM     37  C   UNL     1      30.916 -22.704 -14.827  0.00  0.00    -0.000 C 
ATOM     38  C   UNL     1      30.696 -25.014 -14.151  0.00  0.00    -0.000 C 
ATOM     39  C   UNL     1      30.113 -23.813 -14.559  0.00  0.00    -0.000 C 
ENDBRANCH  33  34
ENDBRANCH   1  33
TORSDOF 15
ENDMDL
MODEL 4
REMARK VINA RESULT:      -9.8      2.824      5.843
REMARK  Name = 448836
REMARK  15 active torsions:
REMARK  status: ('A' for Active; 'I' for Inactive)
REMARK    1  A    between atoms: C_1  and  C_4
REMARK    2  A    between atoms: C_1  and  N_17
REMARK    3  A    between atoms: C_1  and  C_33
REMARK    4  A    between atoms: N_3  and  C_6
REMARK    5  A    between atoms: C_6  and  C_9
REMARK    6  A    between atoms: C_6  and  C_12
REMARK    7  A    between atoms: C_12  and  C_14
REMARK    8  A    between atoms: C_14  and  O_15
REMARK    9  A    between atoms: N_17  and  CA_20
REMARK   10  A    between atoms: CA_20  and  C_22
REMARK   11  A    between atoms: CA_20  and  C_25
REMARK   12  A    between atoms: C_22  and  O_23
REMARK   13  A    between atoms: C_25  and  C_26
REMARK   14  A    between atoms: C_26  and  C_27
REMARK   15  A    between atoms: C_33  and  C_34
REMARK                            x       y       z     vdW  Elec       q    Type
REMARK                         _______ _______ _______ _____ _____    ______ ____
ROOT
ATOM      1  C   UNL     1      34.060 -23.886 -14.177  0.00  0.00    +0.022 C 
ENDROOT
BRANCH   1   4
ATOM      2  O   UNL     1      32.053 -23.349 -12.931  0.00  0.00    -0.277 OA
ATOM      3  N   UNL     1      31.865 -23.783 -15.200  0.00  0.00    -0.300 N 
ATOM      4  C   UNL     1      32.565 -23.633 -14.012  0.00  0.00    +0.203 C 
ATOM      5  H   UNL     1      32.361 -24.012 -16.020  0.00  0.00    +0.150 HD
BRANCH   3   6
ATOM      6  C   UNL     1      30.433 -23.614 -15.275  0.00  0.00    +0.159 C 
BRANCH   6   9
ATOM      7  O   UNL     1      29.987 -25.834 -16.153  0.00  0.00    -0.274 OA
ATOM      8  N   UNL     1      28.958 -25.201 -14.200  0.00  0.00    -0.327 N 
ATOM      9  C   UNL     1      29.802 -24.999 -15.272  0.00  0.00    +0.238 C 
ATOM     10  H   UNL     1      28.493 -26.063 -14.096  0.00  0.00    +0.145 HD
ATOM     11  H   UNL     1      28.821 -24.485 -13.539  0.00  0.00    +0.145 HD
ENDBRANCH   6   9
BRANCH   6  12
ATOM     12  C   UNL     1      30.020 -22.835 -16.524  0.00  0.00    +0.138 C 
BRANCH  12  14
ATOM     13  O   UNL     1      27.829 -22.017 -15.837  0.00  0.00    -0.250 OA
ATOM     14  C   UNL     1      28.522 -22.644 -16.626  0.00  0.00    +0.316 C 
BRANCH  14  15
ATOM     15  O   UNL     1      28.015 -23.271 -17.720  0.00  0.00    -0.480 OA
ATOM     16  H   UNL     1      27.206 -22.981 -18.094  0.00  0.00    +0.295 HD
ENDBRANCH  14  15
ENDBRANCH  12  14
ENDBRANCH   6  12
ENDBRANCH   3   6
ENDBRANCH   1   4
BRANCH   1  17
ATOM     17  N   UNL     1      34.601 -22.749 -14.922  0.00  0.00    +0.399 N 
ATOM     18  H1  UNL     1      35.295 -22.271 -14.346  0.00  0.00    -0.083 HD
ATOM     19  H2  UNL     1      33.837 -22.116 -15.155  0.00  0.00    -0.083 HD
BRANCH  17  20
ATOM     20  CA  UNL     1      35.231 -23.196 -16.154  0.00  0.00    +0.041 C 
BRANCH  20  22
ATOM     21  OXT UNL     1      36.964 -21.485 -16.151  0.00  0.00    -0.253 OA
ATOM     22  C   UNL     1      36.656 -22.671 -16.139  0.00  0.00    +0.293 C 
BRANCH  22  23
ATOM     23  O   UNL     1      37.576 -23.667 -16.083  0.00  0.00    -0.482 OA
ATOM     24  H   UNL     1      38.204 -23.686 -15.388  0.00  0.00    +0.295 HD
ENDBRANCH  22  23
ENDBRANCH  20  22
BRANCH  20  25
ATOM     25  C   UNL     1      34.449 -22.641 -17.353  0.00  0.00    -0.006 C 
BRANCH  25  26
ATOM     26  C   UNL     1      35.299 -22.390 -18.608  0.00  0.00    +0.025 C 
BRANCH  26  27
ATOM     27  C   UNL     1      34.751 -21.333 -19.535  0.00  0.00    -0.022 C 
ATOM     28  C   UNL     1      35.622 -20.559 -20.301  0.00  0.00    -0.004 C 
ATOM     29  C   UNL     1      33.374 -21.130 -19.625  0.00  0.00    -0.004 C 
ATOM     30  C   UNL     1      35.115 -19.581 -21.158  0.00  0.00    -0.000 C 
ATOM     31  C   UNL     1      32.867 -20.154 -20.481  0.00  0.00    -0.000 C 
ATOM     32  C   UNL     1      33.738 -19.379 -21.248  0.00  0.00    -0.000 C 
ENDBRANCH  26  27
ENDBRANCH  25  26
ENDBRANCH  20  25
ENDBRANCH  17  20
ENDBRANCH   1  17
BRANCH   1  33
ATOM     33  C   UNL     1      34.749 -23.989 -12.807  0.00  0.00    +0.014 C 
BRANCH  33  34
ATOM     34  C   UNL     1      36.157 -24.527 -12.899  0.00  0.00    -0.024 C 
ATOM     35  C   UNL     1      36.412 -25.700 -13.608  0.00  0.00    -0.004 C 
ATOM     36  C   UNL     1      37.204 -23.850 -12.272  0.00  0.00    -0.004 C 
ATOM     37  C   UNL     1      37.712 -26.197 -13.693  0.00  0.00    -0.000 C 
ATOM     38  C   UNL     1      38.505 -24.346 -12.357  0.00  0.00    -0.000 C 
ATOM     39  C   UNL     1      38.759 -25.520 -13.067  0.00  0.00    -0.000 C 
ENDBRANCH  33  34
ENDBRANCH   1  33
TORSDOF 15
ENDMDL
MODEL 5
REMARK VINA RESULT:      -9.8      7.706     11.689
REMARK  Name = 448836
REMARK  15 active torsions:
REMARK  status: ('A' for Active; 'I' for Inactive)
REMARK    1  A    between atoms: C_1  and  C_4
REMARK    2  A    between atoms: C_1  and  N_17
REMARK    3  A    between atoms: C_1  and  C_33
REMARK    4  A    between atoms: N_3  and  C_6
REMARK    5  A    between atoms: C_6  and  C_9
REMARK    6  A    between atoms: C_6  and  C_12
REMARK    7  A    between atoms: C_12  and  C_14
REMARK    8  A    between atoms: C_14  and  O_15
REMARK    9  A    between atoms: N_17  and  CA_20
REMARK   10  A    between atoms: CA_20  and  C_22
REMARK   11  A    between atoms: CA_20  and  C_25
REMARK   12  A    between atoms: C_22  and  O_23
REMARK   13  A    between atoms: C_25  and  C_26
REMARK   14  A    between atoms: C_26  and  C_27
REMARK   15  A    between atoms: C_33  and  C_34
REMARK                            x       y       z     vdW  Elec       q    Type
REMARK                         _______ _______ _______ _____ _____    ______ ____
ROOT
ATOM      1  C   UNL     1      34.026 -14.506 -21.948  0.00  0.00    +0.022 C 
ENDROOT
BRANCH   1   4
ATOM      2  O   UNL     1      34.965 -15.562 -19.980  0.00  0.00    -0.277 OA
ATOM      3  N   UNL     1      34.358 -16.901 -21.773  0.00  0.00    -0.300 N 
ATOM      4  C   UNL     1      34.497 -15.690 -21.110  0.00  0.00    +0.203 C 
ATOM      5  H   UNL     1      33.971 -16.906 -22.679  0.00  0.00    +0.150 HD
BRANCH   3   6
ATOM      6  C   UNL     1      34.763 -18.152 -21.179  0.00  0.00    +0.159 C 
BRANCH   6   9
ATOM      7  O   UNL     1      37.021 -19.030 -21.012  0.00  0.00    -0.274 OA
ATOM      8  N   UNL     1      36.368 -18.052 -22.985  0.00  0.00    -0.327 N 
ATOM      9  C   UNL     1      36.158 -18.481 -21.692  0.00  0.00    +0.238 C 
ATOM     10  H   UNL     1      37.236 -18.211 -23.421  0.00  0.00    +0.145 HD
ATOM     11  H   UNL     1      35.650 -17.588 -23.473  0.00  0.00    +0.145 HD
ENDBRANCH   6   9
BRANCH   6  12
ATOM     12  C   UNL     1      33.785 -19.279 -21.514  0.00  0.00    +0.138 C 
BRANCH  12  14
ATOM     13  O   UNL     1      32.537 -20.486 -19.802  0.00  0.00    -0.250 OA
ATOM     14  C   UNL     1      33.595 -20.250 -20.368  0.00  0.00    +0.316 C 
BRANCH  14  15
ATOM     15  O   UNL     1      34.768 -20.844 -20.022  0.00  0.00    -0.480 OA
ATOM     16  H   UNL     1      34.944 -21.046 -19.124  0.00  0.00    +0.295 HD
ENDBRANCH  14  15
ENDBRANCH  12  14
ENDBRANCH   6  12
ENDBRANCH   3   6
ENDBRANCH   1   4
BRANCH   1  17
ATOM     17  N   UNL     1      34.494 -14.743 -23.314  0.00  0.00    +0.399 N 
ATOM     18  H1  UNL     1      35.157 -15.518 -23.311  0.00  0.00    -0.083 HD
ATOM     19  H2  UNL     1      34.941 -13.895 -23.659  0.00  0.00    -0.083 HD
BRANCH  17  20
ATOM     20  CA  UNL     1      33.379 -15.073 -24.188  0.00  0.00    +0.041 C 
BRANCH  20  22
ATOM     21  OXT UNL     1      33.297 -16.375 -26.243  0.00  0.00    -0.253 OA
ATOM     22  C   UNL     1      33.907 -16.036 -25.236  0.00  0.00    +0.293 C 
BRANCH  22  23
ATOM     23  O   UNL     1      35.161 -16.474 -24.955  0.00  0.00    -0.482 OA
ATOM     24  H   UNL     1      35.834 -16.414 -25.604  0.00  0.00    +0.295 HD
ENDBRANCH  22  23
ENDBRANCH  20  22
BRANCH  20  25
ATOM     25  C   UNL     1      32.846 -13.787 -24.836  0.00  0.00    -0.006 C 
BRANCH  25  26
ATOM     26  C   UNL     1      33.865 -13.048 -25.718  0.00  0.00    +0.025 C 
BRANCH  26  27
ATOM     27  C   UNL     1      34.202 -11.653 -25.251  0.00  0.00    -0.022 C 
ATOM     28  C   UNL     1      35.147 -10.896 -25.943  0.00  0.00    -0.004 C 
ATOM     29  C   UNL     1      33.568 -11.122 -24.127  0.00  0.00    -0.004 C 
ATOM     30  C   UNL     1      35.458  -9.606 -25.511  0.00  0.00    -0.000 C 
ATOM     31  C   UNL     1      33.879  -9.833 -23.696  0.00  0.00    -0.000 C 
ATOM     32  C   UNL     1      34.825  -9.075 -24.388  0.00  0.00    -0.000 C 
ENDBRANCH  26  27
ENDBRANCH  25  26
ENDBRANCH  20  25
ENDBRANCH  17  20
ENDBRANCH   1  17
BRANCH   1  33
ATOM     33  C   UNL     1      32.493 -14.402 -21.931  0.00  0.00    +0.014 C 
BRANCH  33  34
ATOM     34  C   UNL     1      32.000 -13.102 -21.341  0.00  0.00    -0.024 C 
ATOM     35  C   UNL     1      31.332 -12.179 -22.145  0.00  0.00    -0.004 C 
ATOM     36  C   UNL     1      32.214 -12.823 -19.990  0.00  0.00    -0.004 C 
ATOM     37  C   UNL     1      30.877 -10.979 -21.601  0.00  0.00    -0.000 C 
ATOM     38  C   UNL     1      31.759 -11.623 -19.445  0.00  0.00    -0.000 C 
ATOM     39  C   UNL     1      31.090 -10.700 -20.251  0.00  0.00    -0.000 C 
ENDBRANCH  33  34
ENDBRANCH   1  33
TORSDOF 15
ENDMDL
MODEL 6
REMARK VINA RESULT:      -9.7      3.303      7.369
REMARK  Name = 448836
REMARK  15 active torsions:
REMARK  status: ('A' for Active; 'I' for Inactive)
REMARK    1  A    between atoms: C_1  and  C_4
REMARK    2  A    between atoms: C_1  and  N_17
REMARK    3  A    between atoms: C_1  and  C_33
REMARK    4  A    between atoms: N_3  and  C_6
REMARK    5  A    between atoms: C_6  and  C_9
REMARK    6  A    between atoms: C_6  and  C_12
REMARK    7  A    between atoms: C_12  and  C_14
REMARK    8  A    between atoms: C_14  and  O_15
REMARK    9  A    between atoms: N_17  and  CA_20
REMARK   10  A    between atoms: CA_20  and  C_22
REMARK   11  A    between atoms: CA_20  and  C_25
REMARK   12  A    between atoms: C_22  and  O_23
REMARK   13  A    between atoms: C_25  and  C_26
REMARK   14  A    between atoms: C_26  and  C_27
REMARK   15  A    between atoms: C_33  and  C_34
REMARK                            x       y       z     vdW  Elec       q    Type
REMARK                         _______ _______ _______ _____ _____    ______ ____
ROOT
ATOM      1  C   UNL     1      33.153 -23.252 -16.801  0.00  0.00    +0.022 C 
ENDROOT
BRANCH   1   4
ATOM      2  O   UNL     1      31.088 -22.085 -17.294  0.00  0.00    -0.277 OA
ATOM      3  N   UNL     1      31.017 -23.905 -15.859  0.00  0.00    -0.300 N 
ATOM      4  C   UNL     1      31.652 -23.004 -16.701  0.00  0.00    +0.203 C 
ATOM      5  H   UNL     1      31.552 -24.609 -15.425  0.00  0.00    +0.150 HD
BRANCH   3   6
ATOM      6  C   UNL     1      29.599 -23.843 -15.595  0.00  0.00    +0.159 C 
BRANCH   6   9
ATOM      7  O   UNL     1      28.258 -25.558 -14.520  0.00  0.00    -0.274 OA
ATOM      8  N   UNL     1      30.235 -24.933 -13.532  0.00  0.00    -0.327 N 
ATOM      9  C   UNL     1      29.280 -24.877 -14.525  0.00  0.00    +0.238 C 
ATOM     10  H   UNL     1      30.133 -25.568 -12.786  0.00  0.00    +0.145 HD
ATOM     11  H   UNL     1      31.020 -24.340 -13.569  0.00  0.00    +0.145 HD
ENDBRANCH   6   9
BRANCH   6  12
ATOM     12  C   UNL     1      28.778 -24.102 -16.858  0.00  0.00    +0.138 C 
BRANCH  12  14
ATOM     13  O   UNL     1      27.001 -22.953 -18.070  0.00  0.00    -0.250 OA
ATOM     14  C   UNL     1      27.887 -22.935 -17.227  0.00  0.00    +0.316 C 
BRANCH  14  15
ATOM     15  O   UNL     1      28.194 -21.828 -16.500  0.00  0.00    -0.480 OA
ATOM     16  H   UNL     1      28.160 -20.981 -16.900  0.00  0.00    +0.295 HD
ENDBRANCH  14  15
ENDBRANCH  12  14
ENDBRANCH   6  12
ENDBRANCH   3   6
ENDBRANCH   1   4
BRANCH   1  17
ATOM     17  N   UNL     1      33.448 -24.405 -15.950  0.00  0.00    +0.399 N 
ATOM     18  H1  UNL     1      33.816 -25.163 -16.527  0.00  0.00    -0.083 HD
ATOM     19  H2  UNL     1      32.589 -24.699 -15.486  0.00  0.00    -0.083 HD
BRANCH  17  20
ATOM     20  CA  UNL     1      34.431 -24.057 -14.937  0.00  0.00    +0.041 C 
BRANCH  20  22
ATOM     21  OXT UNL     1      32.672 -23.434 -13.372  0.00  0.00    -0.253 OA
ATOM     22  C   UNL     1      33.708 -24.048 -13.601  0.00  0.00    +0.293 C 
BRANCH  22  23
ATOM     23  O   UNL     1      34.321 -24.824 -12.673  0.00  0.00    -0.482 OA
ATOM     24  H   UNL     1      35.252 -24.926 -12.689  0.00  0.00    +0.295 HD
ENDBRANCH  22  23
ENDBRANCH  20  22
BRANCH  20  25
ATOM     25  C   UNL     1      35.020 -22.675 -15.257  0.00  0.00    -0.006 C 
BRANCH  25  26
ATOM     26  C   UNL     1      36.548 -22.654 -15.409  0.00  0.00    +0.025 C 
BRANCH  26  27
ATOM     27  C   UNL     1      37.286 -23.554 -14.448  0.00  0.00    -0.022 C 
ATOM     28  C   UNL     1      37.298 -23.258 -13.085  0.00  0.00    -0.004 C 
ATOM     29  C   UNL     1      37.954 -24.683 -14.923  0.00  0.00    -0.004 C 
ATOM     30  C   UNL     1      37.980 -24.091 -12.197  0.00  0.00    -0.000 C 
ATOM     31  C   UNL     1      38.634 -25.515 -14.035  0.00  0.00    -0.000 C 
ATOM     32  C   UNL     1      38.648 -25.219 -12.672  0.00  0.00    -0.000 C 
ENDBRANCH  26  27
ENDBRANCH  25  26
ENDBRANCH  20  25
ENDBRANCH  17  20
ENDBRANCH   1  17
BRANCH   1  33
ATOM     33  C   UNL     1      33.559 -23.556 -18.252  0.00  0.00    +0.014 C 
BRANCH  33  34
ATOM     34  C   UNL     1      34.122 -22.351 -18.968  0.00  0.00    -0.024 C 
ATOM     35  C   UNL     1      35.490 -22.085 -18.918  0.00  0.00    -0.004 C 
ATOM     36  C   UNL     1      33.272 -21.503 -19.679  0.00  0.00    -0.004 C 
ATOM     37  C   UNL     1      36.009 -20.973 -19.579  0.00  0.00    -0.000 C 
ATOM     38  C   UNL     1      33.791 -20.390 -20.341  0.00  0.00    -0.000 C 
ATOM     39  C   UNL     1      35.160 -20.125 -20.290  0.00  0.00    -0.000 C 
ENDBRANCH  33  34
ENDBRANCH   1  33
TORSDOF 15
ENDMDL
MODEL 7
REMARK VINA RESULT:      -9.6      9.339     13.381
REMARK  Name = 448836
REMARK  15 active torsions:
REMARK  status: ('A' for Active; 'I' for Inactive)
REMARK    1  A    between atoms: C_1  and  C_4
REMARK    2  A    between atoms: C_1  and  N_17
REMARK    3  A    between atoms: C_1  and  C_33
REMARK    4  A    between atoms: N_3  and  C_6
REMARK    5  A    between atoms: C_6  and  C_9
REMARK    6  A    between atoms: C_6  and  C_12
REMARK    7  A    between atoms: C_12  and  C_14
REMARK    8  A    between atoms: C_14  and  O_15
REMARK    9  A    between atoms: N_17  and  CA_20
REMARK   10  A    between atoms: CA_20  and  C_22
REMARK   11  A    between atoms: CA_20  and  C_25
REMARK   12  A    between atoms: C_22  and  O_23
REMARK   13  A    between atoms: C_25  and  C_26
REMARK   14  A    between atoms: C_26  and  C_27
REMARK   15  A    between atoms: C_33  and  C_34
REMARK                            x       y       z     vdW  Elec       q    Type
REMARK                         _______ _______ _______ _____ _____    ______ ____
ROOT
ATOM      1  C   UNL     1      33.487 -13.498 -22.557  0.00  0.00    +0.022 C 
ENDROOT
BRANCH   1   4
ATOM      2  O   UNL     1      32.326 -15.465 -21.748  0.00  0.00    -0.277 OA
ATOM      3  N   UNL     1      34.450 -15.721 -22.641  0.00  0.00    -0.300 N 
ATOM      4  C   UNL     1      33.332 -14.988 -22.271  0.00  0.00    +0.203 C 
ATOM      5  H   UNL     1      35.212 -15.252 -23.054  0.00  0.00    +0.150 HD
BRANCH   3   6
ATOM      6  C   UNL     1      34.535 -17.148 -22.440  0.00  0.00    +0.159 C 
BRANCH   6   9
ATOM      7  O   UNL     1      35.252 -16.535 -20.203  0.00  0.00    -0.274 OA
ATOM      8  N   UNL     1      35.716 -18.653 -20.961  0.00  0.00    -0.327 N 
ATOM      9  C   UNL     1      35.179 -17.389 -21.082  0.00  0.00    +0.238 C 
ATOM     10  H   UNL     1      36.159 -18.921 -20.123  0.00  0.00    +0.145 HD
ATOM     11  H   UNL     1      35.656 -19.288 -21.711  0.00  0.00    +0.145 HD
ENDBRANCH   6   9
BRANCH   6  12
ATOM     12  C   UNL     1      35.340 -17.828 -23.548  0.00  0.00    +0.138 C 
BRANCH  12  14
ATOM     13  O   UNL     1      33.813 -18.725 -25.223  0.00  0.00    -0.250 OA
ATOM     14  C   UNL     1      34.604 -17.861 -24.870  0.00  0.00    +0.316 C 
BRANCH  14  15
ATOM     15  O   UNL     1      34.934 -16.797 -25.648  0.00  0.00    -0.480 OA
ATOM     16  H   UNL     1      35.451 -16.101 -25.295  0.00  0.00    +0.295 HD
ENDBRANCH  14  15
ENDBRANCH  12  14
ENDBRANCH   6  12
ENDBRANCH   3   6
ENDBRANCH   1   4
BRANCH   1  17
ATOM     17  N   UNL     1      34.171 -13.384 -23.845  0.00  0.00    +0.399 N 
ATOM     18  H1  UNL     1      34.443 -14.315 -24.164  0.00  0.00    -0.083 HD
ATOM     19  H2  UNL     1      34.995 -12.796 -23.728  0.00  0.00    -0.083 HD
BRANCH  17  20
ATOM     20  CA  UNL     1      33.299 -12.778 -24.837  0.00  0.00    +0.041 C 
BRANCH  20  22
ATOM     21  OXT UNL     1      32.762 -14.937 -25.825  0.00  0.00    -0.253 OA
ATOM     22  C   UNL     1      33.145 -13.781 -25.966  0.00  0.00    +0.293 C 
BRANCH  22  23
ATOM     23  O   UNL     1      33.454 -13.254 -27.177  0.00  0.00    -0.482 OA
ATOM     24  H   UNL     1      33.290 -13.745 -27.958  0.00  0.00    +0.295 HD
ENDBRANCH  22  23
ENDBRANCH  20  22
BRANCH  20  25
ATOM     25  C   UNL     1      33.935 -11.473 -25.340  0.00  0.00    -0.006 C 
BRANCH  25  26
ATOM     26  C   UNL     1      34.592 -10.621 -24.244  0.00  0.00    +0.025 C 
BRANCH  26  27
ATOM     27  C   UNL     1      34.010  -9.236 -24.094  0.00  0.00    -0.022 C 
ATOM     28  C   UNL     1      32.632  -9.044 -24.198  0.00  0.00    -0.004 C 
ATOM     29  C   UNL     1      34.850  -8.149 -23.852  0.00  0.00    -0.004 C 
ATOM     30  C   UNL     1      32.094  -7.764 -24.059  0.00  0.00    -0.000 C 
ATOM     31  C   UNL     1      34.312  -6.870 -23.713  0.00  0.00    -0.000 C 
ATOM     32  C   UNL     1      32.934  -6.677 -23.817  0.00  0.00    -0.000 C 
ENDBRANCH  26  27
ENDBRANCH  25  26
ENDBRANCH  20  25
ENDBRANCH  17  20
ENDBRANCH   1  17
BRANCH   1  33
ATOM     33  C   UNL     1      32.114 -12.812 -22.632  0.00  0.00    +0.014 C 
BRANCH  33  34
ATOM     34  C   UNL     1      31.880 -11.843 -21.497  0.00  0.00    -0.024 C 
ATOM     35  C   UNL     1      31.789 -12.312 -20.186  0.00  0.00    -0.004 C 
ATOM     36  C   UNL     1      31.755 -10.479 -21.760  0.00  0.00    -0.004 C 
ATOM     37  C   UNL     1      31.573 -11.417 -19.139  0.00  0.00    -0.000 C 
ATOM     38  C   UNL     1      31.540  -9.583 -20.712  0.00  0.00    -0.000 C 
ATOM     39  C   UNL     1      31.449 -10.053 -19.401  0.00  0.00    -0.000 C 
ENDBRANCH  33  34
ENDBRANCH   1  33
TORSDOF 15
ENDMDL
MODEL 8
REMARK VINA RESULT:      -9.6      1.855      5.371
REMARK  Name = 448836
REMARK  15 active torsions:
REMARK  status: ('A' for Active; 'I' for Inactive)
REMARK    1  A    between atoms: C_1  and  C_4
REMARK    2  A    between atoms: C_1  and  N_17
REMARK    3  A    between atoms: C_1  and  C_33
REMARK    4  A    between atoms: N_3  and  C_6
REMARK    5  A    between atoms: C_6  and  C_9
REMARK    6  A    between atoms: C_6  and  C_12
REMARK    7  A    between atoms: C_12  and  C_14
REMARK    8  A    between atoms: C_14  and  O_15
REMARK    9  A    between atoms: N_17  and  CA_20
REMARK   10  A    between atoms: CA_20  and  C_22
REMARK   11  A    between atoms: CA_20  and  C_25
REMARK   12  A    between atoms: C_22  and  O_23
REMARK   13  A    between atoms: C_25  and  C_26
REMARK   14  A    between atoms: C_26  and  C_27
REMARK   15  A    between atoms: C_33  and  C_34
REMARK                            x       y       z     vdW  Elec       q    Type
REMARK                         _______ _______ _______ _____ _____    ______ ____
ROOT
ATOM      1  C   UNL     1      36.236 -23.876 -15.745  0.00  0.00    +0.022 C 
ENDROOT
BRANCH   1   4
ATOM      2  O   UNL     1      37.809 -22.835 -14.226  0.00  0.00    -0.277 OA
ATOM      3  N   UNL     1      38.087 -25.078 -14.742  0.00  0.00    -0.300 N 
ATOM      4  C   UNL     1      37.446 -23.850 -14.817  0.00  0.00    +0.203 C 
ATOM      5  H   UNL     1      37.722 -25.838 -15.252  0.00  0.00    +0.150 HD
BRANCH   3   6
ATOM      6  C   UNL     1      39.271 -25.279 -13.941  0.00  0.00    +0.159 C 
BRANCH   6   9
ATOM      7  O   UNL     1      40.421 -25.771 -16.023  0.00  0.00    -0.274 OA
ATOM      8  N   UNL     1      41.090 -26.863 -14.116  0.00  0.00    -0.327 N 
ATOM      9  C   UNL     1      40.312 -25.964 -14.815  0.00  0.00    +0.238 C 
ATOM     10  H   UNL     1      41.798 -27.366 -14.581  0.00  0.00    +0.145 HD
ATOM     11  H   UNL     1      40.938 -27.002 -13.154  0.00  0.00    +0.145 HD
ENDBRANCH   6   9
BRANCH   6  12
ATOM     12  C   UNL     1      38.976 -26.116 -12.696  0.00  0.00    +0.138 C 
BRANCH  12  14
ATOM     13  O   UNL     1      36.755 -26.241 -11.697  0.00  0.00    -0.250 OA
ATOM     14  C   UNL     1      37.778 -25.609 -11.920  0.00  0.00    +0.316 C 
BRANCH  14  15
ATOM     15  O   UNL     1      37.969 -24.334 -11.492  0.00  0.00    -0.480 OA
ATOM     16  H   UNL     1      37.565 -23.621 -11.947  0.00  0.00    +0.295 HD
ENDBRANCH  14  15
ENDBRANCH  12  14
ENDBRANCH   6  12
ENDBRANCH   3   6
ENDBRANCH   1   4
BRANCH   1  17
ATOM     17  N   UNL     1      35.210 -24.678 -15.078  0.00  0.00    +0.399 N 
ATOM     18  H1  UNL     1      35.659 -25.326 -14.429  0.00  0.00    -0.083 HD
ATOM     19  H2  UNL     1      34.684 -25.192 -15.784  0.00  0.00    -0.083 HD
BRANCH  17  20
ATOM     20  CA  UNL     1      34.292 -23.825 -14.339  0.00  0.00    +0.041 C 
BRANCH  20  22
ATOM     21  OXT UNL     1      35.306 -23.284 -12.193  0.00  0.00    -0.253 OA
ATOM     22  C   UNL     1      34.594 -24.021 -12.864  0.00  0.00    +0.293 C 
BRANCH  22  23
ATOM     23  O   UNL     1      33.962 -25.104 -12.344  0.00  0.00    -0.482 OA
ATOM     24  H   UNL     1      33.806 -25.156 -11.421  0.00  0.00    +0.295 HD
ENDBRANCH  22  23
ENDBRANCH  20  22
BRANCH  20  25
ATOM     25  C   UNL     1      32.848 -24.231 -14.668  0.00  0.00    -0.006 C 
BRANCH  25  26
ATOM     26  C   UNL     1      31.790 -23.183 -14.293  0.00  0.00    +0.025 C 
BRANCH  26  27
ATOM     27  C   UNL     1      30.477 -23.330 -15.022  0.00  0.00    -0.022 C 
ATOM     28  C   UNL     1      29.590 -22.254 -15.085  0.00  0.00    -0.004 C 
ATOM     29  C   UNL     1      30.150 -24.540 -15.633  0.00  0.00    -0.004 C 
ATOM     30  C   UNL     1      28.377 -22.390 -15.759  0.00  0.00    -0.000 C 
ATOM     31  C   UNL     1      28.937 -24.676 -16.308  0.00  0.00    -0.000 C 
ATOM     32  C   UNL     1      28.050 -23.601 -16.371  0.00  0.00    -0.000 C 
ENDBRANCH  26  27
ENDBRANCH  25  26
ENDBRANCH  20  25
ENDBRANCH  17  20
ENDBRANCH   1  17
BRANCH   1  33
ATOM     33  C   UNL     1      35.709 -22.454 -15.993  0.00  0.00    +0.014 C 
BRANCH  33  34
ATOM     34  C   UNL     1      35.563 -22.132 -17.462  0.00  0.00    -0.024 C 
ATOM     35  C   UNL     1      36.622 -21.551 -18.158  0.00  0.00    -0.004 C 
ATOM     36  C   UNL     1      34.366 -22.416 -18.122  0.00  0.00    -0.004 C 
ATOM     37  C   UNL     1      36.486 -21.253 -19.514  0.00  0.00    -0.000 C 
ATOM     38  C   UNL     1      34.230 -22.119 -19.478  0.00  0.00    -0.000 C 
ATOM     39  C   UNL     1      35.291 -21.537 -20.174  0.00  0.00    -0.000 C 
ENDBRANCH  33  34
ENDBRANCH   1  33
TORSDOF 15
ENDMDL
MODEL 9
REMARK VINA RESULT:      -9.6      2.289      3.857
REMARK  Name = 448836
REMARK  15 active torsions:
REMARK  status: ('A' for Active; 'I' for Inactive)
REMARK    1  A    between atoms: C_1  and  C_4
REMARK    2  A    between atoms: C_1  and  N_17
REMARK    3  A    between atoms: C_1  and  C_33
REMARK    4  A    between atoms: N_3  and  C_6
REMARK    5  A    between atoms: C_6  and  C_9
REMARK    6  A    between atoms: C_6  and  C_12
REMARK    7  A    between atoms: C_12  and  C_14
REMARK    8  A    between atoms: C_14  and  O_15
REMARK    9  A    between atoms: N_17  and  CA_20
REMARK   10  A    between atoms: CA_20  and  C_22
REMARK   11  A    between atoms: CA_20  and  C_25
REMARK   12  A    between atoms: C_22  and  O_23
REMARK   13  A    between atoms: C_25  and  C_26
REMARK   14  A    between atoms: C_26  and  C_27
REMARK   15  A    between atoms: C_33  and  C_34
REMARK                            x       y       z     vdW  Elec       q    Type
REMARK                         _______ _______ _______ _____ _____    ______ ____
ROOT
ATOM      1  C   UNL     1      35.007 -22.423 -17.028  0.00  0.00    +0.022 C 
ENDROOT
BRANCH   1   4
ATOM      2  O   UNL     1      37.175 -21.623 -16.299  0.00  0.00    -0.277 OA
ATOM      3  N   UNL     1      36.213 -23.404 -15.168  0.00  0.00    -0.300 N 
ATOM      4  C   UNL     1      36.247 -22.415 -16.140  0.00  0.00    +0.203 C 
ATOM      5  H   UNL     1      35.426 -23.994 -15.116  0.00  0.00    +0.150 HD
BRANCH   3   6
ATOM      6  C   UNL     1      37.293 -23.598 -14.230  0.00  0.00    +0.159 C 
BRANCH   6   9
ATOM      7  O   UNL     1      39.483 -24.291 -15.019  0.00  0.00    -0.274 OA
ATOM      8  N   UNL     1      37.714 -25.728 -15.295  0.00  0.00    -0.327 N 
ATOM      9  C   UNL     1      38.294 -24.554 -14.865  0.00  0.00    +0.238 C 
ATOM     10  H   UNL     1      38.266 -26.423 -15.722  0.00  0.00    +0.145 HD
ATOM     11  H   UNL     1      36.747 -25.874 -15.174  0.00  0.00    +0.145 HD
ENDBRANCH   6   9
BRANCH   6  12
ATOM     12  C   UNL     1      36.791 -24.149 -12.896  0.00  0.00    +0.138 C 
BRANCH  12  14
ATOM     13  O   UNL     1      38.425 -22.750 -11.748  0.00  0.00    -0.250 OA
ATOM     14  C   UNL     1      37.449 -23.486 -11.704  0.00  0.00    +0.316 C 
BRANCH  14  15
ATOM     15  O   UNL     1      36.820 -23.813 -10.545  0.00  0.00    -0.480 OA
ATOM     16  H   UNL     1      36.082 -23.312 -10.255  0.00  0.00    +0.295 HD
ENDBRANCH  14  15
ENDBRANCH  12  14
ENDBRANCH   6  12
ENDBRANCH   3   6
ENDBRANCH   1   4
BRANCH   1  17
ATOM     17  N   UNL     1      35.480 -22.432 -18.413  0.00  0.00    +0.399 N 
ATOM     18  H1  UNL     1      35.144 -23.277 -18.876  0.00  0.00    -0.083 HD
ATOM     19  H2  UNL     1      36.499 -22.410 -18.412  0.00  0.00    -0.083 HD
BRANCH  17  20
ATOM     20  CA  UNL     1      34.987 -21.267 -19.131  0.00  0.00    +0.041 C 
BRANCH  20  22
ATOM     21  OXT UNL     1      33.178 -22.708 -19.891  0.00  0.00    -0.253 OA
ATOM     22  C   UNL     1      33.574 -21.590 -19.583  0.00  0.00    +0.293 C 
BRANCH  22  23
ATOM     23  O   UNL     1      32.768 -20.499 -19.589  0.00  0.00    -0.482 OA
ATOM     24  H   UNL     1      32.987 -19.752 -19.068  0.00  0.00    +0.295 HD
ENDBRANCH  22  23
ENDBRANCH  20  22
BRANCH  20  25
ATOM     25  C   UNL     1      35.903 -20.988 -20.332  0.00  0.00    -0.006 C 
BRANCH  25  26
ATOM     26  C   UNL     1      36.471 -19.562 -20.382  0.00  0.00    +0.025 C 
BRANCH  26  27
ATOM     27  C   UNL     1      35.811 -18.661 -21.398  0.00  0.00    -0.022 C 
ATOM     28  C   UNL     1      35.231 -17.459 -20.990  0.00  0.00    -0.004 C 
ATOM     29  C   UNL     1      35.781 -19.030 -22.743  0.00  0.00    -0.004 C 
ATOM     30  C   UNL     1      34.621 -16.626 -21.929  0.00  0.00    -0.000 C 
ATOM     31  C   UNL     1      35.172 -18.197 -23.681  0.00  0.00    -0.000 C 
ATOM     32  C   UNL     1      34.592 -16.995 -23.274  0.00  0.00    -0.000 C 
ENDBRANCH  26  27
ENDBRANCH  25  26
ENDBRANCH  20  25
ENDBRANCH  17  20
ENDBRANCH   1  17
BRANCH   1  33
ATOM     33  C   UNL     1      34.153 -23.671 -16.759  0.00  0.00    +0.014 C 
BRANCH  33  34
ATOM     34  C   UNL     1      32.842 -23.349 -16.081  0.00  0.00    -0.024 C 
ATOM     35  C   UNL     1      31.704 -23.098 -16.846  0.00  0.00    -0.004 C 
ATOM     36  C   UNL     1      32.771 -23.303 -14.688  0.00  0.00    -0.004 C 
ATOM     37  C   UNL     1      30.493 -22.800 -16.221  0.00  0.00    -0.000 C 
ATOM     38  C   UNL     1      31.560 -23.006 -14.062  0.00  0.00    -0.000 C 
ATOM     39  C   UNL     1      30.421 -22.755 -14.828  0.00  0.00    -0.000 C 
ENDBRANCH  33  34
ENDBRANCH   1  33
TORSDOF 15
ENDMDL
