MODEL 1
REMARK VINA RESULT:     -10.8      0.000      0.000
REMARK  Name = 11370952
REMARK  6 active torsions:
REMARK  status: ('A' for Active; 'I' for Inactive)
REMARK    1  A    between atoms: N_1  and  C_3
REMARK    2  A    between atoms: N_1  and  C_18
REMARK    3  A    between atoms: C_4  and  N_9
REMARK    4  A    between atoms: N_9  and  C_12
REMARK    5  A    between atoms: C_19  and  N_24
REMARK    6  A    between atoms: N_24  and  C_27
REMARK                            x       y       z     vdW  Elec       q    Type
REMARK                         _______ _______ _______ _____ _____    ______ ____
ROOT
ATOM      1  N   UNL     1      35.648 -18.482 -21.588  0.00  0.00    -0.313 N 
ATOM      2  H   UNL     1      36.630 -18.555 -21.586  0.00  0.00    +0.152 HD
ENDROOT
BRANCH   1   3
ATOM      3  C   UNL     1      35.166 -17.351 -22.280  0.00  0.00    +0.048 C 
ATOM      4  C   UNL     1      34.221 -15.113 -23.652  0.00  0.00    +0.047 C 
ATOM      5  C   UNL     1      34.853 -16.186 -21.581  0.00  0.00    +0.016 C 
ATOM      6  C   UNL     1      35.008 -17.397 -23.665  0.00  0.00    +0.016 C 
ATOM      7  C   UNL     1      34.380 -15.067 -22.266  0.00  0.00    +0.016 C 
ATOM      8  C   UNL     1      34.536 -16.278 -24.351  0.00  0.00    +0.016 C 
BRANCH   4   9
ATOM      9  N   UNL     1      33.746 -13.980 -24.345  0.00  0.00    -0.303 N 
ATOM     10  H   UNL     1      33.538 -14.155 -25.291  0.00  0.00    +0.150 HD
BRANCH   9  13
ATOM     11  N   UNL     1      34.255 -11.712 -24.551  0.00  0.00    -0.301 N 
ATOM     12  N   UNL     1      32.670 -12.226 -23.082  0.00  0.00    -0.301 N 
ATOM     13  C   UNL     1      33.510 -12.650 -23.949  0.00  0.00    +0.225 C 
ATOM     14  C   UNL     1      33.849 -10.525 -24.009  0.00  0.00    +0.076 C 
ATOM     15  C   UNL     1      32.870 -10.868 -23.105  0.00  0.00    +0.076 C 
ATOM     16  H   UNL     1      34.946 -11.848 -25.238  0.00  0.00    +0.150 HD
ATOM     17  H   UNL     1      32.038 -12.745 -22.534  0.00  0.00    +0.150 HD
ENDBRANCH   9  13
ENDBRANCH   4   9
ENDBRANCH   1   3
BRANCH   1  18
ATOM     18  C   UNL     1      35.000 -19.525 -20.898  0.00  0.00    +0.048 C 
ATOM     19  C   UNL     1      33.718 -21.590 -19.525  0.00  0.00    +0.047 C 
ATOM     20  C   UNL     1      35.752 -20.512 -20.259  0.00  0.00    +0.016 C 
ATOM     21  C   UNL     1      33.607 -19.572 -20.849  0.00  0.00    +0.016 C 
ATOM     22  C   UNL     1      35.112 -21.544 -19.574  0.00  0.00    +0.016 C 
ATOM     23  C   UNL     1      32.966 -20.604 -20.163  0.00  0.00    +0.016 C 
BRANCH  19  24
ATOM     24  N   UNL     1      33.070 -22.632 -18.830  0.00  0.00    -0.303 N 
ATOM     25  H   UNL     1      32.557 -23.237 -19.412  0.00  0.00    +0.150 HD
BRANCH  24  28
ATOM     26  N   UNL     1      31.796 -23.005 -16.910  0.00  0.00    -0.301 N 
ATOM     27  N   UNL     1      33.989 -23.269 -16.689  0.00  0.00    -0.301 N 
ATOM     28  C   UNL     1      33.015 -22.978 -17.465  0.00  0.00    +0.225 C 
ATOM     29  C   UNL     1      32.001 -23.360 -15.606  0.00  0.00    +0.076 C 
ATOM     30  C   UNL     1      33.362 -23.518 -15.495  0.00  0.00    +0.076 C 
ATOM     31  H   UNL     1      30.935 -22.811 -17.348  0.00  0.00    +0.150 HD
ATOM     32  H   UNL     1      34.951 -23.306 -16.898  0.00  0.00    +0.150 HD
ENDBRANCH  24  28
ENDBRANCH  19  24
ENDBRANCH   1  18
TORSDOF 6
ENDMDL
MODEL 2
REMARK VINA RESULT:     -10.8      2.741      5.551
REMARK  Name = 11370952
REMARK  6 active torsions:
REMARK  status: ('A' for Active; 'I' for Inactive)
REMARK    1  A    between atoms: N_1  and  C_3
REMARK    2  A    between atoms: N_1  and  C_18
REMARK    3  A    between atoms: C_4  and  N_9
REMARK    4  A    between atoms: N_9  and  C_12
REMARK    5  A    between atoms: C_19  and  N_24
REMARK    6  A    between atoms: N_24  and  C_27
REMARK                            x       y       z     vdW  Elec       q    Type
REMARK                         _______ _______ _______ _____ _____    ______ ____
ROOT
ATOM      1  N   UNL     1      32.917 -22.358 -18.779  0.00  0.00    -0.313 N 
ATOM      2  H   UNL     1      32.106 -22.717 -19.207  0.00  0.00    +0.152 HD
ENDROOT
BRANCH   1   3
ATOM      3  C   UNL     1      33.611 -21.422 -19.574  0.00  0.00    +0.048 C 
ATOM      4  C   UNL     1      34.981 -19.576 -21.155  0.00  0.00    +0.047 C 
ATOM      5  C   UNL     1      34.995 -21.516 -19.713  0.00  0.00    +0.016 C 
ATOM      6  C   UNL     1      32.911 -20.407 -20.226  0.00  0.00    +0.016 C 
ATOM      7  C   UNL     1      35.680 -20.594 -20.503  0.00  0.00    +0.016 C 
ATOM      8  C   UNL     1      33.597 -19.484 -21.016  0.00  0.00    +0.016 C 
BRANCH   4   9
ATOM      9  N   UNL     1      35.674 -18.645 -21.955  0.00  0.00    -0.303 N 
ATOM     10  H   UNL     1      36.596 -18.474 -21.653  0.00  0.00    +0.150 HD
BRANCH   9  13
ATOM     11  N   UNL     1      34.836 -18.624 -24.133  0.00  0.00    -0.301 N 
ATOM     12  N   UNL     1      35.369 -16.646 -23.274  0.00  0.00    -0.301 N 
ATOM     13  C   UNL     1      35.307 -17.911 -23.099  0.00  0.00    +0.225 C 
ATOM     14  C   UNL     1      34.554 -17.705 -25.105  0.00  0.00    +0.076 C 
ATOM     15  C   UNL     1      34.891 -16.492 -24.552  0.00  0.00    +0.076 C 
ATOM     16  H   UNL     1      34.717 -19.600 -24.181  0.00  0.00    +0.150 HD
ATOM     17  H   UNL     1      35.682 -15.954 -22.648  0.00  0.00    +0.150 HD
ENDBRANCH   9  13
ENDBRANCH   4   9
ENDBRANCH   1   3
BRANCH   1  18
ATOM     18  C   UNL     1      33.157 -22.880 -17.493  0.00  0.00    +0.048 C 
ATOM     19  C   UNL     1      33.634 -23.909 -14.942  0.00  0.00    +0.047 C 
ATOM     20  C   UNL     1      34.466 -23.103 -17.062  0.00  0.00    +0.016 C 
ATOM     21  C   UNL     1      32.087 -23.172 -16.646  0.00  0.00    +0.016 C 
ATOM     22  C   UNL     1      34.704 -23.617 -15.788  0.00  0.00    +0.016 C 
ATOM     23  C   UNL     1      32.326 -23.685 -15.371  0.00  0.00    +0.016 C 
BRANCH  19  24
ATOM     24  N   UNL     1      33.875 -24.426 -13.652  0.00  0.00    -0.303 N 
ATOM     25  H   UNL     1      33.109 -24.914 -13.273  0.00  0.00    +0.150 HD
BRANCH  24  28
ATOM     26  N   UNL     1      35.907 -25.354 -12.973  0.00  0.00    -0.301 N 
ATOM     27  N   UNL     1      35.255 -23.533 -11.883  0.00  0.00    -0.301 N 
ATOM     28  C   UNL     1      34.997 -24.384 -12.802  0.00  0.00    +0.225 C 
ATOM     29  C   UNL     1      36.881 -25.101 -12.049  0.00  0.00    +0.076 C 
ATOM     30  C   UNL     1      36.457 -23.972 -11.389  0.00  0.00    +0.076 C 
ATOM     31  H   UNL     1      35.879 -26.090 -13.626  0.00  0.00    +0.150 HD
ATOM     32  H   UNL     1      34.722 -22.754 -11.601  0.00  0.00    +0.150 HD
ENDBRANCH  24  28
ENDBRANCH  19  24
ENDBRANCH   1  18
TORSDOF 6
ENDMDL
MODEL 3
REMARK VINA RESULT:     -10.8      0.601     10.097
REMARK  Name = 11370952
REMARK  6 active torsions:
REMARK  status: ('A' for Active; 'I' for Inactive)
REMARK    1  A    between atoms: N_1  and  C_3
REMARK    2  A    between atoms: N_1  and  C_18
REMARK    3  A    between atoms: C_4  and  N_9
REMARK    4  A    between atoms: N_9  and  C_12
REMARK    5  A    between atoms: C_19  and  N_24
REMARK    6  A    between atoms: N_24  and  C_27
REMARK                            x       y       z     vdW  Elec       q    Type
REMARK                         _______ _______ _______ _____ _____    ______ ____
ROOT
ATOM      1  N   UNL     1      35.527 -17.956 -21.647  0.00  0.00    -0.313 N 
ATOM      2  H   UNL     1      36.512 -17.958 -21.654  0.00  0.00    +0.152 HD
ENDROOT
BRANCH   1   3
ATOM      3  C   UNL     1      34.962 -19.093 -21.033  0.00  0.00    +0.048 C 
ATOM      4  C   UNL     1      33.846 -21.347 -19.827  0.00  0.00    +0.047 C 
ATOM      5  C   UNL     1      33.576 -19.237 -20.974  0.00  0.00    +0.016 C 
ATOM      6  C   UNL     1      35.789 -20.076 -20.490  0.00  0.00    +0.016 C 
ATOM      7  C   UNL     1      33.018 -20.364 -20.372  0.00  0.00    +0.016 C 
ATOM      8  C   UNL     1      35.231 -21.202 -19.887  0.00  0.00    +0.016 C 
BRANCH   4   9
ATOM      9  N   UNL     1      33.280 -22.487 -19.219  0.00  0.00    -0.303 N 
ATOM     10  H   UNL     1      32.986 -23.173 -19.862  0.00  0.00    +0.150 HD
BRANCH   9  13
ATOM     11  N   UNL     1      31.781 -22.787 -17.456  0.00  0.00    -0.301 N 
ATOM     12  N   UNL     1      33.915 -23.198 -17.001  0.00  0.00    -0.301 N 
ATOM     13  C   UNL     1      33.054 -22.837 -17.874  0.00  0.00    +0.225 C 
ATOM     14  C   UNL     1      31.818 -23.163 -16.142  0.00  0.00    +0.076 C 
ATOM     15  C   UNL     1      33.146 -23.411 -15.885  0.00  0.00    +0.076 C 
ATOM     16  H   UNL     1      30.988 -22.534 -17.982  0.00  0.00    +0.150 HD
ATOM     17  H   UNL     1      34.890 -23.296 -17.103  0.00  0.00    +0.150 HD
ENDBRANCH   9  13
ENDBRANCH   4   9
ENDBRANCH   1   3
BRANCH   1  18
ATOM     18  C   UNL     1      34.960 -16.817 -22.252  0.00  0.00    +0.048 C 
ATOM     19  C   UNL     1      33.829 -14.564 -23.451  0.00  0.00    +0.047 C 
ATOM     20  C   UNL     1      34.710 -16.807 -23.625  0.00  0.00    +0.016 C 
ATOM     21  C   UNL     1      34.643 -15.700 -21.479  0.00  0.00    +0.016 C 
ATOM     22  C   UNL     1      34.145 -15.681 -24.224  0.00  0.00    +0.016 C 
ATOM     23  C   UNL     1      34.077 -14.574 -22.078  0.00  0.00    +0.016 C 
BRANCH  19  24
ATOM     24  N   UNL     1      33.255 -13.427 -24.056  0.00  0.00    -0.303 N 
ATOM     25  H   UNL     1      32.453 -13.625 -24.590  0.00  0.00    +0.150 HD
BRANCH  24  28
ATOM     26  N   UNL     1      32.844 -11.264 -23.281  0.00  0.00    -0.301 N 
ATOM     27  N   UNL     1      34.559 -11.490 -24.673  0.00  0.00    -0.301 N 
ATOM     28  C   UNL     1      33.605 -12.062 -24.044  0.00  0.00    +0.225 C 
ATOM     29  C   UNL     1      33.372 -10.012 -23.433  0.00  0.00    +0.076 C 
ATOM     30  C   UNL     1      34.429 -10.178 -24.295  0.00  0.00    +0.076 C 
ATOM     31  H   UNL     1      32.071 -11.523 -22.729  0.00  0.00    +0.150 HD
ATOM     32  H   UNL     1      35.223 -11.893 -25.279  0.00  0.00    +0.150 HD
ENDBRANCH  24  28
ENDBRANCH  19  24
ENDBRANCH   1  18
TORSDOF 6
ENDMDL
MODEL 4
REMARK VINA RESULT:     -10.8      0.144     10.007
REMARK  Name = 11370952
REMARK  6 active torsions:
REMARK  status: ('A' for Active; 'I' for Inactive)
REMARK    1  A    between atoms: N_1  and  C_3
REMARK    2  A    between atoms: N_1  and  C_18
REMARK    3  A    between atoms: C_4  and  N_9
REMARK    4  A    between atoms: N_9  and  C_12
REMARK    5  A    between atoms: C_19  and  N_24
REMARK    6  A    between atoms: N_24  and  C_27
REMARK                            x       y       z     vdW  Elec       q    Type
REMARK                         _______ _______ _______ _____ _____    ______ ____
ROOT
ATOM      1  N   UNL     1      35.671 -18.627 -21.618  0.00  0.00    -0.313 N 
ATOM      2  H   UNL     1      36.650 -18.728 -21.654  0.00  0.00    +0.152 HD
ENDROOT
BRANCH   1   3
ATOM      3  C   UNL     1      35.021 -19.650 -20.897  0.00  0.00    +0.048 C 
ATOM      4  C   UNL     1      33.736 -21.671 -19.464  0.00  0.00    +0.047 C 
ATOM      5  C   UNL     1      35.772 -20.634 -20.254  0.00  0.00    +0.016 C 
ATOM      6  C   UNL     1      33.629 -19.676 -20.823  0.00  0.00    +0.016 C 
ATOM      7  C   UNL     1      35.130 -21.644 -19.538  0.00  0.00    +0.016 C 
ATOM      8  C   UNL     1      32.987 -20.686 -20.107  0.00  0.00    +0.016 C 
BRANCH   4   9
ATOM      9  N   UNL     1      33.088 -22.691 -18.739  0.00  0.00    -0.303 N 
ATOM     10  H   UNL     1      32.548 -23.294 -19.300  0.00  0.00    +0.150 HD
BRANCH   9  13
ATOM     11  N   UNL     1      31.850 -23.035 -16.790  0.00  0.00    -0.301 N 
ATOM     12  N   UNL     1      34.048 -23.296 -16.608  0.00  0.00    -0.301 N 
ATOM     13  C   UNL     1      33.059 -23.016 -17.369  0.00  0.00    +0.225 C 
ATOM     14  C   UNL     1      32.080 -23.371 -15.485  0.00  0.00    +0.076 C 
ATOM     15  C   UNL     1      33.444 -23.526 -15.398  0.00  0.00    +0.076 C 
ATOM     16  H   UNL     1      30.981 -22.849 -17.214  0.00  0.00    +0.150 HD
ATOM     17  H   UNL     1      35.005 -23.335 -16.834  0.00  0.00    +0.150 HD
ENDBRANCH   9  13
ENDBRANCH   4   9
ENDBRANCH   1   3
BRANCH   1  18
ATOM     18  C   UNL     1      35.194 -17.488 -22.297  0.00  0.00    +0.048 C 
ATOM     19  C   UNL     1      34.255 -15.229 -23.642  0.00  0.00    +0.047 C 
ATOM     20  C   UNL     1      34.890 -16.327 -21.585  0.00  0.00    +0.016 C 
ATOM     21  C   UNL     1      35.028 -17.519 -23.681  0.00  0.00    +0.016 C 
ATOM     22  C   UNL     1      34.420 -15.198 -22.257  0.00  0.00    +0.016 C 
ATOM     23  C   UNL     1      34.559 -16.390 -24.354  0.00  0.00    +0.016 C 
BRANCH  19  24
ATOM     24  N   UNL     1      33.783 -14.088 -24.322  0.00  0.00    -0.303 N 
ATOM     25  H   UNL     1      33.636 -14.234 -25.284  0.00  0.00    +0.150 HD
BRANCH  24  28
ATOM     26  N   UNL     1      34.244 -11.801 -24.393  0.00  0.00    -0.301 N 
ATOM     27  N   UNL     1      32.559 -12.414 -23.085  0.00  0.00    -0.301 N 
ATOM     28  C   UNL     1      33.478 -12.781 -23.894  0.00  0.00    +0.225 C 
ATOM     29  C   UNL     1      33.762 -10.648 -23.839  0.00  0.00    +0.076 C 
ATOM     30  C   UNL     1      32.721 -11.052 -23.037  0.00  0.00    +0.076 C 
ATOM     31  H   UNL     1      34.994 -11.891 -25.025  0.00  0.00    +0.150 HD
ATOM     32  H   UNL     1      31.897 -12.971 -22.614  0.00  0.00    +0.150 HD
ENDBRANCH  24  28
ENDBRANCH  19  24
ENDBRANCH   1  18
TORSDOF 6
ENDMDL
MODEL 5
REMARK VINA RESULT:     -10.7      2.775     10.868
REMARK  Name = 11370952
REMARK  6 active torsions:
REMARK  status: ('A' for Active; 'I' for Inactive)
REMARK    1  A    between atoms: N_1  and  C_3
REMARK    2  A    between atoms: N_1  and  C_18
REMARK    3  A    between atoms: C_4  and  N_9
REMARK    4  A    between atoms: N_9  and  C_12
REMARK    5  A    between atoms: C_19  and  N_24
REMARK    6  A    between atoms: N_24  and  C_27
REMARK                            x       y       z     vdW  Elec       q    Type
REMARK                         _______ _______ _______ _____ _____    ______ ____
ROOT
ATOM      1  N   UNL     1      33.050 -22.400 -18.889  0.00  0.00    -0.313 N 
ATOM      2  H   UNL     1      32.351 -22.892 -19.378  0.00  0.00    +0.152 HD
ENDROOT
BRANCH   1   3
ATOM      3  C   UNL     1      33.236 -22.846 -17.564  0.00  0.00    +0.048 C 
ATOM      4  C   UNL     1      33.602 -23.721 -14.940  0.00  0.00    +0.047 C 
ATOM      5  C   UNL     1      34.524 -22.985 -17.049  0.00  0.00    +0.016 C 
ATOM      6  C   UNL     1      32.130 -23.143 -16.767  0.00  0.00    +0.016 C 
ATOM      7  C   UNL     1      34.708 -23.423 -15.738  0.00  0.00    +0.016 C 
ATOM      8  C   UNL     1      32.314 -23.580 -15.455  0.00  0.00    +0.016 C 
BRANCH   4   9
ATOM      9  N   UNL     1      33.787 -24.161 -13.613  0.00  0.00    -0.303 N 
ATOM     10  H   UNL     1      32.953 -24.438 -13.168  0.00  0.00    +0.150 HD
BRANCH   9  13
ATOM     11  N   UNL     1      35.735 -25.323 -13.060  0.00  0.00    -0.301 N 
ATOM     12  N   UNL     1      35.296 -23.519 -11.842  0.00  0.00    -0.301 N 
ATOM     13  C   UNL     1      34.930 -24.282 -12.800  0.00  0.00    +0.225 C 
ATOM     14  C   UNL     1      36.755 -25.225 -12.155  0.00  0.00    +0.076 C 
ATOM     15  C   UNL     1      36.461 -24.104 -11.414  0.00  0.00    +0.076 C 
ATOM     16  H   UNL     1      35.617 -26.011 -13.754  0.00  0.00    +0.150 HD
ATOM     17  H   UNL     1      34.851 -22.712 -11.495  0.00  0.00    +0.150 HD
ENDBRANCH   9  13
ENDBRANCH   4   9
ENDBRANCH   1   3
BRANCH   1  18
ATOM     18  C   UNL     1      33.667 -21.388 -19.649  0.00  0.00    +0.048 C 
ATOM     19  C   UNL     1      34.891 -19.386 -21.162  0.00  0.00    +0.047 C 
ATOM     20  C   UNL     1      35.050 -21.397 -19.833  0.00  0.00    +0.016 C 
ATOM     21  C   UNL     1      32.896 -20.376 -20.223  0.00  0.00    +0.016 C 
ATOM     22  C   UNL     1      35.662 -20.397 -20.589  0.00  0.00    +0.016 C 
ATOM     23  C   UNL     1      33.508 -19.375 -20.979  0.00  0.00    +0.016 C 
BRANCH  19  24
ATOM     24  N   UNL     1      35.508 -18.375 -21.928  0.00  0.00    -0.303 N 
ATOM     25  H   UNL     1      36.314 -17.998 -21.509  0.00  0.00    +0.150 HD
BRANCH  24  28
ATOM     26  N   UNL     1      34.713 -18.637 -24.108  0.00  0.00    -0.301 N 
ATOM     27  N   UNL     1      35.325 -16.581 -23.534  0.00  0.00    -0.301 N 
ATOM     28  C   UNL     1      35.198 -17.802 -23.177  0.00  0.00    +0.225 C 
ATOM     29  C   UNL     1      34.495 -17.859 -25.210  0.00  0.00    +0.076 C 
ATOM     30  C   UNL     1      34.879 -16.595 -24.831  0.00  0.00    +0.076 C 
ATOM     31  H   UNL     1      34.549 -19.603 -24.016  0.00  0.00    +0.150 HD
ATOM     32  H   UNL     1      35.658 -15.819 -23.006  0.00  0.00    +0.150 HD
ENDBRANCH  24  28
ENDBRANCH  19  24
ENDBRANCH   1  18
TORSDOF 6
ENDMDL
MODEL 6
REMARK VINA RESULT:     -10.6      1.053      1.585
REMARK  Name = 11370952
REMARK  6 active torsions:
REMARK  status: ('A' for Active; 'I' for Inactive)
REMARK    1  A    between atoms: N_1  and  C_3
REMARK    2  A    between atoms: N_1  and  C_18
REMARK    3  A    between atoms: C_4  and  N_9
REMARK    4  A    between atoms: N_9  and  C_12
REMARK    5  A    between atoms: C_19  and  N_24
REMARK    6  A    between atoms: N_24  and  C_27
REMARK                            x       y       z     vdW  Elec       q    Type
REMARK                         _______ _______ _______ _____ _____    ______ ____
ROOT
ATOM      1  N   UNL     1      35.888 -18.803 -21.332  0.00  0.00    -0.313 N 
ATOM      2  H   UNL     1      36.841 -18.951 -21.534  0.00  0.00    +0.152 HD
ENDROOT
BRANCH   1   3
ATOM      3  C   UNL     1      35.400 -17.559 -21.782  0.00  0.00    +0.048 C 
ATOM      4  C   UNL     1      34.427 -15.100 -22.671  0.00  0.00    +0.047 C 
ATOM      5  C   UNL     1      35.252 -17.321 -23.148  0.00  0.00    +0.016 C 
ATOM      6  C   UNL     1      35.061 -16.568 -20.861  0.00  0.00    +0.016 C 
ATOM      7  C   UNL     1      34.766 -16.092 -23.593  0.00  0.00    +0.016 C 
ATOM      8  C   UNL     1      34.575 -15.340 -21.305  0.00  0.00    +0.016 C 
BRANCH   4   9
ATOM      9  N   UNL     1      33.933 -13.858 -23.121  0.00  0.00    -0.303 N 
ATOM     10  H   UNL     1      33.670 -13.250 -22.392  0.00  0.00    +0.150 HD
BRANCH   9  13
ATOM     11  N   UNL     1      34.167 -12.059 -24.589  0.00  0.00    -0.301 N 
ATOM     12  N   UNL     1      33.211 -13.881 -25.424  0.00  0.00    -0.301 N 
ATOM     13  C   UNL     1      33.742 -13.317 -24.407  0.00  0.00    +0.225 C 
ATOM     14  C   UNL     1      33.877 -11.765 -25.892  0.00  0.00    +0.076 C 
ATOM     15  C   UNL     1      33.287 -12.905 -26.386  0.00  0.00    +0.076 C 
ATOM     16  H   UNL     1      34.598 -11.472 -23.927  0.00  0.00    +0.150 HD
ATOM     17  H   UNL     1      32.839 -14.789 -25.499  0.00  0.00    +0.150 HD
ENDBRANCH   9  13
ENDBRANCH   4   9
ENDBRANCH   1   3
BRANCH   1  18
ATOM     18  C   UNL     1      35.282 -19.875 -20.649  0.00  0.00    +0.048 C 
ATOM     19  C   UNL     1      34.081 -21.998 -19.290  0.00  0.00    +0.047 C 
ATOM     20  C   UNL     1      36.071 -20.852 -20.040  0.00  0.00    +0.016 C 
ATOM     21  C   UNL     1      33.891 -19.962 -20.578  0.00  0.00    +0.016 C 
ATOM     22  C   UNL     1      35.471 -21.913 -19.361  0.00  0.00    +0.016 C 
ATOM     23  C   UNL     1      33.291 -21.022 -19.899  0.00  0.00    +0.016 C 
BRANCH  19  24
ATOM     24  N   UNL     1      33.474 -23.068 -18.602  0.00  0.00    -0.303 N 
ATOM     25  H   UNL     1      33.442 -23.905 -19.120  0.00  0.00    +0.150 HD
BRANCH  24  28
ATOM     26  N   UNL     1      31.604 -22.868 -17.218  0.00  0.00    -0.301 N 
ATOM     27  N   UNL     1      33.480 -23.532 -16.232  0.00  0.00    -0.301 N 
ATOM     28  C   UNL     1      32.905 -23.177 -17.317  0.00  0.00    +0.225 C 
ATOM     29  C   UNL     1      31.291 -23.047 -15.900  0.00  0.00    +0.076 C 
ATOM     30  C   UNL     1      32.464 -23.457 -15.312  0.00  0.00    +0.076 C 
ATOM     31  H   UNL     1      31.002 -22.576 -17.941  0.00  0.00    +0.150 HD
ATOM     32  H   UNL     1      34.418 -23.796 -16.092  0.00  0.00    +0.150 HD
ENDBRANCH  24  28
ENDBRANCH  19  24
ENDBRANCH   1  18
TORSDOF 6
ENDMDL
MODEL 7
REMARK VINA RESULT:     -10.4      1.852      2.837
REMARK  Name = 11370952
REMARK  6 active torsions:
REMARK  status: ('A' for Active; 'I' for Inactive)
REMARK    1  A    between atoms: N_1  and  C_3
REMARK    2  A    between atoms: N_1  and  C_18
REMARK    3  A    between atoms: C_4  and  N_9
REMARK    4  A    between atoms: N_9  and  C_12
REMARK    5  A    between atoms: C_19  and  N_24
REMARK    6  A    between atoms: N_24  and  C_27
REMARK                            x       y       z     vdW  Elec       q    Type
REMARK                         _______ _______ _______ _____ _____    ______ ____
ROOT
ATOM      1  N   UNL     1      34.963 -17.040 -22.114  0.00  0.00    -0.313 N 
ATOM      2  H   UNL     1      35.704 -16.936 -22.756  0.00  0.00    +0.152 HD
ENDROOT
BRANCH   1   3
ATOM      3  C   UNL     1      34.115 -15.916 -22.042  0.00  0.00    +0.048 C 
ATOM      4  C   UNL     1      32.429 -13.697 -21.900  0.00  0.00    +0.047 C 
ATOM      5  C   UNL     1      33.794 -15.209 -23.201  0.00  0.00    +0.016 C 
ATOM      6  C   UNL     1      33.592 -15.514 -20.813  0.00  0.00    +0.016 C 
ATOM      7  C   UNL     1      32.952 -14.100 -23.130  0.00  0.00    +0.016 C 
ATOM      8  C   UNL     1      32.750 -14.405 -20.742  0.00  0.00    +0.016 C 
BRANCH   4   9
ATOM      9  N   UNL     1      31.576 -12.577 -21.829  0.00  0.00    -0.303 N 
ATOM     10  H   UNL     1      30.773 -12.656 -22.394  0.00  0.00    +0.150 HD
BRANCH   9  13
ATOM     11  N   UNL     1      31.930 -10.270 -21.825  0.00  0.00    -0.301 N 
ATOM     12  N   UNL     1      31.473 -11.190 -19.856  0.00  0.00    -0.301 N 
ATOM     13  C   UNL     1      31.646 -11.369 -21.110  0.00  0.00    +0.225 C 
ATOM     14  C   UNL     1      31.943  -9.245 -20.921  0.00  0.00    +0.076 C 
ATOM     15  C   UNL     1      31.659  -9.838 -19.713  0.00  0.00    +0.076 C 
ATOM     16  H   UNL     1      32.093 -10.213 -22.794  0.00  0.00    +0.150 HD
ATOM     17  H   UNL     1      31.261 -11.857 -19.164  0.00  0.00    +0.150 HD
ENDBRANCH   9  13
ENDBRANCH   4   9
ENDBRANCH   1   3
BRANCH   1  18
ATOM     18  C   UNL     1      34.961 -18.281 -21.449  0.00  0.00    +0.048 C 
ATOM     19  C   UNL     1      34.954 -20.745 -20.135  0.00  0.00    +0.047 C 
ATOM     20  C   UNL     1      33.753 -18.925 -21.175  0.00  0.00    +0.016 C 
ATOM     21  C   UNL     1      36.165 -18.872 -21.065  0.00  0.00    +0.016 C 
ATOM     22  C   UNL     1      33.749 -20.155 -20.519  0.00  0.00    +0.016 C 
ATOM     23  C   UNL     1      36.162 -20.103 -20.409  0.00  0.00    +0.016 C 
BRANCH  19  24
ATOM     24  N   UNL     1      34.951 -21.990 -19.474  0.00  0.00    -0.303 N 
ATOM     25  H   UNL     1      35.621 -22.624 -19.820  0.00  0.00    +0.150 HD
BRANCH  24  28
ATOM     26  N   UNL     1      34.844 -22.802 -17.288  0.00  0.00    -0.301 N 
ATOM     27  N   UNL     1      32.921 -22.726 -18.394  0.00  0.00    -0.301 N 
ATOM     28  C   UNL     1      34.180 -22.505 -18.414  0.00  0.00    +0.225 C 
ATOM     29  C   UNL     1      33.897 -23.276 -16.424  0.00  0.00    +0.076 C 
ATOM     30  C   UNL     1      32.718 -23.218 -17.129  0.00  0.00    +0.076 C 
ATOM     31  H   UNL     1      35.809 -22.700 -17.119  0.00  0.00    +0.150 HD
ATOM     32  H   UNL     1      32.260 -22.578 -19.109  0.00  0.00    +0.150 HD
ENDBRANCH  24  28
ENDBRANCH  19  24
ENDBRANCH   1  18
TORSDOF 6
ENDMDL
MODEL 8
REMARK VINA RESULT:     -10.1      2.716      4.734
REMARK  Name = 11370952
REMARK  6 active torsions:
REMARK  status: ('A' for Active; 'I' for Inactive)
REMARK    1  A    between atoms: N_1  and  C_3
REMARK    2  A    between atoms: N_1  and  C_18
REMARK    3  A    between atoms: C_4  and  N_9
REMARK    4  A    between atoms: N_9  and  C_12
REMARK    5  A    between atoms: C_19  and  N_24
REMARK    6  A    between atoms: N_24  and  C_27
REMARK                            x       y       z     vdW  Elec       q    Type
REMARK                         _______ _______ _______ _____ _____    ______ ____
ROOT
ATOM      1  N   UNL     1      35.349 -21.845 -19.602  0.00  0.00    -0.313 N 
ATOM      2  H   UNL     1      35.459 -22.605 -20.219  0.00  0.00    +0.152 HD
ENDROOT
BRANCH   1   3
ATOM      3  C   UNL     1      35.262 -20.596 -20.253  0.00  0.00    +0.048 C 
ATOM      4  C   UNL     1      35.093 -18.123 -21.532  0.00  0.00    +0.047 C 
ATOM      5  C   UNL     1      34.015 -20.060 -20.571  0.00  0.00    +0.016 C 
ATOM      6  C   UNL     1      36.425 -19.895 -20.574  0.00  0.00    +0.016 C 
ATOM      7  C   UNL     1      33.929 -18.824 -21.210  0.00  0.00    +0.016 C 
ATOM      8  C   UNL     1      36.340 -18.659 -21.213  0.00  0.00    +0.016 C 
BRANCH   4   9
ATOM      9  N   UNL     1      35.006 -16.872 -22.177  0.00  0.00    -0.303 N 
ATOM     10  H   UNL     1      35.311 -16.118 -21.621  0.00  0.00    +0.150 HD
BRANCH   9  13
ATOM     11  N   UNL     1      33.840 -15.364 -23.525  0.00  0.00    -0.301 N 
ATOM     12  N   UNL     1      34.780 -17.083 -24.571  0.00  0.00    -0.301 N 
ATOM     13  C   UNL     1      34.568 -16.488 -23.459  0.00  0.00    +0.225 C 
ATOM     14  C   UNL     1      33.540 -15.205 -24.849  0.00  0.00    +0.076 C 
ATOM     15  C   UNL     1      34.130 -16.279 -25.474  0.00  0.00    +0.076 C 
ATOM     16  H   UNL     1      33.578 -14.777 -22.779  0.00  0.00    +0.150 HD
ATOM     17  H   UNL     1      35.283 -17.912 -24.739  0.00  0.00    +0.150 HD
ENDBRANCH   9  13
ENDBRANCH   4   9
ENDBRANCH   1   3
BRANCH   1  18
ATOM     18  C   UNL     1      35.309 -22.217 -18.245  0.00  0.00    +0.048 C 
ATOM     19  C   UNL     1      35.231 -22.963 -15.555  0.00  0.00    +0.047 C 
ATOM     20  C   UNL     1      34.158 -22.803 -17.714  0.00  0.00    +0.016 C 
ATOM     21  C   UNL     1      36.421 -22.006 -17.429  0.00  0.00    +0.016 C 
ATOM     22  C   UNL     1      34.119 -23.175 -16.371  0.00  0.00    +0.016 C 
ATOM     23  C   UNL     1      36.382 -22.378 -16.085  0.00  0.00    +0.016 C 
BRANCH  19  24
ATOM     24  N   UNL     1      35.193 -23.341 -14.198  0.00  0.00    -0.303 N 
ATOM     25  H   UNL     1      34.410 -22.995 -13.712  0.00  0.00    +0.150 HD
BRANCH  24  28
ATOM     26  N   UNL     1      36.950 -23.444 -12.664  0.00  0.00    -0.301 N 
ATOM     27  N   UNL     1      36.091 -25.392 -13.292  0.00  0.00    -0.301 N 
ATOM     28  C   UNL     1      36.055 -24.119 -13.400  0.00  0.00    +0.225 C 
ATOM     29  C   UNL     1      37.657 -24.400 -11.990  0.00  0.00    +0.076 C 
ATOM     30  C   UNL     1      37.108 -25.594 -12.394  0.00  0.00    +0.076 C 
ATOM     31  H   UNL     1      37.071 -22.468 -12.617  0.00  0.00    +0.150 HD
ATOM     32  H   UNL     1      35.526 -26.062 -13.743  0.00  0.00    +0.150 HD
ENDBRANCH  24  28
ENDBRANCH  19  24
ENDBRANCH   1  18
TORSDOF 6
ENDMDL
MODEL 9
REMARK VINA RESULT:     -10.1      2.412     10.744
REMARK  Name = 11370952
REMARK  6 active torsions:
REMARK  status: ('A' for Active; 'I' for Inactive)
REMARK    1  A    between atoms: N_1  and  C_3
REMARK    2  A    between atoms: N_1  and  C_18
REMARK    3  A    between atoms: C_4  and  N_9
REMARK    4  A    between atoms: N_9  and  C_12
REMARK    5  A    between atoms: C_19  and  N_24
REMARK    6  A    between atoms: N_24  and  C_27
REMARK                            x       y       z     vdW  Elec       q    Type
REMARK                         _______ _______ _______ _____ _____    ______ ____
ROOT
ATOM      1  N   UNL     1      35.397 -21.811 -19.731  0.00  0.00    -0.313 N 
ATOM      2  H   UNL     1      35.756 -22.495 -20.342  0.00  0.00    +0.152 HD
ENDROOT
BRANCH   1   3
ATOM      3  C   UNL     1      35.105 -22.300 -18.441  0.00  0.00    +0.048 C 
ATOM      4  C   UNL     1      34.531 -23.275 -15.890  0.00  0.00    +0.047 C 
ATOM      5  C   UNL     1      33.876 -22.908 -18.187  0.00  0.00    +0.016 C 
ATOM      6  C   UNL     1      36.047 -22.180 -17.419  0.00  0.00    +0.016 C 
ATOM      7  C   UNL     1      33.589 -23.395 -16.913  0.00  0.00    +0.016 C 
ATOM      8  C   UNL     1      35.760 -22.667 -16.145  0.00  0.00    +0.016 C 
BRANCH   4   9
ATOM      9  N   UNL     1      34.242 -23.769 -14.602  0.00  0.00    -0.303 N 
ATOM     10  H   UNL     1      33.278 -23.817 -14.405  0.00  0.00    +0.150 HD
BRANCH   9  13
ATOM     11  N   UNL     1      35.035 -23.461 -12.428  0.00  0.00    -0.301 N 
ATOM     12  N   UNL     1      35.823 -25.232 -13.513  0.00  0.00    -0.301 N 
ATOM     13  C   UNL     1      35.059 -24.208 -13.543  0.00  0.00    +0.225 C 
ATOM     14  C   UNL     1      35.893 -24.079 -11.562  0.00  0.00    +0.076 C 
ATOM     15  C   UNL     1      36.367 -25.169 -12.255  0.00  0.00    +0.076 C 
ATOM     16  H   UNL     1      34.511 -22.644 -12.268  0.00  0.00    +0.150 HD
ATOM     17  H   UNL     1      35.983 -25.900 -14.218  0.00  0.00    +0.150 HD
ENDBRANCH   9  13
ENDBRANCH   4   9
ENDBRANCH   1   3
BRANCH   1  18
ATOM     18  C   UNL     1      35.276 -20.536 -20.317  0.00  0.00    +0.048 C 
ATOM     19  C   UNL     1      35.033 -18.006 -21.474  0.00  0.00    +0.047 C 
ATOM     20  C   UNL     1      34.012 -19.999 -20.566  0.00  0.00    +0.016 C 
ATOM     21  C   UNL     1      36.418 -19.806 -20.648  0.00  0.00    +0.016 C 
ATOM     22  C   UNL     1      33.890 -18.735 -21.145  0.00  0.00    +0.016 C 
ATOM     23  C   UNL     1      36.297 -18.542 -21.225  0.00  0.00    +0.016 C 
BRANCH  19  24
ATOM     24  N   UNL     1      34.911 -16.728 -22.056  0.00  0.00    -0.303 N 
ATOM     25  H   UNL     1      35.194 -15.995 -21.464  0.00  0.00    +0.150 HD
BRANCH  24  28
ATOM     26  N   UNL     1      34.769 -17.088 -24.359  0.00  0.00    -0.301 N 
ATOM     27  N   UNL     1      33.809 -15.234 -23.601  0.00  0.00    -0.301 N 
ATOM     28  C   UNL     1      34.466 -16.295 -23.321  0.00  0.00    +0.225 C 
ATOM     29  C   UNL     1      34.240 -16.465 -25.454  0.00  0.00    +0.076 C 
ATOM     30  C   UNL     1      33.652 -15.324 -24.961  0.00  0.00    +0.076 C 
ATOM     31  H   UNL     1      35.265 -17.938 -24.336  0.00  0.00    +0.150 HD
ATOM     32  H   UNL     1      33.493 -14.529 -22.991  0.00  0.00    +0.150 HD
ENDBRANCH  24  28
ENDBRANCH  19  24
ENDBRANCH   1  18
TORSDOF 6
ENDMDL
