MODEL 1
REMARK VINA RESULT:      -9.7      0.000      0.000
REMARK  Name = 1286536
REMARK  6 active torsions:
REMARK  status: ('A' for Active; 'I' for Inactive)
REMARK    1  A    between atoms: N_4  and  C_21
REMARK    2  A    between atoms: C_8  and  C_10
REMARK    3  A    between atoms: C_11  and  C_15
REMARK    4  A    between atoms: C_21  and  C_22
REMARK    5  A    between atoms: C_22  and  C_24
REMARK    6  A    between atoms: C_24  and  O_25
REMARK                            x       y       z     vdW  Elec       q    Type
REMARK                         _______ _______ _______ _____ _____    ______ ____
ROOT
ATOM      1  S   UNL     1      33.832 -16.182 -25.875  0.00  0.00    -0.060 S 
ATOM      2  S   UNL     1      32.901 -13.331 -26.100  0.00  0.00    -0.027 S 
ATOM      3  O   UNL     1      34.735 -16.000 -22.173  0.00  0.00    -0.269 OA
ATOM      4  N   UNL     1      33.866 -14.595 -23.845  0.00  0.00    -0.244 N 
ATOM      5  C   UNL     1      34.369 -15.786 -23.321  0.00  0.00    +0.260 C 
ATOM      6  C   UNL     1      34.409 -16.814 -24.389  0.00  0.00    +0.088 C 
ATOM      7  C   UNL     1      33.519 -14.589 -25.191  0.00  0.00    +0.121 C 
ATOM      8  C   UNL     1      34.844 -18.059 -24.193  0.00  0.00    +0.049 C 
ENDROOT
BRANCH   8  10
ATOM      9  O   UNL     1      34.594 -19.430 -22.207  0.00  0.00    -0.453 OA
ATOM     10  C   UNL     1      35.325 -18.568 -22.942  0.00  0.00    +0.146 C 
ATOM     11  C   UNL     1      35.338 -19.702 -21.103  0.00  0.00    +0.145 C 
ATOM     12  C   UNL     1      36.516 -18.276 -22.347  0.00  0.00    +0.041 C 
ATOM     13  C   UNL     1      36.529 -19.017 -21.141  0.00  0.00    +0.041 C 
BRANCH  11  15
ATOM     14 CL   UNL     1      32.865 -23.481 -17.223  0.00  0.00    -0.082 Cl
ATOM     15  C   UNL     1      34.741 -20.614 -20.168  0.00  0.00    +0.035 C 
ATOM     16  C   UNL     1      33.352 -20.658 -20.015  0.00  0.00    +0.004 C 
ATOM     17  C   UNL     1      35.546 -21.465 -19.403  0.00  0.00    +0.004 C 
ATOM     18  C   UNL     1      32.773 -21.543 -19.105  0.00  0.00    +0.011 C 
ATOM     19  C   UNL     1      34.966 -22.350 -18.493  0.00  0.00    +0.011 C 
ATOM     20  C   UNL     1      33.580 -22.389 -18.345  0.00  0.00    +0.058 C 
ENDBRANCH  11  15
ENDBRANCH   8  10
BRANCH   4  21
ATOM     21  C   UNL     1      33.712 -13.404 -23.014  0.00  0.00    +0.111 C 
BRANCH  21  22
ATOM     22  C   UNL     1      32.317 -13.301 -22.415  0.00  0.00    +0.131 C 
BRANCH  22  24
ATOM     23  O   UNL     1      31.952 -12.394 -20.182  0.00  0.00    -0.250 OA
ATOM     24  C   UNL     1      32.320 -13.312 -20.901  0.00  0.00    +0.316 C 
BRANCH  24  25
ATOM     25  O   UNL     1      32.785 -14.493 -20.416  0.00  0.00    -0.480 OA
ATOM     26  H   UNL     1      33.162 -15.123 -20.997  0.00  0.00    +0.295 HD
ENDBRANCH  24  25
ENDBRANCH  22  24
ENDBRANCH  21  22
ENDBRANCH   4  21
TORSDOF 6
ENDMDL
MODEL 2
REMARK VINA RESULT:      -9.5      3.534      5.419
REMARK  Name = 1286536
REMARK  6 active torsions:
REMARK  status: ('A' for Active; 'I' for Inactive)
REMARK    1  A    between atoms: N_4  and  C_21
REMARK    2  A    between atoms: C_8  and  C_10
REMARK    3  A    between atoms: C_11  and  C_15
REMARK    4  A    between atoms: C_21  and  C_22
REMARK    5  A    between atoms: C_22  and  C_24
REMARK    6  A    between atoms: C_24  and  O_25
REMARK                            x       y       z     vdW  Elec       q    Type
REMARK                         _______ _______ _______ _____ _____    ______ ____
ROOT
ATOM      1  S   UNL     1      33.548  -9.434 -23.765  0.00  0.00    -0.060 S 
ATOM      2  S   UNL     1      31.954  -7.824 -21.785  0.00  0.00    -0.027 S 
ATOM      3  O   UNL     1      32.049 -12.809 -22.809  0.00  0.00    -0.269 OA
ATOM      4  N   UNL     1      31.847 -10.552 -22.185  0.00  0.00    -0.244 N 
ATOM      5  C   UNL     1      32.353 -11.629 -22.914  0.00  0.00    +0.260 C 
ATOM      6  C   UNL     1      33.361 -11.134 -23.883  0.00  0.00    +0.088 C 
ATOM      7  C   UNL     1      32.352  -9.291 -22.479  0.00  0.00    +0.121 C 
ATOM      8  C   UNL     1      34.022 -11.929 -24.724  0.00  0.00    +0.049 C 
ENDROOT
BRANCH   8  10
ATOM      9  O   UNL     1      34.379 -14.177 -23.881  0.00  0.00    -0.453 OA
ATOM     10  C   UNL     1      33.852 -13.351 -24.807  0.00  0.00    +0.146 C 
ATOM     11  C   UNL     1      34.032 -15.434 -24.261  0.00  0.00    +0.145 C 
ATOM     12  C   UNL     1      33.175 -14.035 -25.772  0.00  0.00    +0.041 C 
ATOM     13  C   UNL     1      33.290 -15.401 -25.419  0.00  0.00    +0.041 C 
BRANCH  11  15
ATOM     14 CL   UNL     1      35.960 -19.803 -20.706  0.00  0.00    -0.082 Cl
ATOM     15  C   UNL     1      34.496 -16.487 -23.404  0.00  0.00    +0.035 C 
ATOM     16  C   UNL     1      34.667 -16.258 -22.035  0.00  0.00    +0.004 C 
ATOM     17  C   UNL     1      34.781 -17.751 -23.931  0.00  0.00    +0.004 C 
ATOM     18  C   UNL     1      35.120 -17.281 -21.202  0.00  0.00    +0.011 C 
ATOM     19  C   UNL     1      35.233 -18.774 -23.098  0.00  0.00    +0.011 C 
ATOM     20  C   UNL     1      35.402 -18.540 -21.734  0.00  0.00    +0.058 C 
ENDBRANCH  11  15
ENDBRANCH   8  10
BRANCH   4  21
ATOM     21  C   UNL     1      30.830 -10.743 -21.155  0.00  0.00    +0.111 C 
BRANCH  21  22
ATOM     22  C   UNL     1      31.364 -11.520 -19.959  0.00  0.00    +0.131 C 
BRANCH  22  24
ATOM     23  O   UNL     1      32.453  -9.620 -18.889  0.00  0.00    -0.250 OA
ATOM     24  C   UNL     1      31.763 -10.627 -18.804  0.00  0.00    +0.316 C 
BRANCH  24  25
ATOM     25  O   UNL     1      31.250 -11.077 -17.630  0.00  0.00    -0.480 OA
ATOM     26  H   UNL     1      30.358 -11.362 -17.586  0.00  0.00    +0.295 HD
ENDBRANCH  24  25
ENDBRANCH  22  24
ENDBRANCH  21  22
ENDBRANCH   4  21
TORSDOF 6
ENDMDL
MODEL 3
REMARK VINA RESULT:      -9.4      7.071     10.716
REMARK  Name = 1286536
REMARK  6 active torsions:
REMARK  status: ('A' for Active; 'I' for Inactive)
REMARK    1  A    between atoms: N_4  and  C_21
REMARK    2  A    between atoms: C_8  and  C_10
REMARK    3  A    between atoms: C_11  and  C_15
REMARK    4  A    between atoms: C_21  and  C_22
REMARK    5  A    between atoms: C_22  and  C_24
REMARK    6  A    between atoms: C_24  and  O_25
REMARK                            x       y       z     vdW  Elec       q    Type
REMARK                         _______ _______ _______ _____ _____    ______ ____
ROOT
ATOM      1  S   UNL     1      33.800 -23.935 -13.604  0.00  0.00    -0.060 S 
ATOM      2  S   UNL     1      35.937 -24.409 -11.540  0.00  0.00    -0.027 S 
ATOM      3  O   UNL     1      36.197 -23.459 -16.534  0.00  0.00    -0.269 OA
ATOM      4  N   UNL     1      36.300 -23.911 -14.230  0.00  0.00    -0.244 N 
ATOM      5  C   UNL     1      35.669 -23.651 -15.447  0.00  0.00    +0.260 C 
ATOM      6  C   UNL     1      34.201 -23.635 -15.244  0.00  0.00    +0.088 C 
ATOM      7  C   UNL     1      35.487 -24.092 -13.117  0.00  0.00    +0.121 C 
ATOM      8  C   UNL     1      33.327 -23.412 -16.226  0.00  0.00    +0.049 C 
ENDROOT
BRANCH   8  10
ATOM      9  O   UNL     1      33.894 -21.909 -18.045  0.00  0.00    -0.453 OA
ATOM     10  C   UNL     1      33.681 -23.161 -17.593  0.00  0.00    +0.146 C 
ATOM     11  C   UNL     1      34.206 -22.036 -19.361  0.00  0.00    +0.145 C 
ATOM     12  C   UNL     1      33.846 -24.092 -18.575  0.00  0.00    +0.041 C 
ATOM     13  C   UNL     1      34.190 -23.359 -19.736  0.00  0.00    +0.041 C 
BRANCH  11  15
ATOM     14 CL   UNL     1      35.322 -16.939 -22.228  0.00  0.00    -0.082 Cl
ATOM     15  C   UNL     1      34.475 -20.807 -20.052  0.00  0.00    +0.035 C 
ATOM     16  C   UNL     1      33.420 -20.018 -20.522  0.00  0.00    +0.004 C 
ATOM     17  C   UNL     1      35.794 -20.389 -20.259  0.00  0.00    +0.004 C 
ATOM     18  C   UNL     1      33.682 -18.824 -21.194  0.00  0.00    +0.011 C 
ATOM     19  C   UNL     1      36.054 -19.195 -20.931  0.00  0.00    +0.011 C 
ATOM     20  C   UNL     1      34.999 -18.412 -21.398  0.00  0.00    +0.058 C 
ENDBRANCH  11  15
ENDBRANCH   8  10
BRANCH   4  21
ATOM     21  C   UNL     1      37.755 -23.987 -14.129  0.00  0.00    +0.111 C 
BRANCH  21  22
ATOM     22  C   UNL     1      38.304 -25.272 -14.732  0.00  0.00    +0.131 C 
BRANCH  22  24
ATOM     23  O   UNL     1      40.598 -24.794 -14.062  0.00  0.00    -0.250 OA
ATOM     24  C   UNL     1      39.811 -25.264 -14.873  0.00  0.00    +0.316 C 
BRANCH  24  25
ATOM     25  O   UNL     1      40.205 -25.859 -16.029  0.00  0.00    -0.480 OA
ATOM     26  H   UNL     1      40.908 -25.494 -16.528  0.00  0.00    +0.295 HD
ENDBRANCH  24  25
ENDBRANCH  22  24
ENDBRANCH  21  22
ENDBRANCH   4  21
TORSDOF 6
ENDMDL
MODEL 4
REMARK VINA RESULT:      -9.1      6.102      9.550
REMARK  Name = 1286536
REMARK  6 active torsions:
REMARK  status: ('A' for Active; 'I' for Inactive)
REMARK    1  A    between atoms: N_4  and  C_21
REMARK    2  A    between atoms: C_8  and  C_10
REMARK    3  A    between atoms: C_11  and  C_15
REMARK    4  A    between atoms: C_21  and  C_22
REMARK    5  A    between atoms: C_22  and  C_24
REMARK    6  A    between atoms: C_24  and  O_25
REMARK                            x       y       z     vdW  Elec       q    Type
REMARK                         _______ _______ _______ _____ _____    ______ ____
ROOT
ATOM      1  S   UNL     1      33.663 -23.378 -17.268  0.00  0.00    -0.060 S 
ATOM      2  S   UNL     1      34.622 -24.518 -14.654  0.00  0.00    -0.027 S 
ATOM      3  O   UNL     1      36.700 -21.143 -17.847  0.00  0.00    -0.269 OA
ATOM      4  N   UNL     1      35.924 -22.679 -16.247  0.00  0.00    -0.244 N 
ATOM      5  C   UNL     1      35.867 -21.933 -17.424  0.00  0.00    +0.260 C 
ATOM      6  C   UNL     1      34.601 -22.235 -18.135  0.00  0.00    +0.088 C 
ATOM      7  C   UNL     1      34.848 -23.515 -15.970  0.00  0.00    +0.121 C 
ATOM      8  C   UNL     1      34.260 -21.674 -19.295  0.00  0.00    +0.049 C 
ENDROOT
BRANCH   8  10
ATOM      9  O   UNL     1      34.534 -19.558 -20.451  0.00  0.00    -0.453 OA
ATOM     10  C   UNL     1      35.058 -20.717 -20.006  0.00  0.00    +0.146 C 
ATOM     11  C   UNL     1      35.551 -18.902 -21.069  0.00  0.00    +0.145 C 
ATOM     12  C   UNL     1      36.381 -20.829 -20.315  0.00  0.00    +0.041 C 
ATOM     13  C   UNL     1      36.709 -19.642 -21.012  0.00  0.00    +0.041 C 
BRANCH  11  15
ATOM     14 CL   UNL     1      34.143 -13.600 -23.383  0.00  0.00    -0.082 Cl
ATOM     15  C   UNL     1      35.211 -17.624 -21.627  0.00  0.00    +0.035 C 
ATOM     16  C   UNL     1      35.306 -17.410 -23.006  0.00  0.00    +0.004 C 
ATOM     17  C   UNL     1      34.782 -16.584 -20.796  0.00  0.00    +0.004 C 
ATOM     18  C   UNL     1      34.977 -16.167 -23.547  0.00  0.00    +0.011 C 
ATOM     19  C   UNL     1      34.453 -15.341 -21.339  0.00  0.00    +0.011 C 
ATOM     20  C   UNL     1      34.549 -15.134 -22.714  0.00  0.00    +0.058 C 
ENDBRANCH  11  15
ENDBRANCH   8  10
BRANCH   4  21
ATOM     21  C   UNL     1      37.066 -22.586 -15.342  0.00  0.00    +0.111 C 
BRANCH  21  22
ATOM     22  C   UNL     1      38.203 -23.508 -15.757  0.00  0.00    +0.131 C 
BRANCH  22  24
ATOM     23  O   UNL     1      38.610 -24.519 -13.576  0.00  0.00    -0.250 OA
ATOM     24  C   UNL     1      38.432 -24.642 -14.780  0.00  0.00    +0.316 C 
BRANCH  24  25
ATOM     25  O   UNL     1      38.409 -25.848 -15.406  0.00  0.00    -0.480 OA
ATOM     26  H   UNL     1      37.597 -26.302 -15.519  0.00  0.00    +0.295 HD
ENDBRANCH  24  25
ENDBRANCH  22  24
ENDBRANCH  21  22
ENDBRANCH   4  21
TORSDOF 6
ENDMDL
MODEL 5
REMARK VINA RESULT:      -8.6      7.784     11.523
REMARK  Name = 1286536
REMARK  6 active torsions:
REMARK  status: ('A' for Active; 'I' for Inactive)
REMARK    1  A    between atoms: N_4  and  C_21
REMARK    2  A    between atoms: C_8  and  C_10
REMARK    3  A    between atoms: C_11  and  C_15
REMARK    4  A    between atoms: C_21  and  C_22
REMARK    5  A    between atoms: C_22  and  C_24
REMARK    6  A    between atoms: C_24  and  O_25
REMARK                            x       y       z     vdW  Elec       q    Type
REMARK                         _______ _______ _______ _____ _____    ______ ____
ROOT
ATOM      1  S   UNL     1      35.265 -24.565 -12.191  0.00  0.00    -0.060 S 
ATOM      2  S   UNL     1      37.903 -25.956 -11.798  0.00  0.00    -0.027 S 
ATOM      3  O   UNL     1      35.325 -24.700 -16.003  0.00  0.00    -0.269 OA
ATOM      4  N   UNL     1      36.670 -25.371 -14.196  0.00  0.00    -0.244 N 
ATOM      5  C   UNL     1      35.556 -24.793 -14.805  0.00  0.00    +0.260 C 
ATOM      6  C   UNL     1      34.639 -24.276 -13.761  0.00  0.00    +0.088 C 
ATOM      7  C   UNL     1      36.715 -25.354 -12.806  0.00  0.00    +0.121 C 
ATOM      8  C   UNL     1      33.484 -23.667 -14.034  0.00  0.00    +0.049 C 
ENDROOT
BRANCH   8  10
ATOM      9  O   UNL     1      33.676 -22.716 -16.258  0.00  0.00    -0.453 OA
ATOM     10  C   UNL     1      32.978 -23.433 -15.356  0.00  0.00    +0.146 C 
ATOM     11  C   UNL     1      32.916 -22.692 -17.384  0.00  0.00    +0.145 C 
ATOM     12  C   UNL     1      31.792 -23.872 -15.863  0.00  0.00    +0.041 C 
ATOM     13  C   UNL     1      31.746 -23.389 -17.192  0.00  0.00    +0.041 C 
BRANCH  11  15
ATOM     14 CL   UNL     1      35.241 -19.701 -21.977  0.00  0.00    -0.082 Cl
ATOM     15  C   UNL     1      33.476 -21.970 -18.491  0.00  0.00    +0.035 C 
ATOM     16  C   UNL     1      32.658 -21.178 -19.302  0.00  0.00    +0.004 C 
ATOM     17  C   UNL     1      34.845 -22.054 -18.766  0.00  0.00    +0.004 C 
ATOM     18  C   UNL     1      33.203 -20.478 -20.379  0.00  0.00    +0.011 C 
ATOM     19  C   UNL     1      35.389 -21.354 -19.843  0.00  0.00    +0.011 C 
ATOM     20  C   UNL     1      34.569 -20.565 -20.648  0.00  0.00    +0.058 C 
ENDBRANCH  11  15
ENDBRANCH   8  10
BRANCH   4  21
ATOM     21  C   UNL     1      37.744 -25.968 -14.985  0.00  0.00    +0.111 C 
BRANCH  21  22
ATOM     22  C   UNL     1      38.839 -24.963 -15.314  0.00  0.00    +0.131 C 
BRANCH  22  24
ATOM     23  O   UNL     1      41.147 -24.638 -14.601  0.00  0.00    -0.250 OA
ATOM     24  C   UNL     1      40.201 -25.386 -14.808  0.00  0.00    +0.316 C 
BRANCH  24  25
ATOM     25  O   UNL     1      40.257 -26.727 -14.596  0.00  0.00    -0.480 OA
ATOM     26  H   UNL     1      39.901 -27.317 -15.231  0.00  0.00    +0.295 HD
ENDBRANCH  24  25
ENDBRANCH  22  24
ENDBRANCH  21  22
ENDBRANCH   4  21
TORSDOF 6
ENDMDL
MODEL 6
REMARK VINA RESULT:      -8.4      6.606      9.532
REMARK  Name = 1286536
REMARK  6 active torsions:
REMARK  status: ('A' for Active; 'I' for Inactive)
REMARK    1  A    between atoms: N_4  and  C_21
REMARK    2  A    between atoms: C_8  and  C_10
REMARK    3  A    between atoms: C_11  and  C_15
REMARK    4  A    between atoms: C_21  and  C_22
REMARK    5  A    between atoms: C_22  and  C_24
REMARK    6  A    between atoms: C_24  and  O_25
REMARK                            x       y       z     vdW  Elec       q    Type
REMARK                         _______ _______ _______ _____ _____    ______ ____
ROOT
ATOM      1  S   UNL     1      32.889 -23.790 -14.005  0.00  0.00    -0.060 S 
ATOM      2  S   UNL     1      30.236 -24.334 -12.695  0.00  0.00    -0.027 S 
ATOM      3  O   UNL     1      31.482 -23.250 -17.510  0.00  0.00    -0.269 OA
ATOM      4  N   UNL     1      30.693 -23.755 -15.354  0.00  0.00    -0.244 N 
ATOM      5  C   UNL     1      31.659 -23.464 -16.318  0.00  0.00    +0.260 C 
ATOM      6  C   UNL     1      32.998 -23.447 -15.681  0.00  0.00    +0.088 C 
ATOM      7  C   UNL     1      31.137 -23.967 -14.053  0.00  0.00    +0.121 C 
ATOM      8  C   UNL     1      34.125 -23.196 -16.349  0.00  0.00    +0.049 C 
ENDROOT
BRANCH   8  10
ATOM      9  O   UNL     1      34.413 -21.662 -18.207  0.00  0.00    -0.453 OA
ATOM     10  C   UNL     1      34.195 -22.913 -17.753  0.00  0.00    +0.146 C 
ATOM     11  C   UNL     1      34.420 -21.754 -19.562  0.00  0.00    +0.145 C 
ATOM     12  C   UNL     1      34.062 -23.808 -18.773  0.00  0.00    +0.041 C 
ATOM     13  C   UNL     1      34.209 -23.053 -19.961  0.00  0.00    +0.041 C 
BRANCH  11  15
ATOM     14 CL   UNL     1      35.327 -16.635 -22.465  0.00  0.00    -0.082 Cl
ATOM     15  C   UNL     1      34.639 -20.519 -20.262  0.00  0.00    +0.035 C 
ATOM     16  C   UNL     1      33.552 -19.755 -20.699  0.00  0.00    +0.004 C 
ATOM     17  C   UNL     1      35.940 -20.072 -20.511  0.00  0.00    +0.004 C 
ATOM     18  C   UNL     1      33.765 -18.556 -21.380  0.00  0.00    +0.011 C 
ATOM     19  C   UNL     1      36.152 -18.872 -21.192  0.00  0.00    +0.011 C 
ATOM     20  C   UNL     1      35.065 -18.115 -21.625  0.00  0.00    +0.058 C 
ENDBRANCH  11  15
ENDBRANCH   8  10
BRANCH   4  21
ATOM     21  C   UNL     1      29.276 -23.836 -15.697  0.00  0.00    +0.111 C 
BRANCH  21  22
ATOM     22  C   UNL     1      28.632 -22.460 -15.799  0.00  0.00    +0.131 C 
BRANCH  22  24
ATOM     23  O   UNL     1      27.035 -21.339 -17.259  0.00  0.00    -0.250 OA
ATOM     24  C   UNL     1      27.678 -22.338 -16.967  0.00  0.00    +0.316 C 
BRANCH  24  25
ATOM     25  O   UNL     1      27.618 -23.493 -17.681  0.00  0.00    -0.480 OA
ATOM     26  H   UNL     1      27.394 -23.470 -18.590  0.00  0.00    +0.295 HD
ENDBRANCH  24  25
ENDBRANCH  22  24
ENDBRANCH  21  22
ENDBRANCH   4  21
TORSDOF 6
ENDMDL
MODEL 7
REMARK VINA RESULT:      -8.3      1.823      2.634
REMARK  Name = 1286536
REMARK  6 active torsions:
REMARK  status: ('A' for Active; 'I' for Inactive)
REMARK    1  A    between atoms: N_4  and  C_21
REMARK    2  A    between atoms: C_8  and  C_10
REMARK    3  A    between atoms: C_11  and  C_15
REMARK    4  A    between atoms: C_21  and  C_22
REMARK    5  A    between atoms: C_22  and  C_24
REMARK    6  A    between atoms: C_24  and  O_25
REMARK                            x       y       z     vdW  Elec       q    Type
REMARK                         _______ _______ _______ _____ _____    ______ ____
ROOT
ATOM      1  S   UNL     1      34.631 -18.452 -24.202  0.00  0.00    -0.060 S 
ATOM      2  S   UNL     1      33.882 -15.590 -24.750  0.00  0.00    -0.027 S 
ATOM      3  O   UNL     1      35.110 -18.009 -20.443  0.00  0.00    -0.269 OA
ATOM      4  N   UNL     1      34.514 -16.708 -22.307  0.00  0.00    -0.244 N 
ATOM      5  C   UNL     1      34.890 -17.874 -21.639  0.00  0.00    +0.260 C 
ATOM      6  C   UNL     1      34.999 -18.985 -22.615  0.00  0.00    +0.088 C 
ATOM      7  C   UNL     1      34.325 -16.796 -23.682  0.00  0.00    +0.121 C 
ATOM      8  C   UNL     1      35.343 -20.228 -22.275  0.00  0.00    +0.049 C 
ENDROOT
BRANCH   8  10
ATOM      9  O   UNL     1      34.730 -21.273 -20.173  0.00  0.00    -0.453 OA
ATOM     10  C   UNL     1      35.649 -20.655 -20.941  0.00  0.00    +0.146 C 
ATOM     11  C   UNL     1      35.347 -21.533 -18.990  0.00  0.00    +0.145 C 
ATOM     12  C   UNL     1      36.839 -20.509 -20.292  0.00  0.00    +0.041 C 
ATOM     13  C   UNL     1      36.646 -21.083 -19.013  0.00  0.00    +0.041 C 
BRANCH  11  15
ATOM     14 CL   UNL     1      31.997 -24.290 -14.913  0.00  0.00    -0.082 Cl
ATOM     15  C   UNL     1      34.539 -22.198 -18.008  0.00  0.00    +0.035 C 
ATOM     16  C   UNL     1      33.170 -22.382 -18.228  0.00  0.00    +0.004 C 
ATOM     17  C   UNL     1      35.116 -22.668 -16.823  0.00  0.00    +0.004 C 
ATOM     18  C   UNL     1      32.386 -23.027 -17.272  0.00  0.00    +0.011 C 
ATOM     19  C   UNL     1      34.330 -23.313 -15.867  0.00  0.00    +0.011 C 
ATOM     20  C   UNL     1      32.966 -23.494 -16.092  0.00  0.00    +0.058 C 
ENDBRANCH  11  15
ENDBRANCH   8  10
BRANCH   4  21
ATOM     21  C   UNL     1      34.327 -15.449 -21.593  0.00  0.00    +0.111 C 
BRANCH  21  22
ATOM     22  C   UNL     1      32.878 -15.233 -21.180  0.00  0.00    +0.131 C 
BRANCH  22  24
ATOM     23  O   UNL     1      32.420 -12.956 -20.443  0.00  0.00    -0.250 OA
ATOM     24  C   UNL     1      32.427 -13.797 -21.332  0.00  0.00    +0.316 C 
BRANCH  24  25
ATOM     25  O   UNL     1      32.025 -13.535 -22.603  0.00  0.00    -0.480 OA
ATOM     26  H   UNL     1      31.422 -14.110 -23.032  0.00  0.00    +0.295 HD
ENDBRANCH  24  25
ENDBRANCH  22  24
ENDBRANCH  21  22
ENDBRANCH   4  21
TORSDOF 6
ENDMDL
MODEL 8
REMARK VINA RESULT:      -8.2      6.056      9.212
REMARK  Name = 1286536
REMARK  6 active torsions:
REMARK  status: ('A' for Active; 'I' for Inactive)
REMARK    1  A    between atoms: N_4  and  C_21
REMARK    2  A    between atoms: C_8  and  C_10
REMARK    3  A    between atoms: C_11  and  C_15
REMARK    4  A    between atoms: C_21  and  C_22
REMARK    5  A    between atoms: C_22  and  C_24
REMARK    6  A    between atoms: C_24  and  O_25
REMARK                            x       y       z     vdW  Elec       q    Type
REMARK                         _______ _______ _______ _____ _____    ______ ____
ROOT
ATOM      1  S   UNL     1      37.051 -22.631 -15.290  0.00  0.00    -0.060 S 
ATOM      2  S   UNL     1      35.612 -24.052 -13.062  0.00  0.00    -0.027 S 
ATOM      3  O   UNL     1      34.103 -22.633 -17.712  0.00  0.00    -0.269 OA
ATOM      4  N   UNL     1      34.593 -23.367 -15.533  0.00  0.00    -0.244 N 
ATOM      5  C   UNL     1      34.864 -22.765 -16.762  0.00  0.00    +0.260 C 
ATOM      6  C   UNL     1      36.265 -22.282 -16.773  0.00  0.00    +0.088 C 
ATOM      7  C   UNL     1      35.624 -23.404 -14.602  0.00  0.00    +0.121 C 
ATOM      8  C   UNL     1      36.819 -21.661 -17.815  0.00  0.00    +0.049 C 
ENDROOT
BRANCH   8  10
ATOM      9  O   UNL     1      36.078 -20.126 -19.542  0.00  0.00    -0.453 OA
ATOM     10  C   UNL     1      36.146 -21.378 -19.049  0.00  0.00    +0.146 C 
ATOM     11  C   UNL     1      35.381 -20.219 -20.704  0.00  0.00    +0.145 C 
ATOM     12  C   UNL     1      35.514 -22.277 -19.857  0.00  0.00    +0.041 C 
ATOM     13  C   UNL     1      35.011 -21.522 -20.943  0.00  0.00    +0.041 C 
BRANCH  11  15
ATOM     14 CL   UNL     1      34.573 -15.092 -23.621  0.00  0.00    -0.082 Cl
ATOM     15  C   UNL     1      35.187 -18.983 -21.407  0.00  0.00    +0.035 C 
ATOM     16  C   UNL     1      35.134 -17.774 -20.706  0.00  0.00    +0.004 C 
ATOM     17  C   UNL     1      35.048 -18.979 -22.799  0.00  0.00    +0.004 C 
ATOM     18  C   UNL     1      34.944 -16.573 -21.390  0.00  0.00    +0.011 C 
ATOM     19  C   UNL     1      34.859 -17.777 -23.482  0.00  0.00    +0.011 C 
ATOM     20  C   UNL     1      34.807 -16.575 -22.778  0.00  0.00    +0.058 C 
ENDBRANCH  11  15
ENDBRANCH   8  10
BRANCH   4  21
ATOM     21  C   UNL     1      33.280 -23.935 -15.237  0.00  0.00    +0.111 C 
BRANCH  21  22
ATOM     22  C   UNL     1      32.307 -22.887 -14.717  0.00  0.00    +0.131 C 
BRANCH  22  24
ATOM     23  O   UNL     1      29.886 -22.864 -15.004  0.00  0.00    -0.250 OA
ATOM     24  C   UNL     1      31.008 -22.849 -15.493  0.00  0.00    +0.316 C 
BRANCH  24  25
ATOM     25  O   UNL     1      31.231 -22.786 -16.831  0.00  0.00    -0.480 OA
ATOM     26  H   UNL     1      31.246 -23.571 -17.341  0.00  0.00    +0.295 HD
ENDBRANCH  24  25
ENDBRANCH  22  24
ENDBRANCH  21  22
ENDBRANCH   4  21
TORSDOF 6
ENDMDL
MODEL 9
REMARK VINA RESULT:      -8.2      5.365      8.514
REMARK  Name = 1286536
REMARK  6 active torsions:
REMARK  status: ('A' for Active; 'I' for Inactive)
REMARK    1  A    between atoms: N_4  and  C_21
REMARK    2  A    between atoms: C_8  and  C_10
REMARK    3  A    between atoms: C_11  and  C_15
REMARK    4  A    between atoms: C_21  and  C_22
REMARK    5  A    between atoms: C_22  and  C_24
REMARK    6  A    between atoms: C_24  and  O_25
REMARK                            x       y       z     vdW  Elec       q    Type
REMARK                         _______ _______ _______ _____ _____    ______ ____
ROOT
ATOM      1  S   UNL     1      36.777 -22.001 -17.481  0.00  0.00    -0.060 S 
ATOM      2  S   UNL     1      35.369 -23.959 -15.684  0.00  0.00    -0.027 S 
ATOM      3  O   UNL     1      33.763 -21.288 -19.708  0.00  0.00    -0.269 OA
ATOM      4  N   UNL     1      34.296 -22.602 -17.834  0.00  0.00    -0.244 N 
ATOM      5  C   UNL     1      34.547 -21.688 -18.858  0.00  0.00    +0.260 C 
ATOM      6  C   UNL     1      35.959 -21.243 -18.783  0.00  0.00    +0.088 C 
ATOM      7  C   UNL     1      35.353 -22.912 -16.985  0.00  0.00    +0.121 C 
ATOM      8  C   UNL     1      36.498 -20.367 -19.632  0.00  0.00    +0.049 C 
ENDROOT
BRANCH   8  10
ATOM      9  O   UNL     1      35.348 -18.476 -20.628  0.00  0.00    -0.453 OA
ATOM     10  C   UNL     1      35.796 -19.744 -20.717  0.00  0.00    +0.146 C 
ATOM     11  C   UNL     1      34.740 -18.212 -21.814  0.00  0.00    +0.145 C 
ATOM     12  C   UNL     1      35.498 -20.306 -21.923  0.00  0.00    +0.041 C 
ATOM     13  C   UNL     1      34.806 -19.305 -22.645  0.00  0.00    +0.041 C 
BRANCH  11  15
ATOM     14 CL   UNL     1      32.421 -12.753 -22.336  0.00  0.00    -0.082 Cl
ATOM     15  C   UNL     1      34.181 -16.895 -21.939  0.00  0.00    +0.035 C 
ATOM     16  C   UNL     1      33.249 -16.434 -21.005  0.00  0.00    +0.004 C 
ATOM     17  C   UNL     1      34.566 -16.065 -22.997  0.00  0.00    +0.004 C 
ATOM     18  C   UNL     1      32.705 -15.155 -21.128  0.00  0.00    +0.011 C 
ATOM     19  C   UNL     1      34.021 -14.786 -23.119  0.00  0.00    +0.011 C 
ATOM     20  C   UNL     1      33.092 -14.331 -22.185  0.00  0.00    +0.058 C 
ENDBRANCH  11  15
ENDBRANCH   8  10
BRANCH   4  21
ATOM     21  C   UNL     1      32.979 -23.210 -17.661  0.00  0.00    +0.111 C 
BRANCH  21  22
ATOM     22  C   UNL     1      32.304 -22.758 -16.374  0.00  0.00    +0.131 C 
BRANCH  22  24
ATOM     23  O   UNL     1      30.366 -24.017 -15.599  0.00  0.00    -0.250 OA
ATOM     24  C   UNL     1      30.841 -23.140 -16.308  0.00  0.00    +0.316 C 
BRANCH  24  25
ATOM     25  O   UNL     1      30.091 -22.373 -17.141  0.00  0.00    -0.480 OA
ATOM     26  H   UNL     1      29.182 -22.236 -16.960  0.00  0.00    +0.295 HD
ENDBRANCH  24  25
ENDBRANCH  22  24
ENDBRANCH  21  22
ENDBRANCH   4  21
TORSDOF 6
ENDMDL
