MODEL 1
REMARK VINA RESULT:      -8.0      0.000      0.000
REMARK  Name = 4500
REMARK  7 active torsions:
REMARK  status: ('A' for Active; 'I' for Inactive)
REMARK    1  A    between atoms: C_1  and  C_2
REMARK    2  A    between atoms: C_1  and  O_8
REMARK    3  A    between atoms: C_1  and  C_17
REMARK    4  A    between atoms: O_8  and  C_9
REMARK    5  A    between atoms: C_10  and  O_15
REMARK    6  A    between atoms: C_17  and  C_18
REMARK    7  A    between atoms: C_18  and  N_19
REMARK                            x       y       z     vdW  Elec       q    Type
REMARK                         _______ _______ _______ _____ _____    ______ ____
ROOT
ATOM      1  C   UNL     1      33.940 -23.114 -15.530  0.00  0.00    +0.186 C 
ENDROOT
BRANCH   1   2
ATOM      2  C   UNL     1      32.563 -23.619 -15.168  0.00  0.00    +0.017 C 
ATOM      3  C   UNL     1      31.467 -23.176 -15.891  0.00  0.00    -0.001 C 
ATOM      4  C   UNL     1      32.423 -24.513 -14.119  0.00  0.00    -0.001 C 
ATOM      5  C   UNL     1      30.196 -23.641 -15.557  0.00  0.00    -0.000 C 
ATOM      6  C   UNL     1      31.150 -24.977 -13.784  0.00  0.00    -0.000 C 
ATOM      7  C   UNL     1      30.037 -24.542 -14.503  0.00  0.00    -0.000 C 
ENDBRANCH   1   2
BRANCH   1   8
ATOM      8  O   UNL     1      34.269 -23.617 -16.826  0.00  0.00    -0.472 OA
BRANCH   8   9
ATOM      9  C   UNL     1      34.426 -22.737 -17.828  0.00  0.00    +0.173 C 
ATOM     10  C   UNL     1      35.677 -22.157 -18.099  0.00  0.00    +0.172 C 
ATOM     11  C   UNL     1      33.330 -22.377 -18.630  0.00  0.00    +0.040 C 
ATOM     12  C   UNL     1      35.828 -21.243 -19.143  0.00  0.00    +0.040 C 
ATOM     13  C   UNL     1      33.481 -21.463 -19.674  0.00  0.00    +0.003 C 
ATOM     14  C   UNL     1      34.730 -20.897 -19.931  0.00  0.00    +0.003 C 
BRANCH  10  15
ATOM     15  O   UNL     1      36.757 -22.486 -17.337  0.00  0.00    -0.468 OA
ATOM     16  C   UNL     1      37.369 -21.464 -16.578  0.00  0.00    +0.253 C 
ENDBRANCH  10  15
ENDBRANCH   8   9
ENDBRANCH   1   8
BRANCH   1  17
ATOM     17  C   UNL     1      35.038 -23.533 -14.537  0.00  0.00    +0.025 C 
BRANCH  17  18
ATOM     18  C   UNL     1      35.710 -24.854 -14.912  0.00  0.00    -0.078 C 
BRANCH  18  19
ATOM     19  N   UNL     1      37.075 -24.614 -15.365  0.00  0.00    +0.382 N 
ATOM     20  C   UNL     1      38.013 -24.698 -14.256  0.00  0.00    -0.106 C 
ATOM     21  H   UNL     1      37.131 -23.684 -15.780  0.00  0.00    -0.085 HD
ATOM     22  H   UNL     1      37.320 -25.326 -16.054  0.00  0.00    -0.085 HD
ENDBRANCH  18  19
ENDBRANCH  17  18
ENDBRANCH   1  17
TORSDOF 7
ENDMDL
MODEL 2
REMARK VINA RESULT:      -7.9      6.127      9.002
REMARK  Name = 4500
REMARK  7 active torsions:
REMARK  status: ('A' for Active; 'I' for Inactive)
REMARK    1  A    between atoms: C_1  and  C_2
REMARK    2  A    between atoms: C_1  and  O_8
REMARK    3  A    between atoms: C_1  and  C_17
REMARK    4  A    between atoms: O_8  and  C_9
REMARK    5  A    between atoms: C_10  and  O_15
REMARK    6  A    between atoms: C_17  and  C_18
REMARK    7  A    between atoms: C_18  and  N_19
REMARK                            x       y       z     vdW  Elec       q    Type
REMARK                         _______ _______ _______ _____ _____    ______ ____
ROOT
ATOM      1  C   UNL     1      34.933 -17.784 -21.544  0.00  0.00    +0.186 C 
ENDROOT
BRANCH   1   2
ATOM      2  C   UNL     1      34.607 -19.103 -20.882  0.00  0.00    +0.017 C 
ATOM      3  C   UNL     1      33.281 -19.467 -20.712  0.00  0.00    -0.001 C 
ATOM      4  C   UNL     1      35.641 -19.922 -20.459  0.00  0.00    -0.001 C 
ATOM      5  C   UNL     1      32.980 -20.683 -20.100  0.00  0.00    -0.000 C 
ATOM      6  C   UNL     1      35.339 -21.140 -19.847  0.00  0.00    -0.000 C 
ATOM      7  C   UNL     1      34.010 -21.520 -19.668  0.00  0.00    -0.000 C 
ENDBRANCH   1   2
BRANCH   1   8
ATOM      8  O   UNL     1      33.741 -17.292 -22.158  0.00  0.00    -0.472 OA
BRANCH   8   9
ATOM      9  C   UNL     1      33.367 -16.029 -21.899  0.00  0.00    +0.173 C 
ATOM     10  C   UNL     1      33.361 -15.048 -22.906  0.00  0.00    +0.172 C 
ATOM     11  C   UNL     1      32.972 -15.662 -20.601  0.00  0.00    +0.040 C 
ATOM     12  C   UNL     1      32.971 -13.739 -22.623  0.00  0.00    +0.040 C 
ATOM     13  C   UNL     1      32.582 -14.353 -20.319  0.00  0.00    +0.003 C 
ATOM     14  C   UNL     1      32.581 -13.391 -21.330  0.00  0.00    +0.003 C 
BRANCH  10  15
ATOM     15  O   UNL     1      33.741 -15.375 -24.173  0.00  0.00    -0.468 OA
ATOM     16  C   UNL     1      33.200 -14.625 -25.241  0.00  0.00    +0.253 C 
ENDBRANCH  10  15
ENDBRANCH   8   9
ENDBRANCH   1   8
BRANCH   1  17
ATOM     17  C   UNL     1      36.043 -17.877 -22.604  0.00  0.00    +0.025 C 
BRANCH  17  18
ATOM     18  C   UNL     1      35.633 -18.699 -23.827  0.00  0.00    -0.078 C 
BRANCH  18  19
ATOM     19  N   UNL     1      34.871 -17.874 -24.757  0.00  0.00    +0.382 N 
ATOM     20  C   UNL     1      33.782 -18.634 -25.353  0.00  0.00    -0.106 C 
ATOM     21  H   UNL     1      35.491 -17.543 -25.496  0.00  0.00    -0.085 HD
ATOM     22  H   UNL     1      34.476 -17.085 -24.244  0.00  0.00    -0.085 HD
ENDBRANCH  18  19
ENDBRANCH  17  18
ENDBRANCH   1  17
TORSDOF 7
ENDMDL
MODEL 3
REMARK VINA RESULT:      -7.8     10.303     13.368
REMARK  Name = 4500
REMARK  7 active torsions:
REMARK  status: ('A' for Active; 'I' for Inactive)
REMARK    1  A    between atoms: C_1  and  C_2
REMARK    2  A    between atoms: C_1  and  O_8
REMARK    3  A    between atoms: C_1  and  C_17
REMARK    4  A    between atoms: O_8  and  C_9
REMARK    5  A    between atoms: C_10  and  O_15
REMARK    6  A    between atoms: C_17  and  C_18
REMARK    7  A    between atoms: C_18  and  N_19
REMARK                            x       y       z     vdW  Elec       q    Type
REMARK                         _______ _______ _______ _____ _____    ______ ____
ROOT
ATOM      1  C   UNL     1      33.489 -12.932 -23.252  0.00  0.00    +0.186 C 
ENDROOT
BRANCH   1   2
ATOM      2  C   UNL     1      33.967 -14.283 -22.772  0.00  0.00    +0.017 C 
ATOM      3  C   UNL     1      34.208 -14.476 -21.422  0.00  0.00    -0.001 C 
ATOM      4  C   UNL     1      34.157 -15.301 -23.692  0.00  0.00    -0.001 C 
ATOM      5  C   UNL     1      34.651 -15.721 -20.978  0.00  0.00    -0.000 C 
ATOM      6  C   UNL     1      34.601 -16.547 -23.248  0.00  0.00    -0.000 C 
ATOM      7  C   UNL     1      34.848 -16.758 -21.892  0.00  0.00    -0.000 C 
ENDBRANCH   1   2
BRANCH   1   8
ATOM      8  O   UNL     1      32.151 -12.746 -22.786  0.00  0.00    -0.472 OA
BRANCH   8   9
ATOM      9  C   UNL     1      31.944 -11.886 -21.778  0.00  0.00    +0.173 C 
ATOM     10  C   UNL     1      31.816 -10.505 -22.011  0.00  0.00    +0.172 C 
ATOM     11  C   UNL     1      31.850 -12.356 -20.457  0.00  0.00    +0.040 C 
ATOM     12  C   UNL     1      31.601  -9.621 -20.954  0.00  0.00    +0.040 C 
ATOM     13  C   UNL     1      31.635 -11.471 -19.400  0.00  0.00    +0.003 C 
ATOM     14  C   UNL     1      31.510 -10.104 -19.648  0.00  0.00    +0.003 C 
BRANCH  10  15
ATOM     15  O   UNL     1      31.904 -10.022 -23.282  0.00  0.00    -0.468 OA
ATOM     16  C   UNL     1      31.622  -8.653 -23.490  0.00  0.00    +0.253 C 
ENDBRANCH  10  15
ENDBRANCH   8   9
ENDBRANCH   1   8
BRANCH   1  17
ATOM     17  C   UNL     1      33.514 -12.771 -24.782  0.00  0.00    +0.025 C 
BRANCH  17  18
ATOM     18  C   UNL     1      34.214 -11.489 -25.235  0.00  0.00    -0.078 C 
BRANCH  18  19
ATOM     19  N   UNL     1      34.663 -10.724 -24.078  0.00  0.00    +0.382 N 
ATOM     20  C   UNL     1      35.104  -9.395 -24.474  0.00  0.00    -0.106 C 
ATOM     21  H   UNL     1      35.439 -11.214 -23.633  0.00  0.00    -0.085 HD
ATOM     22  H   UNL     1      33.883 -10.628 -23.427  0.00  0.00    -0.085 HD
ENDBRANCH  18  19
ENDBRANCH  17  18
ENDBRANCH   1  17
TORSDOF 7
ENDMDL
MODEL 4
REMARK VINA RESULT:      -7.7      1.667      5.080
REMARK  Name = 4500
REMARK  7 active torsions:
REMARK  status: ('A' for Active; 'I' for Inactive)
REMARK    1  A    between atoms: C_1  and  C_2
REMARK    2  A    between atoms: C_1  and  O_8
REMARK    3  A    between atoms: C_1  and  C_17
REMARK    4  A    between atoms: O_8  and  C_9
REMARK    5  A    between atoms: C_10  and  O_15
REMARK    6  A    between atoms: C_17  and  C_18
REMARK    7  A    between atoms: C_18  and  N_19
REMARK                            x       y       z     vdW  Elec       q    Type
REMARK                         _______ _______ _______ _____ _____    ______ ____
ROOT
ATOM      1  C   UNL     1      36.467 -23.042 -15.382  0.00  0.00    +0.186 C 
ENDROOT
BRANCH   1   2
ATOM      2  C   UNL     1      36.997 -24.018 -14.357  0.00  0.00    +0.017 C 
ATOM      3  C   UNL     1      37.277 -23.570 -13.077  0.00  0.00    -0.001 C 
ATOM      4  C   UNL     1      37.193 -25.340 -14.719  0.00  0.00    -0.001 C 
ATOM      5  C   UNL     1      37.768 -24.470 -12.131  0.00  0.00    -0.000 C 
ATOM      6  C   UNL     1      37.684 -26.241 -13.773  0.00  0.00    -0.000 C 
ATOM      7  C   UNL     1      37.971 -25.806 -12.479  0.00  0.00    -0.000 C 
ENDBRANCH   1   2
BRANCH   1   8
ATOM      8  O   UNL     1      35.553 -23.742 -16.228  0.00  0.00    -0.472 OA
BRANCH   8   9
ATOM      9  C   UNL     1      34.240 -23.531 -16.057  0.00  0.00    +0.173 C 
ATOM     10  C   UNL     1      33.401 -23.232 -17.145  0.00  0.00    +0.172 C 
ATOM     11  C   UNL     1      33.674 -23.606 -14.773  0.00  0.00    +0.040 C 
ATOM     12  C   UNL     1      32.036 -23.013 -16.953  0.00  0.00    +0.040 C 
ATOM     13  C   UNL     1      32.309 -23.388 -14.582  0.00  0.00    +0.003 C 
ATOM     14  C   UNL     1      31.490 -23.092 -15.672  0.00  0.00    +0.003 C 
BRANCH  10  15
ATOM     15  O   UNL     1      33.922 -23.151 -18.401  0.00  0.00    -0.468 OA
ATOM     16  C   UNL     1      33.408 -22.163 -19.269  0.00  0.00    +0.253 C 
ENDBRANCH  10  15
ENDBRANCH   8   9
ENDBRANCH   1   8
BRANCH   1  17
ATOM     17  C   UNL     1      37.560 -22.396 -16.251  0.00  0.00    +0.025 C 
BRANCH  17  18
ATOM     18  C   UNL     1      37.022 -21.301 -17.173  0.00  0.00    -0.078 C 
BRANCH  18  19
ATOM     19  N   UNL     1      36.668 -21.865 -18.470  0.00  0.00    +0.382 N 
ATOM     20  C   UNL     1      36.704 -20.844 -19.507  0.00  0.00    -0.106 C 
ATOM     21  H   UNL     1      35.727 -22.257 -18.419  0.00  0.00    -0.085 HD
ATOM     22  H   UNL     1      37.344 -22.593 -18.705  0.00  0.00    -0.085 HD
ENDBRANCH  18  19
ENDBRANCH  17  18
ENDBRANCH   1  17
TORSDOF 7
ENDMDL
MODEL 5
REMARK VINA RESULT:      -7.7      8.774     11.869
REMARK  Name = 4500
REMARK  7 active torsions:
REMARK  status: ('A' for Active; 'I' for Inactive)
REMARK    1  A    between atoms: C_1  and  C_2
REMARK    2  A    between atoms: C_1  and  O_8
REMARK    3  A    between atoms: C_1  and  C_17
REMARK    4  A    between atoms: O_8  and  C_9
REMARK    5  A    between atoms: C_10  and  O_15
REMARK    6  A    between atoms: C_17  and  C_18
REMARK    7  A    between atoms: C_18  and  N_19
REMARK                            x       y       z     vdW  Elec       q    Type
REMARK                         _______ _______ _______ _____ _____    ______ ____
ROOT
ATOM      1  C   UNL     1      33.254 -15.373 -22.641  0.00  0.00    +0.186 C 
ENDROOT
BRANCH   1   2
ATOM      2  C   UNL     1      34.237 -16.496 -22.409  0.00  0.00    +0.017 C 
ATOM      3  C   UNL     1      34.627 -16.799 -21.115  0.00  0.00    -0.001 C 
ATOM      4  C   UNL     1      34.731 -17.200 -23.495  0.00  0.00    -0.001 C 
ATOM      5  C   UNL     1      35.536 -17.834 -20.900  0.00  0.00    -0.000 C 
ATOM      6  C   UNL     1      35.641 -18.236 -23.280  0.00  0.00    -0.000 C 
ATOM      7  C   UNL     1      36.043 -18.553 -21.983  0.00  0.00    -0.000 C 
ENDBRANCH   1   2
BRANCH   1   8
ATOM      8  O   UNL     1      33.977 -14.250 -23.148  0.00  0.00    -0.472 OA
BRANCH   8   9
ATOM      9  C   UNL     1      33.735 -13.853 -24.407  0.00  0.00    +0.173 C 
ATOM     10  C   UNL     1      33.792 -12.496 -24.769  0.00  0.00    +0.172 C 
ATOM     11  C   UNL     1      33.415 -14.799 -25.395  0.00  0.00    +0.040 C 
ATOM     12  C   UNL     1      33.537 -12.097 -26.081  0.00  0.00    +0.040 C 
ATOM     13  C   UNL     1      33.161 -14.399 -26.708  0.00  0.00    +0.003 C 
ATOM     14  C   UNL     1      33.222 -13.049 -27.051  0.00  0.00    +0.003 C 
BRANCH  10  15
ATOM     15  O   UNL     1      34.098 -11.557 -23.830  0.00  0.00    -0.468 OA
ATOM     16  C   UNL     1      33.643 -10.236 -24.042  0.00  0.00    +0.253 C 
ENDBRANCH  10  15
ENDBRANCH   8   9
ENDBRANCH   1   8
BRANCH   1  17
ATOM     17  C   UNL     1      32.486 -14.946 -21.378  0.00  0.00    +0.025 C 
BRANCH  17  18
ATOM     18  C   UNL     1      32.576 -13.445 -21.102  0.00  0.00    -0.078 C 
BRANCH  18  19
ATOM     19  N   UNL     1      31.658 -12.717 -21.970  0.00  0.00    +0.382 N 
ATOM     20  C   UNL     1      31.238 -11.469 -21.351  0.00  0.00    -0.106 C 
ATOM     21  H   UNL     1      30.837 -13.295 -22.149  0.00  0.00    -0.085 HD
ATOM     22  H   UNL     1      32.139 -12.501 -22.845  0.00  0.00    -0.085 HD
ENDBRANCH  18  19
ENDBRANCH  17  18
ENDBRANCH   1  17
TORSDOF 7
ENDMDL
MODEL 6
REMARK VINA RESULT:      -7.7      7.323     10.274
REMARK  Name = 4500
REMARK  7 active torsions:
REMARK  status: ('A' for Active; 'I' for Inactive)
REMARK    1  A    between atoms: C_1  and  C_2
REMARK    2  A    between atoms: C_1  and  O_8
REMARK    3  A    between atoms: C_1  and  C_17
REMARK    4  A    between atoms: O_8  and  C_9
REMARK    5  A    between atoms: C_10  and  O_15
REMARK    6  A    between atoms: C_17  and  C_18
REMARK    7  A    between atoms: C_18  and  N_19
REMARK                            x       y       z     vdW  Elec       q    Type
REMARK                         _______ _______ _______ _____ _____    ______ ____
ROOT
ATOM      1  C   UNL     1      33.994 -16.287 -21.660  0.00  0.00    +0.186 C 
ENDROOT
BRANCH   1   2
ATOM      2  C   UNL     1      34.493 -17.673 -21.323  0.00  0.00    +0.017 C 
ATOM      3  C   UNL     1      33.578 -18.674 -21.043  0.00  0.00    -0.001 C 
ATOM      4  C   UNL     1      35.857 -17.915 -21.300  0.00  0.00    -0.001 C 
ATOM      5  C   UNL     1      34.038 -19.953 -20.730  0.00  0.00    -0.000 C 
ATOM      6  C   UNL     1      36.318 -19.194 -20.987  0.00  0.00    -0.000 C 
ATOM      7  C   UNL     1      35.409 -20.213 -20.702  0.00  0.00    -0.000 C 
ENDBRANCH   1   2
BRANCH   1   8
ATOM      8  O   UNL     1      34.801 -15.773 -22.721  0.00  0.00    -0.472 OA
BRANCH   8   9
ATOM      9  C   UNL     1      34.218 -15.541 -23.907  0.00  0.00    +0.173 C 
ATOM     10  C   UNL     1      33.766 -14.257 -24.259  0.00  0.00    +0.172 C 
ATOM     11  C   UNL     1      34.048 -16.588 -24.828  0.00  0.00    +0.040 C 
ATOM     12  C   UNL     1      33.160 -14.028 -25.495  0.00  0.00    +0.040 C 
ATOM     13  C   UNL     1      33.443 -16.359 -26.064  0.00  0.00    +0.003 C 
ATOM     14  C   UNL     1      33.000 -15.079 -26.398  0.00  0.00    +0.003 C 
BRANCH  10  15
ATOM     15  O   UNL     1      33.916 -13.222 -23.385  0.00  0.00    -0.468 OA
ATOM     16  C   UNL     1      33.698 -11.912 -23.866  0.00  0.00    +0.253 C 
ENDBRANCH  10  15
ENDBRANCH   8   9
ENDBRANCH   1   8
BRANCH   1  17
ATOM     17  C   UNL     1      34.036 -15.306 -20.477  0.00  0.00    +0.025 C 
BRANCH  17  18
ATOM     18  C   UNL     1      32.666 -14.716 -20.141  0.00  0.00    -0.078 C 
BRANCH  18  19
ATOM     19  N   UNL     1      32.335 -13.647 -21.077  0.00  0.00    +0.382 N 
ATOM     20  C   UNL     1      31.921 -12.446 -20.367  0.00  0.00    -0.106 C 
ATOM     21  H   UNL     1      31.575 -13.956 -21.683  0.00  0.00    -0.085 HD
ATOM     22  H   UNL     1      33.165 -13.429 -21.630  0.00  0.00    -0.085 HD
ENDBRANCH  18  19
ENDBRANCH  17  18
ENDBRANCH   1  17
TORSDOF 7
ENDMDL
MODEL 7
REMARK VINA RESULT:      -7.6      1.980      5.842
REMARK  Name = 4500
REMARK  7 active torsions:
REMARK  status: ('A' for Active; 'I' for Inactive)
REMARK    1  A    between atoms: C_1  and  C_2
REMARK    2  A    between atoms: C_1  and  O_8
REMARK    3  A    between atoms: C_1  and  C_17
REMARK    4  A    between atoms: O_8  and  C_9
REMARK    5  A    between atoms: C_10  and  O_15
REMARK    6  A    between atoms: C_17  and  C_18
REMARK    7  A    between atoms: C_18  and  N_19
REMARK                            x       y       z     vdW  Elec       q    Type
REMARK                         _______ _______ _______ _____ _____    ______ ____
ROOT
ATOM      1  C   UNL     1      35.408 -23.116 -15.925  0.00  0.00    +0.186 C 
ENDROOT
BRANCH   1   2
ATOM      2  C   UNL     1      35.377 -22.494 -17.302  0.00  0.00    +0.017 C 
ATOM      3  C   UNL     1      36.509 -21.859 -17.784  0.00  0.00    -0.001 C 
ATOM      4  C   UNL     1      34.216 -22.570 -18.053  0.00  0.00    -0.001 C 
ATOM      5  C   UNL     1      36.480 -21.283 -19.054  0.00  0.00    -0.000 C 
ATOM      6  C   UNL     1      34.187 -21.994 -19.324  0.00  0.00    -0.000 C 
ATOM      7  C   UNL     1      35.318 -21.350 -19.824  0.00  0.00    -0.000 C 
ENDBRANCH   1   2
BRANCH   1   8
ATOM      8  O   UNL     1      36.640 -23.828 -15.790  0.00  0.00    -0.472 OA
BRANCH   8   9
ATOM      9  C   UNL     1      37.126 -24.027 -14.555  0.00  0.00    +0.173 C 
ATOM     10  C   UNL     1      37.783 -25.222 -14.213  0.00  0.00    +0.172 C 
ATOM     11  C   UNL     1      36.986 -23.033 -13.572  0.00  0.00    +0.040 C 
ATOM     12  C   UNL     1      38.283 -25.418 -12.926  0.00  0.00    +0.040 C 
ATOM     13  C   UNL     1      37.487 -23.229 -12.285  0.00  0.00    +0.003 C 
ATOM     14  C   UNL     1      38.136 -24.420 -11.962  0.00  0.00    +0.003 C 
BRANCH  10  15
ATOM     15  O   UNL     1      37.932 -26.204 -15.146  0.00  0.00    -0.468 OA
ATOM     16  C   UNL     1      36.817 -27.026 -15.427  0.00  0.00    +0.253 C 
ENDBRANCH  10  15
ENDBRANCH   8   9
ENDBRANCH   1   8
BRANCH   1  17
ATOM     17  C   UNL     1      34.240 -24.079 -15.650  0.00  0.00    +0.025 C 
BRANCH  17  18
ATOM     18  C   UNL     1      33.442 -23.707 -14.400  0.00  0.00    -0.078 C 
BRANCH  18  19
ATOM     19  N   UNL     1      33.003 -24.913 -13.706  0.00  0.00    +0.382 N 
ATOM     20  C   UNL     1      31.564 -25.087 -13.829  0.00  0.00    -0.106 C 
ATOM     21  H   UNL     1      33.247 -24.839 -12.719  0.00  0.00    -0.085 HD
ATOM     22  H   UNL     1      33.466 -25.719 -14.128  0.00  0.00    -0.085 HD
ENDBRANCH  18  19
ENDBRANCH  17  18
ENDBRANCH   1  17
TORSDOF 7
ENDMDL
MODEL 8
REMARK VINA RESULT:      -7.5      6.817      9.877
REMARK  Name = 4500
REMARK  7 active torsions:
REMARK  status: ('A' for Active; 'I' for Inactive)
REMARK    1  A    between atoms: C_1  and  C_2
REMARK    2  A    between atoms: C_1  and  O_8
REMARK    3  A    between atoms: C_1  and  C_17
REMARK    4  A    between atoms: O_8  and  C_9
REMARK    5  A    between atoms: C_10  and  O_15
REMARK    6  A    between atoms: C_17  and  C_18
REMARK    7  A    between atoms: C_18  and  N_19
REMARK                            x       y       z     vdW  Elec       q    Type
REMARK                         _______ _______ _______ _____ _____    ______ ____
ROOT
ATOM      1  C   UNL     1      34.045 -16.607 -21.700  0.00  0.00    +0.186 C 
ENDROOT
BRANCH   1   2
ATOM      2  C   UNL     1      34.573 -17.959 -21.278  0.00  0.00    +0.017 C 
ATOM      3  C   UNL     1      33.677 -18.968 -20.961  0.00  0.00    -0.001 C 
ATOM      4  C   UNL     1      35.941 -18.163 -21.215  0.00  0.00    -0.001 C 
ATOM      5  C   UNL     1      34.164 -20.215 -20.571  0.00  0.00    -0.000 C 
ATOM      6  C   UNL     1      36.428 -19.410 -20.825  0.00  0.00    -0.000 C 
ATOM      7  C   UNL     1      35.540 -20.436 -20.502  0.00  0.00    -0.000 C 
ENDBRANCH   1   2
BRANCH   1   8
ATOM      8  O   UNL     1      34.856 -16.133 -22.776  0.00  0.00    -0.472 OA
BRANCH   8   9
ATOM      9  C   UNL     1      34.244 -15.677 -23.879  0.00  0.00    +0.173 C 
ATOM     10  C   UNL     1      34.243 -16.420 -25.073  0.00  0.00    +0.172 C 
ATOM     11  C   UNL     1      33.587 -14.435 -23.861  0.00  0.00    +0.040 C 
ATOM     12  C   UNL     1      33.604 -15.935 -26.214  0.00  0.00    +0.040 C 
ATOM     13  C   UNL     1      32.948 -13.951 -25.002  0.00  0.00    +0.003 C 
ATOM     14  C   UNL     1      32.955 -14.700 -26.178  0.00  0.00    +0.003 C 
BRANCH  10  15
ATOM     15  O   UNL     1      34.874 -17.627 -25.120  0.00  0.00    -0.468 OA
ATOM     16  C   UNL     1      34.104 -18.786 -24.879  0.00  0.00    +0.253 C 
ENDBRANCH  10  15
ENDBRANCH   8   9
ENDBRANCH   1   8
BRANCH   1  17
ATOM     17  C   UNL     1      34.043 -15.561 -20.573  0.00  0.00    +0.025 C 
BRANCH  17  18
ATOM     18  C   UNL     1      32.651 -14.999 -20.281  0.00  0.00    -0.078 C 
BRANCH  18  19
ATOM     19  N   UNL     1      32.698 -13.543 -20.220  0.00  0.00    +0.382 N 
ATOM     20  C   UNL     1      31.970 -12.953 -21.333  0.00  0.00    -0.106 C 
ATOM     21  H   UNL     1      33.670 -13.238 -20.256  0.00  0.00    -0.085 HD
ATOM     22  H   UNL     1      32.262 -13.239 -19.348  0.00  0.00    -0.085 HD
ENDBRANCH  18  19
ENDBRANCH  17  18
ENDBRANCH   1  17
TORSDOF 7
ENDMDL
MODEL 9
REMARK VINA RESULT:      -7.5     12.226     15.408
REMARK  Name = 4500
REMARK  7 active torsions:
REMARK  status: ('A' for Active; 'I' for Inactive)
REMARK    1  A    between atoms: C_1  and  C_2
REMARK    2  A    between atoms: C_1  and  O_8
REMARK    3  A    between atoms: C_1  and  C_17
REMARK    4  A    between atoms: O_8  and  C_9
REMARK    5  A    between atoms: C_10  and  O_15
REMARK    6  A    between atoms: C_17  and  C_18
REMARK    7  A    between atoms: C_18  and  N_19
REMARK                            x       y       z     vdW  Elec       q    Type
REMARK                         _______ _______ _______ _____ _____    ______ ____
ROOT
ATOM      1  C   UNL     1      32.679  -9.538 -22.365  0.00  0.00    +0.186 C 
ENDROOT
BRANCH   1   2
ATOM      2  C   UNL     1      33.009  -8.354 -23.243  0.00  0.00    +0.017 C 
ATOM      3  C   UNL     1      34.322  -8.142 -23.630  0.00  0.00    -0.001 C 
ATOM      4  C   UNL     1      31.992  -7.502 -23.642  0.00  0.00    -0.001 C 
ATOM      5  C   UNL     1      34.628  -7.048 -24.439  0.00  0.00    -0.000 C 
ATOM      6  C   UNL     1      32.298  -6.408 -24.452  0.00  0.00    -0.000 C 
ATOM      7  C   UNL     1      33.615  -6.180 -24.850  0.00  0.00    -0.000 C 
ENDBRANCH   1   2
BRANCH   1   8
ATOM      8  O   UNL     1      32.164 -10.577 -23.200  0.00  0.00    -0.472 OA
BRANCH   8   9
ATOM      9  C   UNL     1      32.578 -11.834 -22.978  0.00  0.00    +0.173 C 
ATOM     10  C   UNL     1      33.590 -12.418 -23.760  0.00  0.00    +0.172 C 
ATOM     11  C   UNL     1      32.000 -12.597 -21.950  0.00  0.00    +0.040 C 
ATOM     12  C   UNL     1      34.010 -13.726 -23.521  0.00  0.00    +0.040 C 
ATOM     13  C   UNL     1      32.421 -13.905 -21.710  0.00  0.00    +0.003 C 
ATOM     14  C   UNL     1      33.427 -14.470 -22.495  0.00  0.00    +0.003 C 
BRANCH  10  15
ATOM     15  O   UNL     1      34.167 -11.702 -24.766  0.00  0.00    -0.468 OA
ATOM     16  C   UNL     1      33.807 -12.019 -26.095  0.00  0.00    +0.253 C 
ENDBRANCH  10  15
ENDBRANCH   8   9
ENDBRANCH   1   8
BRANCH   1  17
ATOM     17  C   UNL     1      31.655  -9.228 -21.260  0.00  0.00    +0.025 C 
BRANCH  17  18
ATOM     18  C   UNL     1      32.287  -8.592 -20.021  0.00  0.00    -0.078 C 
BRANCH  18  19
ATOM     19  N   UNL     1      32.554  -9.611 -19.013  0.00  0.00    +0.382 N 
ATOM     20  C   UNL     1      31.462 -10.570 -18.941  0.00  0.00    -0.106 C 
ATOM     21  H   UNL     1      32.664  -9.161 -18.104  0.00  0.00    -0.085 HD
ATOM     22  H   UNL     1      33.408 -10.108 -19.269  0.00  0.00    -0.085 HD
ENDBRANCH  18  19
ENDBRANCH  17  18
ENDBRANCH   1  17
TORSDOF 7
ENDMDL
