MODEL 1
REMARK VINA RESULT:      -8.7      0.000      0.000
REMARK  Name = 3092847
REMARK  4 active torsions:
REMARK  status: ('A' for Active; 'I' for Inactive)
REMARK    1  A    between atoms: C_1  and  N_8
REMARK    2  A    between atoms: C_2  and  N_21
REMARK    3  A    between atoms: C_4  and  S_13
REMARK    4  A    between atoms: S_13  and  N_16
REMARK                            x       y       z     vdW  Elec       q    Type
REMARK                         _______ _______ _______ _____ _____    ______ ____
ROOT
ATOM      1  C   UNL     1      34.389 -19.010 -21.132  0.00  0.00    +0.076 C 
ATOM      2  C   UNL     1      35.484 -19.705 -20.605  0.00  0.00    +0.158 C 
ATOM      3  C   UNL     1      33.096 -19.500 -20.914  0.00  0.00    +0.018 C 
ATOM      4  C   UNL     1      33.996 -21.357 -19.657  0.00  0.00    +0.123 C 
ATOM      5  C   UNL     1      35.287 -20.875 -19.870  0.00  0.00    +0.045 C 
ATOM      6  C   UNL     1      32.900 -20.669 -20.179  0.00  0.00    +0.021 C 
ENDROOT
BRANCH   1   8
ATOM      7  O   UNL     1      34.983 -16.155 -20.221  0.00  0.00    -0.275 OA
ATOM      8  N   UNL     1      34.560 -17.812 -21.886  0.00  0.00    -0.257 N 
ATOM      9  C   UNL     1      34.386 -17.773 -23.326  0.00  0.00    +0.099 C 
ATOM     10  C   UNL     1      35.045 -16.474 -23.739  0.00  0.00    +0.031 C 
ATOM     11  C   UNL     1      34.821 -15.570 -22.544  0.00  0.00    +0.087 C 
ATOM     12  C   UNL     1      34.827 -16.527 -21.374  0.00  0.00    +0.229 C 
ENDBRANCH   1   8
BRANCH   4  13
ATOM     13  S   UNL     1      33.750 -22.820 -18.737  0.00  0.00    +0.057 S 
ATOM     14  O   UNL     1      32.488 -22.703 -18.018  0.00  0.00    -0.153 OA
ATOM     15  O   UNL     1      33.981 -23.961 -19.611  0.00  0.00    -0.153 OA
BRANCH  13  16
ATOM     16  N   UNL     1      35.034 -22.719 -17.615  0.00  0.00    -0.203 NA
ATOM     17  H   UNL     1      34.657 -22.576 -16.679  0.00  0.00    +0.144 HD
ATOM     18  H   UNL     1      35.641 -21.937 -17.860  0.00  0.00    +0.144 HD
ENDBRANCH  13  16
ENDBRANCH   4  13
BRANCH   2  21
ATOM     19  O   UNL     1      37.593 -19.192 -19.828  0.00  0.00    -0.126 OA
ATOM     20  O   UNL     1      37.161 -18.885 -21.959  0.00  0.00    -0.126 OA
ATOM     21  N   UNL     1      36.812 -19.237 -20.808  0.00  0.00    +0.059 N 
ENDBRANCH   2  21
TORSDOF 4
ENDMDL
MODEL 2
REMARK VINA RESULT:      -8.4      5.977      7.622
REMARK  Name = 3092847
REMARK  4 active torsions:
REMARK  status: ('A' for Active; 'I' for Inactive)
REMARK    1  A    between atoms: C_1  and  N_8
REMARK    2  A    between atoms: C_2  and  N_21
REMARK    3  A    between atoms: C_4  and  S_13
REMARK    4  A    between atoms: S_13  and  N_16
REMARK                            x       y       z     vdW  Elec       q    Type
REMARK                         _______ _______ _______ _____ _____    ______ ____
ROOT
ATOM      1  C   UNL     1      33.625 -23.343 -15.628  0.00  0.00    +0.076 C 
ATOM      2  C   UNL     1      33.019 -23.161 -16.876  0.00  0.00    +0.158 C 
ATOM      3  C   UNL     1      32.832 -23.355 -14.475  0.00  0.00    +0.018 C 
ATOM      4  C   UNL     1      30.853 -23.006 -15.817  0.00  0.00    +0.123 C 
ATOM      5  C   UNL     1      31.637 -22.994 -16.970  0.00  0.00    +0.045 C 
ATOM      6  C   UNL     1      31.450 -23.187 -14.569  0.00  0.00    +0.021 C 
ENDROOT
BRANCH   1   8
ATOM      7  O   UNL     1      35.310 -25.889 -15.505  0.00  0.00    -0.275 OA
ATOM      8  N   UNL     1      35.035 -23.518 -15.502  0.00  0.00    -0.257 N 
ATOM      9  C   UNL     1      35.941 -22.398 -15.325  0.00  0.00    +0.099 C 
ATOM     10  C   UNL     1      37.303 -22.974 -15.648  0.00  0.00    +0.031 C 
ATOM     11  C   UNL     1      37.187 -24.420 -15.209  0.00  0.00    +0.087 C 
ATOM     12  C   UNL     1      35.729 -24.742 -15.447  0.00  0.00    +0.229 C 
ENDBRANCH   1   8
BRANCH   4  13
ATOM     13  S   UNL     1      29.123 -22.796 -15.934  0.00  0.00    +0.057 S 
ATOM     14  O   UNL     1      28.712 -21.816 -14.938  0.00  0.00    -0.153 OA
ATOM     15  O   UNL     1      28.775 -22.596 -17.333  0.00  0.00    -0.153 OA
BRANCH  13  16
ATOM     16  N   UNL     1      28.575 -24.339 -15.447  0.00  0.00    -0.203 NA
ATOM     17  H   UNL     1      27.878 -24.678 -16.110  0.00  0.00    +0.144 HD
ATOM     18  H   UNL     1      28.158 -24.276 -14.519  0.00  0.00    +0.144 HD
ENDBRANCH  13  16
ENDBRANCH   4  13
BRANCH   2  21
ATOM     19  O   UNL     1      33.765 -24.142 -18.825  0.00  0.00    -0.126 OA
ATOM     20  O   UNL     1      34.485 -22.129 -18.326  0.00  0.00    -0.126 OA
ATOM     21  N   UNL     1      33.796 -23.143 -18.069  0.00  0.00    +0.059 N 
ENDBRANCH   2  21
TORSDOF 4
ENDMDL
MODEL 3
REMARK VINA RESULT:      -7.9      6.565      8.390
REMARK  Name = 3092847
REMARK  4 active torsions:
REMARK  status: ('A' for Active; 'I' for Inactive)
REMARK    1  A    between atoms: C_1  and  N_8
REMARK    2  A    between atoms: C_2  and  N_21
REMARK    3  A    between atoms: C_4  and  S_13
REMARK    4  A    between atoms: S_13  and  N_16
REMARK                            x       y       z     vdW  Elec       q    Type
REMARK                         _______ _______ _______ _____ _____    ______ ____
ROOT
ATOM      1  C   UNL     1      33.840 -24.029 -14.729  0.00  0.00    +0.076 C 
ATOM      2  C   UNL     1      33.440 -23.447 -15.937  0.00  0.00    +0.158 C 
ATOM      3  C   UNL     1      32.873 -24.352 -13.770  0.00  0.00    +0.018 C 
ATOM      4  C   UNL     1      31.133 -23.514 -15.221  0.00  0.00    +0.123 C 
ATOM      5  C   UNL     1      32.090 -23.190 -16.182  0.00  0.00    +0.045 C 
ATOM      6  C   UNL     1      31.524 -24.095 -14.015  0.00  0.00    +0.021 C 
ENDROOT
BRANCH   1   8
ATOM      7  O   UNL     1      35.667 -26.257 -15.746  0.00  0.00    -0.275 OA
ATOM      8  N   UNL     1      35.212 -24.304 -14.452  0.00  0.00    -0.257 N 
ATOM      9  C   UNL     1      35.979 -23.525 -13.498  0.00  0.00    +0.099 C 
ATOM     10  C   UNL     1      37.418 -23.870 -13.817  0.00  0.00    +0.031 C 
ATOM     11  C   UNL     1      37.336 -25.301 -14.308  0.00  0.00    +0.087 C 
ATOM     12  C   UNL     1      35.977 -25.368 -14.967  0.00  0.00    +0.229 C 
ENDBRANCH   1   8
BRANCH   4  13
ATOM     13  S   UNL     1      29.444 -23.193 -15.528  0.00  0.00    +0.057 S 
ATOM     14  O   UNL     1      28.726 -24.461 -15.511  0.00  0.00    -0.153 OA
ATOM     15  O   UNL     1      29.014 -22.107 -14.660  0.00  0.00    -0.153 OA
BRANCH  13  16
ATOM     16  N   UNL     1      29.508 -22.618 -17.136  0.00  0.00    -0.203 NA
ATOM     17  H   UNL     1      29.532 -21.599 -17.131  0.00  0.00    +0.144 HD
ATOM     18  H   UNL     1      28.685 -22.937 -17.645  0.00  0.00    +0.144 HD
ENDBRANCH  13  16
ENDBRANCH   4  13
BRANCH   2  21
ATOM     19  O   UNL     1      35.377 -22.395 -16.613  0.00  0.00    -0.126 OA
ATOM     20  O   UNL     1      34.227 -23.525 -18.103  0.00  0.00    -0.126 OA
ATOM     21  N   UNL     1      34.396 -23.105 -16.934  0.00  0.00    +0.059 N 
ENDBRANCH   2  21
TORSDOF 4
ENDMDL
MODEL 4
REMARK VINA RESULT:      -7.9      3.655      6.547
REMARK  Name = 3092847
REMARK  4 active torsions:
REMARK  status: ('A' for Active; 'I' for Inactive)
REMARK    1  A    between atoms: C_1  and  N_8
REMARK    2  A    between atoms: C_2  and  N_21
REMARK    3  A    between atoms: C_4  and  S_13
REMARK    4  A    between atoms: S_13  and  N_16
REMARK                            x       y       z     vdW  Elec       q    Type
REMARK                         _______ _______ _______ _____ _____    ______ ____
ROOT
ATOM      1  C   UNL     1      34.370 -17.528 -21.763  0.00  0.00    +0.076 C 
ATOM      2  C   UNL     1      34.458 -17.390 -23.153  0.00  0.00    +0.158 C 
ATOM      3  C   UNL     1      33.902 -16.455 -20.996  0.00  0.00    +0.018 C 
ATOM      4  C   UNL     1      33.618 -15.130 -22.997  0.00  0.00    +0.123 C 
ATOM      5  C   UNL     1      34.083 -16.195 -23.768  0.00  0.00    +0.045 C 
ATOM      6  C   UNL     1      33.527 -15.260 -21.610  0.00  0.00    +0.021 C 
ENDROOT
BRANCH   1   8
ATOM      7  O   UNL     1      32.702 -19.964 -20.978  0.00  0.00    -0.275 OA
ATOM      8  N   UNL     1      34.746 -18.738 -21.109  0.00  0.00    -0.257 N 
ATOM      9  C   UNL     1      36.091 -18.965 -20.615  0.00  0.00    +0.099 C 
ATOM     10  C   UNL     1      36.151 -20.460 -20.389  0.00  0.00    +0.031 C 
ATOM     11  C   UNL     1      34.727 -20.816 -20.009  0.00  0.00    +0.087 C 
ATOM     12  C   UNL     1      33.898 -19.813 -20.779  0.00  0.00    +0.229 C 
ENDBRANCH   1   8
BRANCH   4  13
ATOM     13  S   UNL     1      33.148 -13.634 -23.765  0.00  0.00    +0.057 S 
ATOM     14  O   UNL     1      34.247 -12.686 -23.635  0.00  0.00    -0.153 OA
ATOM     15  O   UNL     1      32.608 -13.939 -25.082  0.00  0.00    -0.153 OA
BRANCH  13  16
ATOM     16  N   UNL     1      31.868 -13.135 -22.749  0.00  0.00    -0.203 NA
ATOM     17  H   UNL     1      31.829 -13.740 -21.929  0.00  0.00    +0.144 HD
ATOM     18  H   UNL     1      30.986 -13.194 -23.257  0.00  0.00    +0.144 HD
ENDBRANCH  13  16
ENDBRANCH   4  13
BRANCH   2  21
ATOM     19  O   UNL     1      34.147 -18.982 -24.792  0.00  0.00    -0.126 OA
ATOM     20  O   UNL     1      36.114 -18.846 -23.827  0.00  0.00    -0.126 OA
ATOM     21  N   UNL     1      34.930 -18.460 -23.965  0.00  0.00    +0.059 N 
ENDBRANCH   2  21
TORSDOF 4
ENDMDL
MODEL 5
REMARK VINA RESULT:      -7.9      3.826      6.738
REMARK  Name = 3092847
REMARK  4 active torsions:
REMARK  status: ('A' for Active; 'I' for Inactive)
REMARK    1  A    between atoms: C_1  and  N_8
REMARK    2  A    between atoms: C_2  and  N_21
REMARK    3  A    between atoms: C_4  and  S_13
REMARK    4  A    between atoms: S_13  and  N_16
REMARK                            x       y       z     vdW  Elec       q    Type
REMARK                         _______ _______ _______ _____ _____    ______ ____
ROOT
ATOM      1  C   UNL     1      34.693 -17.730 -22.790  0.00  0.00    +0.076 C 
ATOM      2  C   UNL     1      34.119 -16.508 -22.422  0.00  0.00    +0.158 C 
ATOM      3  C   UNL     1      34.825 -18.045 -24.147  0.00  0.00    +0.018 C 
ATOM      4  C   UNL     1      33.817 -15.933 -24.749  0.00  0.00    +0.123 C 
ATOM      5  C   UNL     1      33.682 -15.612 -23.399  0.00  0.00    +0.045 C 
ATOM      6  C   UNL     1      34.389 -17.150 -25.124  0.00  0.00    +0.021 C 
ENDROOT
BRANCH   1   8
ATOM      7  O   UNL     1      33.185 -19.906 -21.264  0.00  0.00    -0.275 OA
ATOM      8  N   UNL     1      35.149 -18.664 -21.813  0.00  0.00    -0.257 N 
ATOM      9  C   UNL     1      36.510 -18.655 -21.311  0.00  0.00    +0.099 C 
ATOM     10  C   UNL     1      36.664 -20.007 -20.647  0.00  0.00    +0.031 C 
ATOM     11  C   UNL     1      35.268 -20.311 -20.139  0.00  0.00    +0.087 C 
ATOM     12  C   UNL     1      34.372 -19.635 -21.152  0.00  0.00    +0.229 C 
ENDBRANCH   1   8
BRANCH   4  13
ATOM     13  S   UNL     1      33.271 -14.813 -25.973  0.00  0.00    +0.057 S 
ATOM     14  O   UNL     1      32.484 -13.772 -25.324  0.00  0.00    -0.153 OA
ATOM     15  O   UNL     1      34.407 -14.447 -26.806  0.00  0.00    -0.153 OA
BRANCH  13  16
ATOM     16  N   UNL     1      32.222 -15.810 -26.881  0.00  0.00    -0.203 NA
ATOM     17  H   UNL     1      32.029 -16.665 -26.361  0.00  0.00    +0.144 HD
ATOM     18  H   UNL     1      32.661 -16.046 -27.771  0.00  0.00    +0.144 HD
ENDBRANCH  13  16
ENDBRANCH   4  13
BRANCH   2  21
ATOM     19  O   UNL     1      34.962 -15.715 -20.427  0.00  0.00    -0.126 OA
ATOM     20  O   UNL     1      32.846 -16.295 -20.511  0.00  0.00    -0.126 OA
ATOM     21  N   UNL     1      33.968 -16.155 -21.051  0.00  0.00    +0.059 N 
ENDBRANCH   2  21
TORSDOF 4
ENDMDL
MODEL 6
REMARK VINA RESULT:      -7.6      4.338      6.431
REMARK  Name = 3092847
REMARK  4 active torsions:
REMARK  status: ('A' for Active; 'I' for Inactive)
REMARK    1  A    between atoms: C_1  and  N_8
REMARK    2  A    between atoms: C_2  and  N_21
REMARK    3  A    between atoms: C_4  and  S_13
REMARK    4  A    between atoms: S_13  and  N_16
REMARK                            x       y       z     vdW  Elec       q    Type
REMARK                         _______ _______ _______ _____ _____    ______ ____
ROOT
ATOM      1  C   UNL     1      33.947 -14.079 -23.635  0.00  0.00    +0.076 C 
ATOM      2  C   UNL     1      33.729 -14.968 -24.694  0.00  0.00    +0.158 C 
ATOM      3  C   UNL     1      34.485 -14.560 -22.436  0.00  0.00    +0.018 C 
ATOM      4  C   UNL     1      34.581 -16.791 -23.358  0.00  0.00    +0.123 C 
ATOM      5  C   UNL     1      34.046 -16.320 -24.556  0.00  0.00    +0.045 C 
ATOM      6  C   UNL     1      34.801 -15.911 -22.298  0.00  0.00    +0.021 C 
ENDROOT
BRANCH   1   8
ATOM      7  O   UNL     1      31.862 -12.387 -22.178  0.00  0.00    -0.275 OA
ATOM      8  N   UNL     1      33.633 -12.693 -23.749  0.00  0.00    -0.257 N 
ATOM      9  C   UNL     1      34.278 -11.831 -24.721  0.00  0.00    +0.099 C 
ATOM     10  C   UNL     1      33.972 -10.432 -24.232  0.00  0.00    +0.031 C 
ATOM     11  C   UNL     1      32.616 -10.580 -23.569  0.00  0.00    +0.087 C 
ATOM     12  C   UNL     1      32.641 -11.994 -23.034  0.00  0.00    +0.229 C 
ENDBRANCH   1   8
BRANCH   4  13
ATOM     13  S   UNL     1      34.978 -18.483 -23.184  0.00  0.00    +0.057 S 
ATOM     14  O   UNL     1      34.233 -19.015 -22.051  0.00  0.00    -0.153 OA
ATOM     15  O   UNL     1      34.866 -19.122 -24.487  0.00  0.00    -0.153 OA
BRANCH  13  16
ATOM     16  N   UNL     1      36.631 -18.387 -22.761  0.00  0.00    -0.203 NA
ATOM     17  H   UNL     1      37.190 -18.878 -23.458  0.00  0.00    +0.144 HD
ATOM     18  H   UNL     1      36.774 -18.817 -21.847  0.00  0.00    +0.144 HD
ENDBRANCH  13  16
ENDBRANCH   4  13
BRANCH   2  21
ATOM     19  O   UNL     1      33.849 -14.669 -26.978  0.00  0.00    -0.126 OA
ATOM     20  O   UNL     1      32.052 -13.974 -25.926  0.00  0.00    -0.126 OA
ATOM     21  N   UNL     1      33.183 -14.514 -25.928  0.00  0.00    +0.059 N 
ENDBRANCH   2  21
TORSDOF 4
ENDMDL
MODEL 7
REMARK VINA RESULT:      -7.5      7.326      9.866
REMARK  Name = 3092847
REMARK  4 active torsions:
REMARK  status: ('A' for Active; 'I' for Inactive)
REMARK    1  A    between atoms: C_1  and  N_8
REMARK    2  A    between atoms: C_2  and  N_21
REMARK    3  A    between atoms: C_4  and  S_13
REMARK    4  A    between atoms: S_13  and  N_16
REMARK                            x       y       z     vdW  Elec       q    Type
REMARK                         _______ _______ _______ _____ _____    ______ ____
ROOT
ATOM      1  C   UNL     1      32.530  -9.768 -22.931  0.00  0.00    +0.076 C 
ATOM      2  C   UNL     1      33.637 -10.306 -23.596  0.00  0.00    +0.158 C 
ATOM      3  C   UNL     1      31.614 -10.629 -22.316  0.00  0.00    +0.018 C 
ATOM      4  C   UNL     1      32.910 -12.539 -23.031  0.00  0.00    +0.123 C 
ATOM      5  C   UNL     1      33.827 -11.687 -23.646  0.00  0.00    +0.045 C 
ATOM      6  C   UNL     1      31.804 -12.010 -22.365  0.00  0.00    +0.021 C 
ENDROOT
BRANCH   1   8
ATOM      7  O   UNL     1      33.111  -7.770 -20.694  0.00  0.00    -0.275 OA
ATOM      8  N   UNL     1      32.312  -8.360 -22.864  0.00  0.00    -0.257 N 
ATOM      9  C   UNL     1      31.652  -7.628 -23.929  0.00  0.00    +0.099 C 
ATOM     10  C   UNL     1      31.997  -6.181 -23.647  0.00  0.00    +0.031 C 
ATOM     11  C   UNL     1      32.107  -6.133 -22.136  0.00  0.00    +0.087 C 
ATOM     12  C   UNL     1      32.608  -7.514 -21.778  0.00  0.00    +0.229 C 
ENDBRANCH   1   8
BRANCH   4  13
ATOM     13  S   UNL     1      33.146 -14.268 -23.092  0.00  0.00    +0.057 S 
ATOM     14  O   UNL     1      32.310 -14.882 -22.069  0.00  0.00    -0.153 OA
ATOM     15  O   UNL     1      33.031 -14.703 -24.476  0.00  0.00    -0.153 OA
BRANCH  13  16
ATOM     16  N   UNL     1      34.782 -14.390 -22.612  0.00  0.00    -0.203 NA
ATOM     17  H   UNL     1      35.197 -13.459 -22.579  0.00  0.00    +0.144 HD
ATOM     18  H   UNL     1      35.292 -14.965 -23.282  0.00  0.00    +0.144 HD
ENDBRANCH  13  16
ENDBRANCH   4  13
BRANCH   2  21
ATOM     19  O   UNL     1      35.085  -8.510 -23.583  0.00  0.00    -0.126 OA
ATOM     20  O   UNL     1      34.900  -9.690 -25.425  0.00  0.00    -0.126 OA
ATOM     21  N   UNL     1      34.588  -9.460 -24.234  0.00  0.00    +0.059 N 
ENDBRANCH   2  21
TORSDOF 4
ENDMDL
MODEL 8
REMARK VINA RESULT:      -7.4      6.983      9.633
REMARK  Name = 3092847
REMARK  4 active torsions:
REMARK  status: ('A' for Active; 'I' for Inactive)
REMARK    1  A    between atoms: C_1  and  N_8
REMARK    2  A    between atoms: C_2  and  N_21
REMARK    3  A    between atoms: C_4  and  S_13
REMARK    4  A    between atoms: S_13  and  N_16
REMARK                            x       y       z     vdW  Elec       q    Type
REMARK                         _______ _______ _______ _____ _____    ______ ____
ROOT
ATOM      1  C   UNL     1      32.771 -10.231 -23.343  0.00  0.00    +0.076 C 
ATOM      2  C   UNL     1      32.271 -11.091 -22.358  0.00  0.00    +0.158 C 
ATOM      3  C   UNL     1      33.551 -10.756 -24.379  0.00  0.00    +0.018 C 
ATOM      4  C   UNL     1      33.326 -12.973 -23.445  0.00  0.00    +0.123 C 
ATOM      5  C   UNL     1      32.548 -12.458 -22.409  0.00  0.00    +0.045 C 
ATOM      6  C   UNL     1      33.827 -12.122 -24.430  0.00  0.00    +0.021 C 
ENDROOT
BRANCH   1   8
ATOM      7  O   UNL     1      34.584  -7.874 -22.645  0.00  0.00    -0.275 OA
ATOM      8  N   UNL     1      32.503  -8.831 -23.315  0.00  0.00    -0.257 N 
ATOM      9  C   UNL     1      31.181  -8.291 -23.572  0.00  0.00    +0.099 C 
ATOM     10  C   UNL     1      31.431  -6.824 -23.847  0.00  0.00    +0.031 C 
ATOM     11  C   UNL     1      32.640  -6.506 -22.989  0.00  0.00    +0.087 C 
ATOM     12  C   UNL     1      33.408  -7.808 -22.971  0.00  0.00    +0.229 C 
ENDBRANCH   1   8
BRANCH   4  13
ATOM     13  S   UNL     1      33.673 -14.683 -23.510  0.00  0.00    +0.057 S 
ATOM     14  O   UNL     1      33.213 -15.196 -24.794  0.00  0.00    -0.153 OA
ATOM     15  O   UNL     1      35.054 -14.891 -23.102  0.00  0.00    -0.153 OA
BRANCH  13  16
ATOM     16  N   UNL     1      32.642 -15.271 -22.281  0.00  0.00    -0.203 NA
ATOM     17  H   UNL     1      33.203 -15.666 -21.527  0.00  0.00    +0.144 HD
ATOM     18  H   UNL     1      32.032 -15.992 -22.664  0.00  0.00    +0.144 HD
ENDBRANCH  13  16
ENDBRANCH   4  13
BRANCH   2  21
ATOM     19  O   UNL     1      31.971  -9.744 -20.510  0.00  0.00    -0.126 OA
ATOM     20  O   UNL     1      30.302 -11.014 -21.159  0.00  0.00    -0.126 OA
ATOM     21  N   UNL     1      31.475 -10.592 -21.289  0.00  0.00    +0.059 N 
ENDBRANCH   2  21
TORSDOF 4
ENDMDL
MODEL 9
REMARK VINA RESULT:      -7.3      6.548      8.185
REMARK  Name = 3092847
REMARK  4 active torsions:
REMARK  status: ('A' for Active; 'I' for Inactive)
REMARK    1  A    between atoms: C_1  and  N_8
REMARK    2  A    between atoms: C_2  and  N_21
REMARK    3  A    between atoms: C_4  and  S_13
REMARK    4  A    between atoms: S_13  and  N_16
REMARK                            x       y       z     vdW  Elec       q    Type
REMARK                         _______ _______ _______ _____ _____    ______ ____
ROOT
ATOM      1  C   UNL     1      32.486 -23.669 -15.324  0.00  0.00    +0.076 C 
ATOM      2  C   UNL     1      33.437 -23.523 -16.340  0.00  0.00    +0.158 C 
ATOM      3  C   UNL     1      32.916 -23.852 -14.004  0.00  0.00    +0.018 C 
ATOM      4  C   UNL     1      35.220 -23.741 -14.724  0.00  0.00    +0.123 C 
ATOM      5  C   UNL     1      34.800 -23.559 -16.041  0.00  0.00    +0.045 C 
ATOM      6  C   UNL     1      34.278 -23.888 -13.705  0.00  0.00    +0.021 C 
ENDROOT
BRANCH   1   8
ATOM      7  O   UNL     1      30.427 -25.924 -15.432  0.00  0.00    -0.275 OA
ATOM      8  N   UNL     1      31.088 -23.636 -15.600  0.00  0.00    -0.257 N 
ATOM      9  C   UNL     1      30.402 -22.413 -15.976  0.00  0.00    +0.099 C 
ATOM     10  C   UNL     1      28.938 -22.737 -15.769  0.00  0.00    +0.031 C 
ATOM     11  C   UNL     1      28.859 -24.220 -16.070  0.00  0.00    +0.087 C 
ATOM     12  C   UNL     1      30.211 -24.738 -15.635  0.00  0.00    +0.229 C 
ENDBRANCH   1   8
BRANCH   4  13
ATOM     13  S   UNL     1      36.925 -23.786 -14.349  0.00  0.00    +0.057 S 
ATOM     14  O   UNL     1      37.535 -22.557 -14.839  0.00  0.00    -0.153 OA
ATOM     15  O   UNL     1      37.082 -24.164 -12.953  0.00  0.00    -0.153 OA
BRANCH  13  16
ATOM     16  N   UNL     1      37.440 -25.086 -15.331  0.00  0.00    -0.203 NA
ATOM     17  H   UNL     1      38.405 -24.930 -15.622  0.00  0.00    +0.144 HD
ATOM     18  H   UNL     1      36.843 -25.148 -16.156  0.00  0.00    +0.144 HD
ENDBRANCH  13  16
ENDBRANCH   4  13
BRANCH   2  21
ATOM     19  O   UNL     1      33.436 -24.149 -18.559  0.00  0.00    -0.126 OA
ATOM     20  O   UNL     1      32.295 -22.366 -17.976  0.00  0.00    -0.126 OA
ATOM     21  N   UNL     1      33.036 -23.337 -17.693  0.00  0.00    +0.059 N 
ENDBRANCH   2  21
TORSDOF 4
ENDMDL
