MODEL 1
REMARK VINA RESULT:      -8.7      0.000      0.000
REMARK  Name = 5284596
REMARK  4 active torsions:
REMARK  status: ('A' for Active; 'I' for Inactive)
REMARK    1  A    between atoms: N_3  and  C_25
REMARK    2  A    between atoms: C_5  and  O_21
REMARK    3  A    between atoms: C_18  and  O_23
REMARK    4  A    between atoms: C_25  and  C_26
REMARK                            x       y       z     vdW  Elec       q    Type
REMARK                         _______ _______ _______ _____ _____    ______ ____
ROOT
ATOM      1  O   UNL     1      31.528 -10.921 -22.677  0.00  0.00    -0.469 OA
ATOM      2  O   UNL     1      32.003 -11.061 -20.017  0.00  0.00    -0.292 OA
ATOM      3  N   UNL     1      31.870  -5.858 -23.802  0.00  0.00    +0.393 N 
ATOM      4  C   UNL     1      31.657  -8.507 -22.631  0.00  0.00    +0.084 C 
ATOM      5  C   UNL     1      32.125  -7.293 -21.815  0.00  0.00    +0.079 C 
ATOM      6  C   UNL     1      32.871  -6.349 -22.819  0.00  0.00    -0.027 C 
ATOM      7  C   UNL     1      31.174  -9.752 -21.871  0.00  0.00    +0.228 C 
ATOM      8  C   UNL     1      30.655  -8.048 -23.717  0.00  0.00    -0.012 C 
ATOM      9  C   UNL     1      32.827  -9.146 -23.295  0.00  0.00    +0.016 C 
ATOM     10  C   UNL     1      32.963  -7.709 -20.594  0.00  0.00    +0.033 C 
ATOM     11  C   UNL     1      34.129  -7.034 -23.461  0.00  0.00    +0.008 C 
ATOM     12  C   UNL     1      31.220  -6.911 -24.589  0.00  0.00    -0.076 C 
ATOM     13  C   UNL     1      33.961  -8.502 -23.754  0.00  0.00    -0.025 C 
ATOM     14  C   UNL     1      32.194  -8.699 -19.719  0.00  0.00    +0.071 C 
ATOM     15  C   UNL     1      31.834  -9.941 -20.502  0.00  0.00    +0.191 C 
ATOM     16  C   UNL     1      32.658 -10.515 -23.348  0.00  0.00    +0.168 C 
ATOM     17  C   UNL     1      34.923  -9.296 -24.377  0.00  0.00    -0.001 C 
ATOM     18  C   UNL     1      33.588 -11.314 -23.971  0.00  0.00    +0.167 C 
ATOM     19  C   UNL     1      34.728 -10.689 -24.500  0.00  0.00    +0.039 C 
ATOM     20  H   UNL     1      31.138  -5.459 -23.213  0.00  0.00    -0.079 HD
ENDROOT
BRANCH   5  21
ATOM     21  O   UNL     1      30.976  -6.601 -21.296  0.00  0.00    -0.388 OA
ATOM     22  H   UNL     1      30.958  -6.686 -20.330  0.00  0.00    +0.210 HD
ENDBRANCH   5  21
BRANCH  18  23
ATOM     23  O   UNL     1      33.435 -12.658 -24.048  0.00  0.00    -0.503 OA
ATOM     24  H   UNL     1      33.914 -13.218 -23.469  0.00  0.00    +0.292 HD
ENDBRANCH  18  23
BRANCH   3  25
ATOM     25  C   UNL     1      32.364  -4.781 -24.653  0.00  0.00    -0.050 C 
BRANCH  25  26
ATOM     26  C   UNL     1      32.697  -5.274 -26.029  0.00  0.00    -0.049 C 
ATOM     27  C   UNL     1      33.888  -5.113 -26.613  0.00  0.00    -0.007 C 
ENDBRANCH  25  26
ENDBRANCH   3  25
TORSDOF 4
ENDMDL
MODEL 2
REMARK VINA RESULT:      -6.5     16.759     18.941
REMARK  Name = 5284596
REMARK  4 active torsions:
REMARK  status: ('A' for Active; 'I' for Inactive)
REMARK    1  A    between atoms: N_3  and  C_25
REMARK    2  A    between atoms: C_5  and  O_21
REMARK    3  A    between atoms: C_18  and  O_23
REMARK    4  A    between atoms: C_25  and  C_26
REMARK                            x       y       z     vdW  Elec       q    Type
REMARK                         _______ _______ _______ _____ _____    ______ ____
ROOT
ATOM      1  O   UNL     1      38.645 -23.853 -14.179  0.00  0.00    -0.469 OA
ATOM      2  O   UNL     1      39.227 -26.480 -14.461  0.00  0.00    -0.292 OA
ATOM      3  N   UNL     1      33.604 -23.491 -15.396  0.00  0.00    +0.393 N 
ATOM      4  C   UNL     1      36.383 -24.211 -14.955  0.00  0.00    +0.084 C 
ATOM      5  C   UNL     1      35.300 -25.269 -15.212  0.00  0.00    +0.079 C 
ATOM      6  C   UNL     1      33.973 -24.696 -14.608  0.00  0.00    -0.027 C 
ATOM      7  C   UNL     1      37.853 -24.614 -15.147  0.00  0.00    +0.228 C 
ATOM      8  C   UNL     1      36.022 -22.906 -15.702  0.00  0.00    -0.012 C 
ATOM      9  C   UNL     1      36.466 -23.923 -13.496  0.00  0.00    +0.016 C 
ATOM     10  C   UNL     1      35.702 -26.649 -14.664  0.00  0.00    +0.033 C 
ATOM     11  C   UNL     1      34.076 -24.454 -13.060  0.00  0.00    +0.008 C 
ATOM     12  C   UNL     1      34.601 -22.416 -15.366  0.00  0.00    -0.076 C 
ATOM     13  C   UNL     1      35.420 -23.958 -12.593  0.00  0.00    -0.025 C 
ATOM     14  C   UNL     1      37.050 -27.089 -15.234  0.00  0.00    +0.071 C 
ATOM     15  C   UNL     1      38.133 -26.096 -14.880  0.00  0.00    +0.191 C 
ATOM     16  C   UNL     1      37.772 -23.662 -13.134  0.00  0.00    +0.168 C 
ATOM     17  C   UNL     1      35.719 -23.618 -11.274  0.00  0.00    -0.001 C 
ATOM     18  C   UNL     1      38.086 -23.311 -11.841  0.00  0.00    +0.167 C 
ATOM     19  C   UNL     1      37.040 -23.280 -10.907  0.00  0.00    +0.039 C 
ATOM     20  H   UNL     1      33.592 -23.833 -16.357  0.00  0.00    -0.079 HD
ENDROOT
BRANCH   5  21
ATOM     21  O   UNL     1      35.129 -25.436 -16.630  0.00  0.00    -0.388 OA
ATOM     22  H   UNL     1      35.956 -25.763 -17.018  0.00  0.00    +0.210 HD
ENDBRANCH   5  21
BRANCH  18  23
ATOM     23  O   UNL     1      39.359 -23.036 -11.467  0.00  0.00    -0.503 OA
ATOM     24  H   UNL     1      39.557 -22.227 -11.037  0.00  0.00    +0.292 HD
ENDBRANCH  18  23
BRANCH   3  25
ATOM     25  C   UNL     1      32.266 -22.989 -15.106  0.00  0.00    -0.050 C 
BRANCH  25  26
ATOM     26  C   UNL     1      31.352 -23.141 -16.284  0.00  0.00    -0.049 C 
ATOM     27  C   UNL     1      30.018 -23.147 -16.200  0.00  0.00    -0.007 C 
ENDBRANCH  25  26
ENDBRANCH   3  25
TORSDOF 4
ENDMDL
MODEL 3
REMARK VINA RESULT:      -6.2     16.871     18.856
REMARK  Name = 5284596
REMARK  4 active torsions:
REMARK  status: ('A' for Active; 'I' for Inactive)
REMARK    1  A    between atoms: N_3  and  C_25
REMARK    2  A    between atoms: C_5  and  O_21
REMARK    3  A    between atoms: C_18  and  O_23
REMARK    4  A    between atoms: C_25  and  C_26
REMARK                            x       y       z     vdW  Elec       q    Type
REMARK                         _______ _______ _______ _____ _____    ______ ____
ROOT
ATOM      1  O   UNL     1      38.196 -26.465 -13.488  0.00  0.00    -0.469 OA
ATOM      2  O   UNL     1      38.415 -25.447 -10.990  0.00  0.00    -0.292 OA
ATOM      3  N   UNL     1      34.187 -23.913 -15.593  0.00  0.00    +0.393 N 
ATOM      4  C   UNL     1      36.232 -25.123 -13.924  0.00  0.00    +0.084 C 
ATOM      5  C   UNL     1      35.415 -23.909 -13.458  0.00  0.00    +0.079 C 
ATOM      6  C   UNL     1      35.081 -23.083 -14.745  0.00  0.00    -0.027 C 
ATOM      7  C   UNL     1      36.975 -25.951 -12.864  0.00  0.00    +0.228 C 
ATOM      8  C   UNL     1      35.371 -25.999 -14.865  0.00  0.00    -0.012 C 
ATOM      9  C   UNL     1      37.438 -24.661 -14.667  0.00  0.00    +0.016 C 
ATOM     10  C   UNL     1      36.145 -23.112 -12.363  0.00  0.00    +0.033 C 
ATOM     11  C   UNL     1      36.371 -22.565 -15.475  0.00  0.00    +0.008 C 
ATOM     12  C   UNL     1      34.769 -25.187 -16.028  0.00  0.00    -0.076 C 
ATOM     13  C   UNL     1      37.533 -23.524 -15.447  0.00  0.00    -0.025 C 
ATOM     14  C   UNL     1      36.513 -24.015 -11.186  0.00  0.00    +0.071 C 
ATOM     15  C   UNL     1      37.410 -25.145 -11.637  0.00  0.00    +0.191 C 
ATOM     16  C   UNL     1      38.501 -25.508 -14.426  0.00  0.00    +0.168 C 
ATOM     17  C   UNL     1      38.755 -23.300 -16.082  0.00  0.00    -0.001 C 
ATOM     18  C   UNL     1      39.710 -25.313 -15.054  0.00  0.00    +0.167 C 
ATOM     19  C   UNL     1      39.828 -24.199 -15.899  0.00  0.00    +0.039 C 
ATOM     20  H   UNL     1      33.423 -24.157 -14.961  0.00  0.00    -0.079 HD
ENDROOT
BRANCH   5  21
ATOM     21  O   UNL     1      34.186 -24.366 -12.868  0.00  0.00    -0.388 OA
ATOM     22  H   UNL     1      33.435 -24.010 -13.370  0.00  0.00    +0.210 HD
ENDBRANCH   5  21
BRANCH  18  23
ATOM     23  O   UNL     1      40.763 -26.140 -14.844  0.00  0.00    -0.503 OA
ATOM     24  H   UNL     1      41.097 -26.262 -13.977  0.00  0.00    +0.292 HD
ENDBRANCH  18  23
BRANCH   3  25
ATOM     25  C   UNL     1      33.597 -23.185 -16.711  0.00  0.00    -0.050 C 
BRANCH  25  26
ATOM     26  C   UNL     1      32.100 -23.186 -16.642  0.00  0.00    -0.049 C 
ATOM     27  C   UNL     1      31.404 -23.167 -15.501  0.00  0.00    -0.007 C 
ENDBRANCH  25  26
ENDBRANCH   3  25
TORSDOF 4
ENDMDL
MODEL 4
REMARK VINA RESULT:      -5.9      2.186      4.773
REMARK  Name = 5284596
REMARK  4 active torsions:
REMARK  status: ('A' for Active; 'I' for Inactive)
REMARK    1  A    between atoms: N_3  and  C_25
REMARK    2  A    between atoms: C_5  and  O_21
REMARK    3  A    between atoms: C_18  and  O_23
REMARK    4  A    between atoms: C_25  and  C_26
REMARK                            x       y       z     vdW  Elec       q    Type
REMARK                         _______ _______ _______ _____ _____    ______ ____
ROOT
ATOM      1  O   UNL     1      35.235  -7.596 -24.321  0.00  0.00    -0.469 OA
ATOM      2  O   UNL     1      33.965  -6.076 -26.164  0.00  0.00    -0.292 OA
ATOM      3  N   UNL     1      31.741  -8.246 -20.528  0.00  0.00    +0.393 N 
ATOM      4  C   UNL     1      33.337  -7.473 -22.827  0.00  0.00    +0.084 C 
ATOM      5  C   UNL     1      31.841  -7.140 -22.727  0.00  0.00    +0.079 C 
ATOM      6  C   UNL     1      31.186  -8.302 -21.905  0.00  0.00    -0.027 C 
ATOM      7  C   UNL     1      34.191  -6.691 -23.838  0.00  0.00    +0.228 C 
ATOM      8  C   UNL     1      33.961  -7.491 -21.412  0.00  0.00    -0.012 C 
ATOM      9  C   UNL     1      33.512  -8.816 -23.447  0.00  0.00    +0.016 C 
ATOM     10  C   UNL     1      31.210  -6.908 -24.111  0.00  0.00    +0.033 C 
ATOM     11  C   UNL     1      31.342  -9.695 -22.612  0.00  0.00    +0.008 C 
ATOM     12  C   UNL     1      33.195  -8.417 -20.449  0.00  0.00    -0.076 C 
ATOM     13  C   UNL     1      32.654  -9.892 -23.325  0.00  0.00    -0.025 C 
ATOM     14  C   UNL     1      31.967  -5.825 -24.879  0.00  0.00    +0.071 C 
ATOM     15  C   UNL     1      33.415  -6.213 -25.069  0.00  0.00    +0.191 C 
ATOM     16  C   UNL     1      34.648  -8.836 -24.232  0.00  0.00    +0.168 C 
ATOM     17  C   UNL     1      33.033 -11.072 -23.966  0.00  0.00    -0.001 C 
ATOM     18  C   UNL     1      35.047  -9.993 -24.860  0.00  0.00    +0.167 C 
ATOM     19  C   UNL     1      34.230 -11.124 -24.713  0.00  0.00    +0.039 C 
ATOM     20  H   UNL     1      31.558  -7.284 -20.240  0.00  0.00    -0.079 HD
ENDROOT
BRANCH   5  21
ATOM     21  O   UNL     1      31.678  -5.910 -22.002  0.00  0.00    -0.388 OA
ATOM     22  H   UNL     1      31.222  -5.263 -22.562  0.00  0.00    +0.210 HD
ENDBRANCH   5  21
BRANCH  18  23
ATOM     23  O   UNL     1      36.166 -10.039 -25.623  0.00  0.00    -0.503 OA
ATOM     24  H   UNL     1      36.356 -10.804 -26.130  0.00  0.00    +0.292 HD
ENDBRANCH  18  23
BRANCH   3  25
ATOM     25  C   UNL     1      31.047  -9.112 -19.582  0.00  0.00    -0.050 C 
BRANCH  25  26
ATOM     26  C   UNL     1      31.892 -10.286 -19.186  0.00  0.00    -0.049 C 
ATOM     27  C   UNL     1      31.616 -11.551 -19.518  0.00  0.00    -0.007 C 
ENDBRANCH  25  26
ENDBRANCH   3  25
TORSDOF 4
ENDMDL
