MODEL 1
REMARK VINA RESULT:      -9.3      0.000      0.000
REMARK  Name = 46937128
REMARK  1 active torsions:
REMARK  status: ('A' for Active; 'I' for Inactive)
REMARK    1  A    between atoms: C_6  and  C_14
REMARK                            x       y       z     vdW  Elec       q    Type
REMARK                         _______ _______ _______ _____ _____    ______ ____
ROOT
ATOM      1  N   UNL     1      32.993 -24.911 -14.403  0.00  0.00    -0.323 NA
ATOM      2  N   UNL     1      30.714 -25.282 -14.233  0.00  0.00    -0.272 NA
ATOM      3  N   UNL     1      29.141 -24.131 -15.649  0.00  0.00    -0.169 NA
ATOM      4  N   UNL     1      28.406 -25.670 -14.045  0.00  0.00    -0.292 N 
ATOM      5  C   UNL     1      34.027 -24.269 -14.998  0.00  0.00    +0.203 C 
ATOM      6  C   UNL     1      33.884 -23.349 -16.016  0.00  0.00    +0.046 C 
ATOM      7  C   UNL     1      32.597 -23.078 -16.445  0.00  0.00    +0.018 C 
ATOM      8  C   UNL     1      31.513 -23.732 -15.841  0.00  0.00    +0.106 C 
ATOM      9  C   UNL     1      31.743 -24.653 -14.813  0.00  0.00    +0.152 C 
ATOM     10  C   UNL     1      30.190 -23.512 -16.216  0.00  0.00    +0.124 C 
ATOM     11  C   UNL     1      29.472 -24.992 -14.676  0.00  0.00    +0.152 C 
ATOM     12  H   UNL     1      28.590 -26.314 -13.324  0.00  0.00    +0.155 HD
ATOM     13  H   UNL     1      27.478 -25.499 -14.328  0.00  0.00    +0.155 HD
ATOM     14  N   UNL     1      35.331 -24.571 -14.533  0.00  0.00    -0.238 N 
ATOM     15  C   UNL     1      35.943 -23.840 -13.468  0.00  0.00    +0.072 C 
ATOM     16  C   UNL     1      36.121 -25.611 -15.117  0.00  0.00    +0.072 C 
ATOM     17  C   UNL     1      37.367 -25.498 -14.301  0.00  0.00    +0.018 C 
ATOM     18  C   UNL     1      37.269 -24.523 -13.394  0.00  0.00    +0.018 C 
ENDROOT
BRANCH   6  19
ATOM     19  C   UNL     1      35.006 -22.677 -16.636  0.00  0.00    +0.004 C 
ATOM     20  C   UNL     1      35.012 -22.454 -18.013  0.00  0.00    +0.000 C 
ATOM     21  C   UNL     1      36.083 -22.251 -15.857  0.00  0.00    +0.000 C 
ATOM     22  C   UNL     1      36.092 -21.807 -18.610  0.00  0.00    +0.000 C 
ATOM     23  C   UNL     1      37.163 -21.603 -16.454  0.00  0.00    +0.000 C 
ATOM     24  C   UNL     1      37.168 -21.380 -17.832  0.00  0.00    +0.000 C 
ENDBRANCH   6  19
TORSDOF 1
ENDMDL
MODEL 2
REMARK VINA RESULT:      -9.0      2.985      5.689
REMARK  Name = 46937128
REMARK  1 active torsions:
REMARK  status: ('A' for Active; 'I' for Inactive)
REMARK    1  A    between atoms: C_6  and  C_14
REMARK                            x       y       z     vdW  Elec       q    Type
REMARK                         _______ _______ _______ _____ _____    ______ ____
ROOT
ATOM      1  N   UNL     1      35.328 -22.676 -17.281  0.00  0.00    -0.323 NA
ATOM      2  N   UNL     1      35.709 -21.527 -19.255  0.00  0.00    -0.272 NA
ATOM      3  N   UNL     1      33.892 -20.692 -20.597  0.00  0.00    -0.169 NA
ATOM      4  N   UNL     1      36.115 -20.364 -21.253  0.00  0.00    -0.292 N 
ATOM      5  C   UNL     1      34.453 -23.183 -16.379  0.00  0.00    +0.203 C 
ATOM      6  C   UNL     1      33.082 -23.083 -16.490  0.00  0.00    +0.046 C 
ATOM      7  C   UNL     1      32.586 -22.419 -17.598  0.00  0.00    +0.018 C 
ATOM      8  C   UNL     1      33.475 -21.888 -18.544  0.00  0.00    +0.106 C 
ATOM      9  C   UNL     1      34.855 -22.032 -18.357  0.00  0.00    +0.152 C 
ATOM     10  C   UNL     1      33.053 -21.208 -19.683  0.00  0.00    +0.124 C 
ATOM     11  C   UNL     1      35.190 -20.886 -20.324  0.00  0.00    +0.152 C 
ATOM     12  H   UNL     1      37.081 -20.477 -21.103  0.00  0.00    +0.155 HD
ATOM     13  H   UNL     1      35.794 -19.886 -22.052  0.00  0.00    +0.155 HD
ATOM     14  N   UNL     1      34.997 -23.858 -15.257  0.00  0.00    -0.238 N 
ATOM     15  C   UNL     1      35.259 -25.262 -15.273  0.00  0.00    +0.072 C 
ATOM     16  C   UNL     1      35.294 -23.176 -14.036  0.00  0.00    +0.072 C 
ATOM     17  C   UNL     1      35.804 -24.310 -13.208  0.00  0.00    +0.018 C 
ATOM     18  C   UNL     1      35.785 -25.458 -13.889  0.00  0.00    +0.018 C 
ENDROOT
BRANCH   6  19
ATOM     19  C   UNL     1      32.168 -23.634 -15.512  0.00  0.00    +0.004 C 
ATOM     20  C   UNL     1      31.964 -22.974 -14.300  0.00  0.00    +0.000 C 
ATOM     21  C   UNL     1      31.491 -24.824 -15.780  0.00  0.00    +0.000 C 
ATOM     22  C   UNL     1      31.084 -23.504 -13.357  0.00  0.00    +0.000 C 
ATOM     23  C   UNL     1      30.611 -25.353 -14.838  0.00  0.00    +0.000 C 
ATOM     24  C   UNL     1      30.406 -24.693 -13.625  0.00  0.00    +0.000 C 
ENDBRANCH   6  19
TORSDOF 1
ENDMDL
MODEL 3
REMARK VINA RESULT:      -8.9      2.874      5.314
REMARK  Name = 46937128
REMARK  1 active torsions:
REMARK  status: ('A' for Active; 'I' for Inactive)
REMARK    1  A    between atoms: C_6  and  C_14
REMARK                            x       y       z     vdW  Elec       q    Type
REMARK                         _______ _______ _______ _____ _____    ______ ____
ROOT
ATOM      1  N   UNL     1      32.581 -22.612 -17.183  0.00  0.00    -0.323 NA
ATOM      2  N   UNL     1      32.707 -21.470 -19.193  0.00  0.00    -0.272 NA
ATOM      3  N   UNL     1      34.825 -20.968 -20.225  0.00  0.00    -0.169 NA
ATOM      4  N   UNL     1      32.816 -20.312 -21.233  0.00  0.00    -0.292 N 
ATOM      5  C   UNL     1      33.208 -23.226 -16.151  0.00  0.00    +0.203 C 
ATOM      6  C   UNL     1      34.577 -23.345 -16.038  0.00  0.00    +0.046 C 
ATOM      7  C   UNL     1      35.343 -22.799 -17.053  0.00  0.00    +0.018 C 
ATOM      8  C   UNL     1      34.713 -22.158 -18.129  0.00  0.00    +0.106 C 
ATOM      9  C   UNL     1      33.316 -22.079 -18.169  0.00  0.00    +0.152 C 
ATOM     10  C   UNL     1      35.414 -21.584 -19.186  0.00  0.00    +0.124 C 
ATOM     11  C   UNL     1      33.486 -20.948 -20.165  0.00  0.00    +0.152 C 
ATOM     12  H   UNL     1      31.833 -20.268 -21.240  0.00  0.00    +0.155 HD
ATOM     13  H   UNL     1      33.333 -19.913 -21.970  0.00  0.00    +0.155 HD
ATOM     14  N   UNL     1      32.391 -23.774 -15.130  0.00  0.00    -0.238 N 
ATOM     15  C   UNL     1      32.000 -23.013 -13.985  0.00  0.00    +0.072 C 
ATOM     16  C   UNL     1      31.931 -25.126 -15.174  0.00  0.00    +0.072 C 
ATOM     17  C   UNL     1      31.159 -25.193 -13.896  0.00  0.00    +0.018 C 
ATOM     18  C   UNL     1      31.197 -24.030 -13.242  0.00  0.00    +0.018 C 
ENDROOT
BRANCH   6  19
ATOM     19  C   UNL     1      35.223 -24.007 -14.925  0.00  0.00    +0.004 C 
ATOM     20  C   UNL     1      35.696 -25.312 -15.068  0.00  0.00    +0.000 C 
ATOM     21  C   UNL     1      35.374 -23.341 -13.708  0.00  0.00    +0.000 C 
ATOM     22  C   UNL     1      36.318 -25.949 -13.996  0.00  0.00    +0.000 C 
ATOM     23  C   UNL     1      35.997 -23.978 -12.636  0.00  0.00    +0.000 C 
ATOM     24  C   UNL     1      36.470 -25.283 -12.780  0.00  0.00    +0.000 C 
ENDBRANCH   6  19
TORSDOF 1
ENDMDL
MODEL 4
REMARK VINA RESULT:      -8.9      2.878      5.359
REMARK  Name = 46937128
REMARK  1 active torsions:
REMARK  status: ('A' for Active; 'I' for Inactive)
REMARK    1  A    between atoms: C_6  and  C_14
REMARK                            x       y       z     vdW  Elec       q    Type
REMARK                         _______ _______ _______ _____ _____    ______ ____
ROOT
ATOM      1  N   UNL     1      32.548 -22.612 -17.202  0.00  0.00    -0.323 NA
ATOM      2  N   UNL     1      32.665 -21.470 -19.213  0.00  0.00    -0.272 NA
ATOM      3  N   UNL     1      34.779 -20.955 -20.247  0.00  0.00    -0.169 NA
ATOM      4  N   UNL     1      32.765 -20.311 -21.253  0.00  0.00    -0.292 N 
ATOM      5  C   UNL     1      33.180 -23.222 -16.171  0.00  0.00    +0.203 C 
ATOM      6  C   UNL     1      34.550 -23.334 -16.061  0.00  0.00    +0.046 C 
ATOM      7  C   UNL     1      35.311 -22.784 -17.076  0.00  0.00    +0.018 C 
ATOM      8  C   UNL     1      34.676 -22.147 -18.152  0.00  0.00    +0.106 C 
ATOM      9  C   UNL     1      33.278 -22.075 -18.190  0.00  0.00    +0.152 C 
ATOM     10  C   UNL     1      35.373 -21.568 -19.210  0.00  0.00    +0.124 C 
ATOM     11  C   UNL     1      33.440 -20.943 -20.186  0.00  0.00    +0.152 C 
ATOM     12  H   UNL     1      31.782 -20.272 -21.258  0.00  0.00    +0.155 HD
ATOM     13  H   UNL     1      33.279 -19.909 -21.990  0.00  0.00    +0.155 HD
ATOM     14  N   UNL     1      32.368 -23.775 -15.149  0.00  0.00    -0.238 N 
ATOM     15  C   UNL     1      31.973 -23.016 -14.004  0.00  0.00    +0.072 C 
ATOM     16  C   UNL     1      31.914 -25.130 -15.193  0.00  0.00    +0.072 C 
ATOM     17  C   UNL     1      31.145 -25.201 -13.914  0.00  0.00    +0.018 C 
ATOM     18  C   UNL     1      31.178 -24.038 -13.260  0.00  0.00    +0.018 C 
ENDROOT
BRANCH   6  19
ATOM     19  C   UNL     1      35.201 -23.993 -14.948  0.00  0.00    +0.004 C 
ATOM     20  C   UNL     1      35.369 -23.318 -13.739  0.00  0.00    +0.000 C 
ATOM     21  C   UNL     1      35.661 -25.303 -15.085  0.00  0.00    +0.000 C 
ATOM     22  C   UNL     1      35.997 -23.952 -12.668  0.00  0.00    +0.000 C 
ATOM     23  C   UNL     1      36.288 -25.937 -14.013  0.00  0.00    +0.000 C 
ATOM     24  C   UNL     1      36.456 -25.262 -12.804  0.00  0.00    +0.000 C 
ENDBRANCH   6  19
TORSDOF 1
ENDMDL
MODEL 5
REMARK VINA RESULT:      -8.7     13.246     15.298
REMARK  Name = 46937128
REMARK  1 active torsions:
REMARK  status: ('A' for Active; 'I' for Inactive)
REMARK    1  A    between atoms: C_6  and  C_14
REMARK                            x       y       z     vdW  Elec       q    Type
REMARK                         _______ _______ _______ _____ _____    ______ ____
ROOT
ATOM      1  N   UNL     1      32.478 -13.108 -22.715  0.00  0.00    -0.323 NA
ATOM      2  N   UNL     1      33.097 -14.862 -24.094  0.00  0.00    -0.272 NA
ATOM      3  N   UNL     1      33.966 -14.477 -26.307  0.00  0.00    -0.169 NA
ATOM      4  N   UNL     1      33.720 -16.652 -25.479  0.00  0.00    -0.292 N 
ATOM      5  C   UNL     1      32.346 -11.775 -22.514  0.00  0.00    +0.203 C 
ATOM      6  C   UNL     1      32.681 -10.816 -23.446  0.00  0.00    +0.046 C 
ATOM      7  C   UNL     1      33.183 -11.260 -24.656  0.00  0.00    +0.018 C 
ATOM      8  C   UNL     1      33.326 -12.637 -24.884  0.00  0.00    +0.106 C 
ATOM      9  C   UNL     1      32.962 -13.547 -23.885  0.00  0.00    +0.152 C 
ATOM     10  C   UNL     1      33.822 -13.161 -26.075  0.00  0.00    +0.124 C 
ATOM     11  C   UNL     1      33.589 -15.260 -25.287  0.00  0.00    +0.152 C 
ATOM     12  H   UNL     1      33.457 -17.275 -24.763  0.00  0.00    +0.155 HD
ATOM     13  H   UNL     1      34.073 -17.001 -26.330  0.00  0.00    +0.155 HD
ATOM     14  N   UNL     1      31.829 -11.356 -21.263  0.00  0.00    -0.238 N 
ATOM     15  C   UNL     1      30.428 -11.175 -21.046  0.00  0.00    +0.072 C 
ATOM     16  C   UNL     1      32.680 -11.067 -20.150  0.00  0.00    +0.072 C 
ATOM     17  C   UNL     1      31.667 -10.664 -19.129  0.00  0.00    +0.018 C 
ATOM     18  C   UNL     1      30.428 -10.724 -19.622  0.00  0.00    +0.018 C 
ENDROOT
BRANCH   6  19
ATOM     19  C   UNL     1      32.532  -9.396 -23.207  0.00  0.00    +0.004 C 
ATOM     20  C   UNL     1      33.637  -8.632 -22.830  0.00  0.00    +0.000 C 
ATOM     21  C   UNL     1      31.284  -8.790 -23.354  0.00  0.00    +0.000 C 
ATOM     22  C   UNL     1      33.493  -7.264 -22.599  0.00  0.00    +0.000 C 
ATOM     23  C   UNL     1      31.140  -7.423 -23.124  0.00  0.00    +0.000 C 
ATOM     24  C   UNL     1      32.245  -6.659 -22.746  0.00  0.00    +0.000 C 
ENDBRANCH   6  19
TORSDOF 1
ENDMDL
MODEL 6
REMARK VINA RESULT:      -8.5     10.821     13.486
REMARK  Name = 46937128
REMARK  1 active torsions:
REMARK  status: ('A' for Active; 'I' for Inactive)
REMARK    1  A    between atoms: C_6  and  C_14
REMARK                            x       y       z     vdW  Elec       q    Type
REMARK                         _______ _______ _______ _____ _____    ______ ____
ROOT
ATOM      1  N   UNL     1      34.227 -15.816 -24.247  0.00  0.00    -0.323 NA
ATOM      2  N   UNL     1      35.019 -17.650 -23.076  0.00  0.00    -0.272 NA
ATOM      3  N   UNL     1      35.271 -17.602 -20.681  0.00  0.00    -0.169 NA
ATOM      4  N   UNL     1      35.824 -19.519 -21.905  0.00  0.00    -0.292 N 
ATOM      5  C   UNL     1      33.768 -14.541 -24.243  0.00  0.00    +0.203 C 
ATOM      6  C   UNL     1      33.621 -13.776 -23.106  0.00  0.00    +0.046 C 
ATOM      7  C   UNL     1      33.967 -14.363 -21.901  0.00  0.00    +0.018 C 
ATOM      8  C   UNL     1      34.444 -15.681 -21.884  0.00  0.00    +0.106 C 
ATOM      9  C   UNL     1      34.565 -16.392 -23.084  0.00  0.00    +0.152 C 
ATOM     10  C   UNL     1      34.813 -16.339 -20.714  0.00  0.00    +0.124 C 
ATOM     11  C   UNL     1      35.348 -18.190 -21.883  0.00  0.00    +0.152 C 
ATOM     12  H   UNL     1      35.901 -20.000 -22.760  0.00  0.00    +0.155 HD
ATOM     13  H   UNL     1      36.078 -19.965 -21.065  0.00  0.00    +0.155 HD
ATOM     14  N   UNL     1      33.424 -13.973 -25.495  0.00  0.00    -0.238 N 
ATOM     15  C   UNL     1      34.375 -13.261 -26.289  0.00  0.00    +0.072 C 
ATOM     16  C   UNL     1      32.099 -14.059 -26.026  0.00  0.00    +0.072 C 
ATOM     17  C   UNL     1      32.269 -13.307 -27.305  0.00  0.00    +0.018 C 
ATOM     18  C   UNL     1      33.521 -12.868 -27.450  0.00  0.00    +0.018 C 
ENDROOT
BRANCH   6  19
ATOM     19  C   UNL     1      33.127 -12.415 -23.128  0.00  0.00    +0.004 C 
ATOM     20  C   UNL     1      31.974 -12.080 -22.419  0.00  0.00    +0.000 C 
ATOM     21  C   UNL     1      33.805 -11.438 -23.858  0.00  0.00    +0.000 C 
ATOM     22  C   UNL     1      31.498 -10.769 -22.441  0.00  0.00    +0.000 C 
ATOM     23  C   UNL     1      33.330 -10.128 -23.879  0.00  0.00    +0.000 C 
ATOM     24  C   UNL     1      32.176  -9.793 -23.170  0.00  0.00    +0.000 C 
ENDBRANCH   6  19
TORSDOF 1
ENDMDL
MODEL 7
REMARK VINA RESULT:      -8.5     16.732     18.729
REMARK  Name = 46937128
REMARK  1 active torsions:
REMARK  status: ('A' for Active; 'I' for Inactive)
REMARK    1  A    between atoms: C_6  and  C_14
REMARK                            x       y       z     vdW  Elec       q    Type
REMARK                         _______ _______ _______ _____ _____    ______ ____
ROOT
ATOM      1  N   UNL     1      31.099  -6.222 -21.770  0.00  0.00    -0.323 NA
ATOM      2  N   UNL     1      30.398  -4.047 -22.141  0.00  0.00    -0.272 NA
ATOM      3  N   UNL     1      31.071  -2.824 -24.104  0.00  0.00    -0.169 NA
ATOM      4  N   UNL     1      29.677  -1.841 -22.501  0.00  0.00    -0.292 N 
ATOM      5  C   UNL     1      31.807  -7.303 -22.178  0.00  0.00    +0.203 C 
ATOM      6  C   UNL     1      32.538  -7.353 -23.345  0.00  0.00    +0.046 C 
ATOM      7  C   UNL     1      32.538  -6.220 -24.140  0.00  0.00    +0.018 C 
ATOM      8  C   UNL     1      31.812  -5.091 -23.735  0.00  0.00    +0.106 C 
ATOM      9  C   UNL     1      31.093  -5.120 -22.533  0.00  0.00    +0.152 C 
ATOM     10  C   UNL     1      31.763  -3.914 -24.478  0.00  0.00    +0.124 C 
ATOM     11  C   UNL     1      30.420  -2.958 -22.940  0.00  0.00    +0.152 C 
ATOM     12  H   UNL     1      29.180  -1.884 -21.653  0.00  0.00    +0.155 HD
ATOM     13  H   UNL     1      29.657  -1.020 -23.043  0.00  0.00    +0.155 HD
ATOM     14  N   UNL     1      31.785  -8.446 -21.339  0.00  0.00    -0.238 N 
ATOM     15  C   UNL     1      32.747  -8.640 -20.301  0.00  0.00    +0.072 C 
ATOM     16  C   UNL     1      30.812  -9.482 -21.498  0.00  0.00    +0.072 C 
ATOM     17  C   UNL     1      31.236 -10.422 -20.417  0.00  0.00    +0.018 C 
ATOM     18  C   UNL     1      32.301  -9.958 -19.758  0.00  0.00    +0.018 C 
ENDROOT
BRANCH   6  19
ATOM     19  C   UNL     1      33.286  -8.522 -23.759  0.00  0.00    +0.004 C 
ATOM     20  C   UNL     1      32.640  -9.750 -23.898  0.00  0.00    +0.000 C 
ATOM     21  C   UNL     1      34.653  -8.420 -24.020  0.00  0.00    +0.000 C 
ATOM     22  C   UNL     1      33.361 -10.876 -24.296  0.00  0.00    +0.000 C 
ATOM     23  C   UNL     1      35.373  -9.544 -24.419  0.00  0.00    +0.000 C 
ATOM     24  C   UNL     1      34.727 -10.774 -24.557  0.00  0.00    +0.000 C 
ENDBRANCH   6  19
TORSDOF 1
ENDMDL
MODEL 8
REMARK VINA RESULT:      -8.5     16.635     18.729
REMARK  Name = 46937128
REMARK  1 active torsions:
REMARK  status: ('A' for Active; 'I' for Inactive)
REMARK    1  A    between atoms: C_6  and  C_14
REMARK                            x       y       z     vdW  Elec       q    Type
REMARK                         _______ _______ _______ _____ _____    ______ ____
ROOT
ATOM      1  N   UNL     1      32.659  -6.602 -24.349  0.00  0.00    -0.323 NA
ATOM      2  N   UNL     1      32.083  -4.410 -24.823  0.00  0.00    -0.272 NA
ATOM      3  N   UNL     1      30.690  -3.124 -23.337  0.00  0.00    -0.169 NA
ATOM      4  N   UNL     1      31.509  -2.188 -25.320  0.00  0.00    -0.292 N 
ATOM      5  C   UNL     1      32.584  -7.673 -23.522  0.00  0.00    +0.203 C 
ATOM      6  C   UNL     1      31.881  -7.687 -22.336  0.00  0.00    +0.046 C 
ATOM      7  C   UNL     1      31.216  -6.526 -21.983  0.00  0.00    +0.018 C 
ATOM      8  C   UNL     1      31.280  -5.407 -22.826  0.00  0.00    +0.106 C 
ATOM      9  C   UNL     1      32.017  -5.474 -24.014  0.00  0.00    +0.152 C 
ATOM     10  C   UNL     1      30.638  -4.205 -22.541  0.00  0.00    +0.124 C 
ATOM     11  C   UNL     1      31.421  -3.295 -24.448  0.00  0.00    +0.152 C 
ATOM     12  H   UNL     1      32.033  -2.258 -26.151  0.00  0.00    +0.155 HD
ATOM     13  H   UNL     1      31.047  -1.348 -25.098  0.00  0.00    +0.155 HD
ATOM     14  N   UNL     1      33.278  -8.845 -23.916  0.00  0.00    -0.238 N 
ATOM     15  C   UNL     1      32.661  -9.856 -24.714  0.00  0.00    +0.072 C 
ATOM     16  C   UNL     1      34.628  -9.094 -23.518  0.00  0.00    +0.072 C 
ATOM     17  C   UNL     1      34.860 -10.423 -24.159  0.00  0.00    +0.018 C 
ATOM     18  C   UNL     1      33.778 -10.843 -24.817  0.00  0.00    +0.018 C 
ENDROOT
BRANCH   6  19
ATOM     19  C   UNL     1      31.818  -8.845 -21.469  0.00  0.00    +0.004 C 
ATOM     20  C   UNL     1      32.338  -8.778 -20.176  0.00  0.00    +0.000 C 
ATOM     21  C   UNL     1      31.237 -10.029 -21.926  0.00  0.00    +0.000 C 
ATOM     22  C   UNL     1      32.277  -9.893 -19.342  0.00  0.00    +0.000 C 
ATOM     23  C   UNL     1      31.176 -11.143 -21.091  0.00  0.00    +0.000 C 
ATOM     24  C   UNL     1      31.696 -11.075 -19.797  0.00  0.00    +0.000 C 
ENDBRANCH   6  19
TORSDOF 1
ENDMDL
MODEL 9
REMARK VINA RESULT:      -8.2     14.592     16.737
REMARK  Name = 46937128
REMARK  1 active torsions:
REMARK  status: ('A' for Active; 'I' for Inactive)
REMARK    1  A    between atoms: C_6  and  C_14
REMARK                            x       y       z     vdW  Elec       q    Type
REMARK                         _______ _______ _______ _____ _____    ______ ____
ROOT
ATOM      1  N   UNL     1      33.757 -10.687 -24.029  0.00  0.00    -0.323 NA
ATOM      2  N   UNL     1      33.698 -13.001 -24.001  0.00  0.00    -0.272 NA
ATOM      3  N   UNL     1      32.293 -14.206 -22.460  0.00  0.00    -0.169 NA
ATOM      4  N   UNL     1      33.651 -15.349 -23.987  0.00  0.00    -0.292 N 
ATOM      5  C   UNL     1      33.323  -9.505 -23.528  0.00  0.00    +0.203 C 
ATOM      6  C   UNL     1      32.405  -9.387 -22.507  0.00  0.00    +0.046 C 
ATOM      7  C   UNL     1      31.904 -10.560 -21.971  0.00  0.00    +0.018 C 
ATOM      8  C   UNL     1      32.341 -11.794 -22.474  0.00  0.00    +0.106 C 
ATOM      9  C   UNL     1      33.277 -11.828 -23.515  0.00  0.00    +0.152 C 
ATOM     10  C   UNL     1      31.885 -13.017 -21.988  0.00  0.00    +0.124 C 
ATOM     11  C   UNL     1      33.189 -14.126 -23.454  0.00  0.00    +0.152 C 
ATOM     12  H   UNL     1      34.310 -15.348 -24.718  0.00  0.00    +0.155 HD
ATOM     13  H   UNL     1      33.314 -16.201 -23.628  0.00  0.00    +0.155 HD
ATOM     14  N   UNL     1      33.858  -8.323 -24.101  0.00  0.00    -0.238 N 
ATOM     15  C   UNL     1      35.044  -7.707 -23.594  0.00  0.00    +0.072 C 
ATOM     16  C   UNL     1      33.230  -7.667 -25.205  0.00  0.00    +0.072 C 
ATOM     17  C   UNL     1      34.153  -6.507 -25.394  0.00  0.00    +0.018 C 
ATOM     18  C   UNL     1      35.151  -6.530 -24.507  0.00  0.00    +0.018 C 
ENDROOT
BRANCH   6  19
ATOM     19  C   UNL     1      31.957  -8.111 -21.990  0.00  0.00    +0.004 C 
ATOM     20  C   UNL     1      31.070  -7.331 -22.731  0.00  0.00    +0.000 C 
ATOM     21  C   UNL     1      32.412  -7.661 -20.750  0.00  0.00    +0.000 C 
ATOM     22  C   UNL     1      30.639  -6.102 -22.234  0.00  0.00    +0.000 C 
ATOM     23  C   UNL     1      31.980  -6.433 -20.252  0.00  0.00    +0.000 C 
ATOM     24  C   UNL     1      31.092  -5.652 -20.994  0.00  0.00    +0.000 C 
ENDBRANCH   6  19
TORSDOF 1
ENDMDL
