MODEL 1
REMARK VINA RESULT:      -8.4      0.000      0.000
REMARK  Name = 54454
REMARK  8 active torsions:
REMARK  status: ('A' for Active; 'I' for Inactive)
REMARK    1  A    between atoms: C_2  and  C_21
REMARK    2  A    between atoms: C_3  and  O_13
REMARK    3  A    between atoms: O_13  and  C_15
REMARK    4  A    between atoms: C_15  and  C_16
REMARK    5  A    between atoms: C_16  and  C_19
REMARK    6  A    between atoms: C_21  and  C_22
REMARK    7  A    between atoms: C_22  and  C_25
REMARK    8  A    between atoms: C_27  and  O_30
REMARK                            x       y       z     vdW  Elec       q    Type
REMARK                         _______ _______ _______ _____ _____    ______ ____
ROOT
ATOM      1  C   UNL     1      35.180 -23.278 -17.152  0.00  0.00    +0.062 C 
ATOM      2  C   UNL     1      35.420 -23.277 -15.613  0.00  0.00    +0.012 C 
ATOM      3  C   UNL     1      33.706 -23.533 -17.543  0.00  0.00    +0.173 C 
ATOM      4  C   UNL     1      36.922 -23.036 -15.277  0.00  0.00    +0.022 C 
ATOM      5  C   UNL     1      35.720 -21.999 -17.784  0.00  0.00    -0.024 C 
ATOM      6  C   UNL     1      33.486 -23.331 -19.045  0.00  0.00    +0.048 C 
ATOM      7  C   UNL     1      33.907 -21.937 -19.543  0.00  0.00    +0.025 C 
ATOM      8  C   UNL     1      35.138 -21.416 -18.848  0.00  0.00    -0.030 C 
ATOM      9  C   UNL     1      37.477 -21.885 -16.073  0.00  0.00    -0.027 C 
ATOM     10  C   UNL     1      36.913 -21.417 -17.195  0.00  0.00    -0.009 C 
ATOM     11  C   UNL     1      37.822 -24.260 -15.476  0.00  0.00    +0.005 C 
ATOM     12  C   UNL     1      32.772 -20.915 -19.428  0.00  0.00    +0.005 C 
ENDROOT
BRANCH   3  13
ATOM     13  O   UNL     1      32.840 -22.681 -16.798  0.00  0.00    -0.452 OA
BRANCH  13  15
ATOM     14  O   UNL     1      30.816 -23.323 -17.681  0.00  0.00    -0.250 OA
ATOM     15  C   UNL     1      31.532 -23.078 -16.717  0.00  0.00    +0.316 C 
BRANCH  15  16
ATOM     16  C   UNL     1      31.077 -23.167 -15.255  0.00  0.00    +0.090 C 
ATOM     17  C   UNL     1      29.644 -22.619 -15.129  0.00  0.00    +0.011 C 
ATOM     18  C   UNL     1      32.005 -22.278 -14.406  0.00  0.00    +0.011 C 
BRANCH  16  19
ATOM     19  C   UNL     1      31.156 -24.625 -14.740  0.00  0.00    +0.011 C 
ATOM     20  C   UNL     1      29.849 -25.406 -14.819  0.00  0.00    +0.001 C 
ENDBRANCH  16  19
ENDBRANCH  15  16
ENDBRANCH  13  15
ENDBRANCH   3  13
BRANCH   2  21
ATOM     21  C   UNL     1      34.881 -24.536 -14.926  0.00  0.00    +0.004 C 
BRANCH  21  22
ATOM     22  C   UNL     1      34.267 -24.199 -13.573  0.00  0.00    +0.044 C 
BRANCH  22  25
ATOM     23  O   UNL     1      36.223 -25.413 -12.918  0.00  0.00    -0.452 OA
ATOM     24  O   UNL     1      38.086 -26.609 -12.520  0.00  0.00    -0.250 OA
ATOM     25  C   UNL     1      35.260 -24.447 -12.444  0.00  0.00    +0.171 C 
ATOM     26  C   UNL     1      35.916 -23.149 -11.996  0.00  0.00    +0.073 C 
ATOM     27  C   UNL     1      37.002 -23.460 -10.982  0.00  0.00    +0.125 C 
ATOM     28  C   UNL     1      38.016 -24.414 -11.581  0.00  0.00    +0.139 C 
ATOM     29  C   UNL     1      37.434 -25.583 -12.340  0.00  0.00    +0.319 C 
BRANCH  27  30
ATOM     30  O   UNL     1      36.444 -24.052  -9.812  0.00  0.00    -0.384 OA
ATOM     31  H   UNL     1      35.508 -24.256  -9.968  0.00  0.00    +0.210 HD
ENDBRANCH  27  30
ENDBRANCH  22  25
ENDBRANCH  21  22
ENDBRANCH   2  21
TORSDOF 8
ENDMDL
MODEL 2
REMARK VINA RESULT:      -8.0     11.032     14.722
REMARK  Name = 54454
REMARK  8 active torsions:
REMARK  status: ('A' for Active; 'I' for Inactive)
REMARK    1  A    between atoms: C_2  and  C_21
REMARK    2  A    between atoms: C_3  and  O_13
REMARK    3  A    between atoms: O_13  and  C_15
REMARK    4  A    between atoms: C_15  and  C_16
REMARK    5  A    between atoms: C_16  and  C_19
REMARK    6  A    between atoms: C_21  and  C_22
REMARK    7  A    between atoms: C_22  and  C_25
REMARK    8  A    between atoms: C_27  and  O_30
REMARK                            x       y       z     vdW  Elec       q    Type
REMARK                         _______ _______ _______ _____ _____    ______ ____
ROOT
ATOM      1  C   UNL     1      32.919  -9.709 -23.880  0.00  0.00    +0.062 C 
ATOM      2  C   UNL     1      33.758 -11.015 -23.746  0.00  0.00    +0.012 C 
ATOM      3  C   UNL     1      31.995  -9.447 -22.669  0.00  0.00    +0.173 C 
ATOM      4  C   UNL     1      34.655 -11.240 -24.999  0.00  0.00    +0.022 C 
ATOM      5  C   UNL     1      33.822  -8.514 -24.172  0.00  0.00    -0.024 C 
ATOM      6  C   UNL     1      31.342  -8.064 -22.757  0.00  0.00    +0.048 C 
ATOM      7  C   UNL     1      32.359  -6.915 -22.874  0.00  0.00    +0.025 C 
ATOM      8  C   UNL     1      33.556  -7.278 -23.713  0.00  0.00    -0.030 C 
ATOM      9  C   UNL     1      35.381  -9.977 -25.379  0.00  0.00    -0.027 C 
ATOM     10  C   UNL     1      35.002  -8.755 -24.983  0.00  0.00    -0.009 C 
ATOM     11  C   UNL     1      33.909 -11.775 -26.226  0.00  0.00    +0.005 C 
ATOM     12  C   UNL     1      32.818  -6.407 -21.504  0.00  0.00    +0.005 C 
ENDROOT
BRANCH   3  13
ATOM     13  O   UNL     1      32.723  -9.574 -21.451  0.00  0.00    -0.452 OA
BRANCH  13  15
ATOM     14  O   UNL     1      31.736  -8.608 -19.611  0.00  0.00    -0.250 OA
ATOM     15  C   UNL     1      31.975  -9.591 -20.304  0.00  0.00    +0.316 C 
BRANCH  15  16
ATOM     16  C   UNL     1      31.482 -11.010 -19.994  0.00  0.00    +0.090 C 
ATOM     17  C   UNL     1      30.234 -11.316 -20.842  0.00  0.00    +0.011 C 
ATOM     18  C   UNL     1      31.076 -11.066 -18.510  0.00  0.00    +0.011 C 
BRANCH  16  19
ATOM     19  C   UNL     1      32.596 -12.052 -20.258  0.00  0.00    +0.011 C 
ATOM     20  C   UNL     1      32.122 -13.500 -20.313  0.00  0.00    +0.001 C 
ENDBRANCH  16  19
ENDBRANCH  15  16
ENDBRANCH  13  15
ENDBRANCH   3  13
BRANCH   2  21
ATOM     21  C   UNL     1      32.899 -12.245 -23.436  0.00  0.00    +0.004 C 
BRANCH  21  22
ATOM     22  C   UNL     1      33.100 -13.331 -24.485  0.00  0.00    +0.044 C 
BRANCH  22  25
ATOM     23  O   UNL     1      33.717 -15.609 -24.883  0.00  0.00    -0.452 OA
ATOM     24  O   UNL     1      34.353 -17.687 -25.465  0.00  0.00    -0.250 OA
ATOM     25  C   UNL     1      33.377 -14.679 -23.831  0.00  0.00    +0.171 C 
ATOM     26  C   UNL     1      34.471 -14.567 -22.781  0.00  0.00    +0.073 C 
ATOM     27  C   UNL     1      34.819 -15.952 -22.268  0.00  0.00    +0.125 C 
ATOM     28  C   UNL     1      35.245 -16.843 -23.417  0.00  0.00    +0.139 C 
ATOM     29  C   UNL     1      34.374 -16.769 -24.648  0.00  0.00    +0.319 C 
BRANCH  27  30
ATOM     30  O   UNL     1      33.697 -16.542 -21.615  0.00  0.00    -0.384 OA
ATOM     31  H   UNL     1      32.944 -15.932 -21.653  0.00  0.00    +0.210 HD
ENDBRANCH  27  30
ENDBRANCH  22  25
ENDBRANCH  21  22
ENDBRANCH   2  21
TORSDOF 8
ENDMDL
MODEL 3
REMARK VINA RESULT:      -7.6     13.834     18.022
REMARK  Name = 54454
REMARK  8 active torsions:
REMARK  status: ('A' for Active; 'I' for Inactive)
REMARK    1  A    between atoms: C_2  and  C_21
REMARK    2  A    between atoms: C_3  and  O_13
REMARK    3  A    between atoms: O_13  and  C_15
REMARK    4  A    between atoms: C_15  and  C_16
REMARK    5  A    between atoms: C_16  and  C_19
REMARK    6  A    between atoms: C_21  and  C_22
REMARK    7  A    between atoms: C_22  and  C_25
REMARK    8  A    between atoms: C_27  and  O_30
REMARK                            x       y       z     vdW  Elec       q    Type
REMARK                         _______ _______ _______ _____ _____    ______ ____
ROOT
ATOM      1  C   UNL     1      31.707  -9.134 -21.756  0.00  0.00    +0.062 C 
ATOM      2  C   UNL     1      32.790  -8.144 -22.278  0.00  0.00    +0.012 C 
ATOM      3  C   UNL     1      31.671 -10.470 -22.533  0.00  0.00    +0.173 C 
ATOM      4  C   UNL     1      32.769  -6.811 -21.473  0.00  0.00    +0.022 C 
ATOM      5  C   UNL     1      31.859  -9.359 -20.254  0.00  0.00    -0.024 C 
ATOM      6  C   UNL     1      30.733 -11.478 -21.864  0.00  0.00    +0.048 C 
ATOM      7  C   UNL     1      31.088 -11.760 -20.393  0.00  0.00    +0.025 C 
ATOM      8  C   UNL     1      31.580 -10.537 -19.666  0.00  0.00    -0.030 C 
ATOM      9  C   UNL     1      32.718  -7.073 -19.991  0.00  0.00    -0.027 C 
ATOM     10  C   UNL     1      32.320  -8.236 -19.457  0.00  0.00    -0.009 C 
ATOM     11  C   UNL     1      31.631  -5.858 -21.851  0.00  0.00    +0.005 C 
ATOM     12  C   UNL     1      32.107 -12.895 -20.251  0.00  0.00    +0.005 C 
ENDROOT
BRANCH   3  13
ATOM     13  O   UNL     1      32.983 -11.015 -22.647  0.00  0.00    -0.452 OA
BRANCH  13  15
ATOM     14  O   UNL     1      33.582 -10.723 -24.849  0.00  0.00    -0.250 OA
ATOM     15  C   UNL     1      33.345 -11.453 -23.893  0.00  0.00    +0.316 C 
BRANCH  15  16
ATOM     16  C   UNL     1      33.408 -12.985 -23.936  0.00  0.00    +0.090 C 
ATOM     17  C   UNL     1      33.899 -13.440 -25.322  0.00  0.00    +0.011 C 
ATOM     18  C   UNL     1      31.983 -13.532 -23.731  0.00  0.00    +0.011 C 
BRANCH  16  19
ATOM     19  C   UNL     1      34.329 -13.532 -22.819  0.00  0.00    +0.011 C 
ATOM     20  C   UNL     1      34.569 -15.037 -22.862  0.00  0.00    +0.001 C 
ENDBRANCH  16  19
ENDBRANCH  15  16
ENDBRANCH  13  15
ENDBRANCH   3  13
BRANCH   2  21
ATOM     21  C   UNL     1      32.692  -7.896 -23.787  0.00  0.00    +0.004 C 
BRANCH  21  22
ATOM     22  C   UNL     1      33.987  -7.307 -24.330  0.00  0.00    +0.044 C 
BRANCH  22  25
ATOM     23  O   UNL     1      34.633  -5.807 -26.079  0.00  0.00    -0.452 OA
ATOM     24  O   UNL     1      35.347  -4.571 -27.818  0.00  0.00    -0.250 OA
ATOM     25  C   UNL     1      33.748  -5.934 -24.945  0.00  0.00    +0.171 C 
ATOM     26  C   UNL     1      32.287  -5.750 -25.328  0.00  0.00    +0.073 C 
ATOM     27  C   UNL     1      32.125  -4.437 -26.072  0.00  0.00    +0.125 C 
ATOM     28  C   UNL     1      33.023  -4.414 -27.292  0.00  0.00    +0.139 C 
ATOM     29  C   UNL     1      34.434  -4.901 -27.064  0.00  0.00    +0.319 C 
BRANCH  27  30
ATOM     30  O   UNL     1      32.459  -3.337 -25.230  0.00  0.00    -0.384 OA
ATOM     31  H   UNL     1      31.742  -2.685 -25.251  0.00  0.00    +0.210 HD
ENDBRANCH  27  30
ENDBRANCH  22  25
ENDBRANCH  21  22
ENDBRANCH   2  21
TORSDOF 8
ENDMDL
MODEL 4
REMARK VINA RESULT:      -7.5      9.749     14.048
REMARK  Name = 54454
REMARK  8 active torsions:
REMARK  status: ('A' for Active; 'I' for Inactive)
REMARK    1  A    between atoms: C_2  and  C_21
REMARK    2  A    between atoms: C_3  and  O_13
REMARK    3  A    between atoms: O_13  and  C_15
REMARK    4  A    between atoms: C_15  and  C_16
REMARK    5  A    between atoms: C_16  and  C_19
REMARK    6  A    between atoms: C_21  and  C_22
REMARK    7  A    between atoms: C_22  and  C_25
REMARK    8  A    between atoms: C_27  and  O_30
REMARK                            x       y       z     vdW  Elec       q    Type
REMARK                         _______ _______ _______ _____ _____    ______ ____
ROOT
ATOM      1  C   UNL     1      34.432 -15.276 -24.596  0.00  0.00    +0.062 C 
ATOM      2  C   UNL     1      33.378 -14.131 -24.536  0.00  0.00    +0.012 C 
ATOM      3  C   UNL     1      34.990 -15.668 -23.208  0.00  0.00    +0.173 C 
ATOM      4  C   UNL     1      32.865 -13.764 -25.960  0.00  0.00    +0.022 C 
ATOM      5  C   UNL     1      33.877 -16.485 -25.344  0.00  0.00    -0.024 C 
ATOM      6  C   UNL     1      35.869 -16.919 -23.296  0.00  0.00    +0.048 C 
ATOM      7  C   UNL     1      35.147 -18.132 -23.911  0.00  0.00    +0.025 C 
ATOM      8  C   UNL     1      34.206 -17.749 -25.022  0.00  0.00    -0.030 C 
ATOM      9  C   UNL     1      32.512 -15.000 -26.745  0.00  0.00    -0.027 C 
ATOM     10  C   UNL     1      32.964 -16.224 -26.443  0.00  0.00    -0.009 C 
ATOM     11  C   UNL     1      33.833 -12.909 -26.784  0.00  0.00    +0.005 C 
ATOM     12  C   UNL     1      34.401 -18.956 -22.857  0.00  0.00    +0.005 C 
ENDROOT
BRANCH   3  13
ATOM     13  O   UNL     1      33.925 -15.875 -22.285  0.00  0.00    -0.452 OA
BRANCH  13  15
ATOM     14  O   UNL     1      35.059 -14.835 -20.575  0.00  0.00    -0.250 OA
ATOM     15  C   UNL     1      34.011 -15.184 -21.105  0.00  0.00    +0.316 C 
BRANCH  15  16
ATOM     16  C   UNL     1      32.615 -14.912 -20.529  0.00  0.00    +0.090 C 
ATOM     17  C   UNL     1      32.723 -14.675 -19.012  0.00  0.00    +0.011 C 
ATOM     18  C   UNL     1      31.747 -16.163 -20.757  0.00  0.00    +0.011 C 
BRANCH  16  19
ATOM     19  C   UNL     1      31.956 -13.699 -21.230  0.00  0.00    +0.011 C 
ATOM     20  C   UNL     1      31.874 -12.433 -20.383  0.00  0.00    +0.001 C 
ENDBRANCH  16  19
ENDBRANCH  15  16
ENDBRANCH  13  15
ENDBRANCH   3  13
BRANCH   2  21
ATOM     21  C   UNL     1      33.881 -12.897 -23.780  0.00  0.00    +0.004 C 
BRANCH  21  22
ATOM     22  C   UNL     1      33.263 -11.623 -24.340  0.00  0.00    +0.044 C 
BRANCH  22  25
ATOM     23  O   UNL     1      34.209  -9.499 -23.774  0.00  0.00    -0.452 OA
ATOM     24  O   UNL     1      35.175  -7.493 -23.452  0.00  0.00    -0.250 OA
ATOM     25  C   UNL     1      33.283 -10.504 -23.306  0.00  0.00    +0.171 C 
ATOM     26  C   UNL     1      31.888  -9.944 -23.077  0.00  0.00    +0.073 C 
ATOM     27  C   UNL     1      31.976  -8.738 -22.159  0.00  0.00    +0.125 C 
ATOM     28  C   UNL     1      32.899  -7.694 -22.757  0.00  0.00    +0.139 C 
ATOM     29  C   UNL     1      34.198  -8.226 -23.315  0.00  0.00    +0.319 C 
BRANCH  27  30
ATOM     30  O   UNL     1      32.472  -9.115 -20.878  0.00  0.00    -0.384 OA
ATOM     31  H   UNL     1      33.364  -8.755 -20.758  0.00  0.00    +0.210 HD
ENDBRANCH  27  30
ENDBRANCH  22  25
ENDBRANCH  21  22
ENDBRANCH   2  21
TORSDOF 8
ENDMDL
MODEL 5
REMARK VINA RESULT:      -7.5     13.971     18.234
REMARK  Name = 54454
REMARK  8 active torsions:
REMARK  status: ('A' for Active; 'I' for Inactive)
REMARK    1  A    between atoms: C_2  and  C_21
REMARK    2  A    between atoms: C_3  and  O_13
REMARK    3  A    between atoms: O_13  and  C_15
REMARK    4  A    between atoms: C_15  and  C_16
REMARK    5  A    between atoms: C_16  and  C_19
REMARK    6  A    between atoms: C_21  and  C_22
REMARK    7  A    between atoms: C_22  and  C_25
REMARK    8  A    between atoms: C_27  and  O_30
REMARK                            x       y       z     vdW  Elec       q    Type
REMARK                         _______ _______ _______ _____ _____    ______ ____
ROOT
ATOM      1  C   UNL     1      31.657  -9.068 -21.718  0.00  0.00    +0.062 C 
ATOM      2  C   UNL     1      32.691  -8.058 -22.300  0.00  0.00    +0.012 C 
ATOM      3  C   UNL     1      31.629 -10.418 -22.470  0.00  0.00    +0.173 C 
ATOM      4  C   UNL     1      32.664  -6.711 -21.519  0.00  0.00    +0.022 C 
ATOM      5  C   UNL     1      31.874  -9.260 -20.220  0.00  0.00    -0.024 C 
ATOM      6  C   UNL     1      30.746 -11.439 -21.747  0.00  0.00    +0.048 C 
ATOM      7  C   UNL     1      31.166 -11.684 -20.286  0.00  0.00    +0.025 C 
ATOM      8  C   UNL     1      31.650 -10.434 -19.601  0.00  0.00    -0.030 C 
ATOM      9  C   UNL     1      32.677  -6.947 -20.032  0.00  0.00    -0.027 C 
ATOM     10  C   UNL     1      32.333  -8.110 -19.462  0.00  0.00    -0.009 C 
ATOM     11  C   UNL     1      31.485  -5.797 -21.869  0.00  0.00    +0.005 C 
ATOM     12  C   UNL     1      32.220 -12.787 -20.164  0.00  0.00    +0.005 C 
ENDROOT
BRANCH   3  13
ATOM     13  O   UNL     1      32.950 -10.929 -22.626  0.00  0.00    -0.452 OA
BRANCH  13  15
ATOM     14  O   UNL     1      33.456 -10.623 -24.849  0.00  0.00    -0.250 OA
ATOM     15  C   UNL     1      33.284 -11.358 -23.883  0.00  0.00    +0.316 C 
BRANCH  15  16
ATOM     16  C   UNL     1      33.407 -12.886 -23.924  0.00  0.00    +0.090 C 
ATOM     17  C   UNL     1      33.889 -13.325 -25.318  0.00  0.00    +0.011 C 
ATOM     18  C   UNL     1      32.009 -13.489 -23.690  0.00  0.00    +0.011 C 
BRANCH  16  19
ATOM     19  C   UNL     1      34.371 -13.392 -22.824  0.00  0.00    +0.011 C 
ATOM     20  C   UNL     1      34.417 -14.907 -22.657  0.00  0.00    +0.001 C 
ENDBRANCH  16  19
ENDBRANCH  15  16
ENDBRANCH  13  15
ENDBRANCH   3  13
BRANCH   2  21
ATOM     21  C   UNL     1      32.527  -7.842 -23.808  0.00  0.00    +0.004 C 
BRANCH  21  22
ATOM     22  C   UNL     1      33.603  -6.907 -24.346  0.00  0.00    +0.044 C 
BRANCH  22  25
ATOM     23  O   UNL     1      32.053  -5.147 -24.820  0.00  0.00    -0.452 OA
ATOM     24  O   UNL     1      30.575  -3.465 -25.044  0.00  0.00    -0.250 OA
ATOM     25  C   UNL     1      33.044  -5.999 -25.434  0.00  0.00    +0.171 C 
ATOM     26  C   UNL     1      34.152  -5.204 -26.108  0.00  0.00    +0.073 C 
ATOM     27  C   UNL     1      33.538  -4.207 -27.074  0.00  0.00    +0.125 C 
ATOM     28  C   UNL     1      32.573  -3.297 -26.340  0.00  0.00    +0.139 C 
ATOM     29  C   UNL     1      31.633  -3.990 -25.384  0.00  0.00    +0.319 C 
BRANCH  27  30
ATOM     30  O   UNL     1      32.838  -4.881 -28.116  0.00  0.00    -0.384 OA
ATOM     31  H   UNL     1      33.208  -4.621 -28.974  0.00  0.00    +0.210 HD
ENDBRANCH  27  30
ENDBRANCH  22  25
ENDBRANCH  21  22
ENDBRANCH   2  21
TORSDOF 8
ENDMDL
MODEL 6
REMARK VINA RESULT:      -7.4     11.064     14.782
REMARK  Name = 54454
REMARK  8 active torsions:
REMARK  status: ('A' for Active; 'I' for Inactive)
REMARK    1  A    between atoms: C_2  and  C_21
REMARK    2  A    between atoms: C_3  and  O_13
REMARK    3  A    between atoms: O_13  and  C_15
REMARK    4  A    between atoms: C_15  and  C_16
REMARK    5  A    between atoms: C_16  and  C_19
REMARK    6  A    between atoms: C_21  and  C_22
REMARK    7  A    between atoms: C_22  and  C_25
REMARK    8  A    between atoms: C_27  and  O_30
REMARK                            x       y       z     vdW  Elec       q    Type
REMARK                         _______ _______ _______ _____ _____    ______ ____
ROOT
ATOM      1  C   UNL     1      32.843  -9.641 -24.098  0.00  0.00    +0.062 C 
ATOM      2  C   UNL     1      33.728 -10.912 -23.930  0.00  0.00    +0.012 C 
ATOM      3  C   UNL     1      31.596  -9.637 -23.185  0.00  0.00    +0.173 C 
ATOM      4  C   UNL     1      34.958 -10.873 -24.885  0.00  0.00    +0.022 C 
ATOM      5  C   UNL     1      33.677  -8.375 -23.922  0.00  0.00    -0.024 C 
ATOM      6  C   UNL     1      30.869  -8.291 -23.242  0.00  0.00    +0.048 C 
ATOM      7  C   UNL     1      31.767  -7.095 -22.876  0.00  0.00    +0.025 C 
ATOM      8  C   UNL     1      33.179  -7.252 -23.374  0.00  0.00    -0.030 C 
ATOM      9  C   UNL     1      35.641  -9.533 -24.833  0.00  0.00    -0.027 C 
ATOM     10  C   UNL     1      35.054  -8.417 -24.379  0.00  0.00    -0.009 C 
ATOM     11  C   UNL     1      34.640 -11.215 -26.344  0.00  0.00    +0.005 C 
ATOM     12  C   UNL     1      31.773  -6.817 -21.370  0.00  0.00    +0.005 C 
ENDROOT
BRANCH   3  13
ATOM     13  O   UNL     1      31.961  -9.945 -21.843  0.00  0.00    -0.452 OA
BRANCH  13  15
ATOM     14  O   UNL     1      30.209 -11.427 -21.684  0.00  0.00    -0.250 OA
ATOM     15  C   UNL     1      31.112 -10.781 -21.166  0.00  0.00    +0.316 C 
BRANCH  15  16
ATOM     16  C   UNL     1      31.439 -10.794 -19.667  0.00  0.00    +0.090 C 
ATOM     17  C   UNL     1      30.185 -10.404 -18.865  0.00  0.00    +0.011 C 
ATOM     18  C   UNL     1      32.525  -9.736 -19.401  0.00  0.00    +0.011 C 
BRANCH  16  19
ATOM     19  C   UNL     1      31.963 -12.184 -19.229  0.00  0.00    +0.011 C 
ATOM     20  C   UNL     1      32.385 -13.101 -20.372  0.00  0.00    +0.001 C 
ENDBRANCH  16  19
ENDBRANCH  15  16
ENDBRANCH  13  15
ENDBRANCH   3  13
BRANCH   2  21
ATOM     21  C   UNL     1      32.935 -12.214 -24.081  0.00  0.00    +0.004 C 
BRANCH  21  22
ATOM     22  C   UNL     1      33.392 -13.255 -23.067  0.00  0.00    +0.044 C 
BRANCH  22  25
ATOM     23  O   UNL     1      34.623 -15.277 -22.718  0.00  0.00    -0.452 OA
ATOM     24  O   UNL     1      35.711 -17.169 -22.175  0.00  0.00    -0.250 OA
ATOM     25  C   UNL     1      34.118 -14.405 -23.753  0.00  0.00    +0.171 C 
ATOM     26  C   UNL     1      33.202 -15.131 -24.725  0.00  0.00    +0.073 C 
ATOM     27  C   UNL     1      33.915 -16.356 -25.268  0.00  0.00    +0.125 C 
ATOM     28  C   UNL     1      34.340 -17.260 -24.128  0.00  0.00    +0.139 C 
ATOM     29  C   UNL     1      34.980 -16.560 -22.953  0.00  0.00    +0.319 C 
BRANCH  27  30
ATOM     30  O   UNL     1      35.069 -15.977 -26.013  0.00  0.00    -0.384 OA
ATOM     31  H   UNL     1      35.518 -15.245 -25.562  0.00  0.00    +0.210 HD
ENDBRANCH  27  30
ENDBRANCH  22  25
ENDBRANCH  21  22
ENDBRANCH   2  21
TORSDOF 8
ENDMDL
MODEL 7
REMARK VINA RESULT:      -7.3     10.837     15.108
REMARK  Name = 54454
REMARK  8 active torsions:
REMARK  status: ('A' for Active; 'I' for Inactive)
REMARK    1  A    between atoms: C_2  and  C_21
REMARK    2  A    between atoms: C_3  and  O_13
REMARK    3  A    between atoms: O_13  and  C_15
REMARK    4  A    between atoms: C_15  and  C_16
REMARK    5  A    between atoms: C_16  and  C_19
REMARK    6  A    between atoms: C_21  and  C_22
REMARK    7  A    between atoms: C_22  and  C_25
REMARK    8  A    between atoms: C_27  and  O_30
REMARK                            x       y       z     vdW  Elec       q    Type
REMARK                         _______ _______ _______ _____ _____    ______ ____
ROOT
ATOM      1  C   UNL     1      31.983  -9.678 -22.065  0.00  0.00    +0.062 C 
ATOM      2  C   UNL     1      33.254  -9.712 -22.966  0.00  0.00    +0.012 C 
ATOM      3  C   UNL     1      31.384 -11.077 -21.797  0.00  0.00    +0.173 C 
ATOM      4  C   UNL     1      33.804  -8.277 -23.219  0.00  0.00    +0.022 C 
ATOM      5  C   UNL     1      32.260  -8.923 -20.768  0.00  0.00    -0.024 C 
ATOM      6  C   UNL     1      30.263 -11.012 -20.757  0.00  0.00    +0.048 C 
ATOM      7  C   UNL     1      30.704 -10.387 -19.421  0.00  0.00    +0.025 C 
ATOM      8  C   UNL     1      31.682  -9.256 -19.600  0.00  0.00    -0.030 C 
ATOM      9  C   UNL     1      33.875  -7.490 -21.937  0.00  0.00    -0.027 C 
ATOM     10  C   UNL     1      33.185  -7.805 -20.834  0.00  0.00    -0.009 C 
ATOM     11  C   UNL     1      33.017  -7.469 -24.257  0.00  0.00    +0.005 C 
ATOM     12  C   UNL     1      31.283 -11.429 -18.459  0.00  0.00    +0.005 C 
ENDROOT
BRANCH   3  13
ATOM     13  O   UNL     1      32.401 -11.981 -21.373  0.00  0.00    -0.452 OA
BRANCH  13  15
ATOM     14  O   UNL     1      31.799 -13.529 -22.964  0.00  0.00    -0.250 OA
ATOM     15  C   UNL     1      32.344 -13.242 -21.905  0.00  0.00    +0.316 C 
BRANCH  15  16
ATOM     16  C   UNL     1      33.048 -14.252 -20.990  0.00  0.00    +0.090 C 
ATOM     17  C   UNL     1      32.666 -13.974 -19.526  0.00  0.00    +0.011 C 
ATOM     18  C   UNL     1      34.569 -14.054 -21.133  0.00  0.00    +0.011 C 
BRANCH  16  19
ATOM     19  C   UNL     1      32.684 -15.704 -21.388  0.00  0.00    +0.011 C 
ATOM     20  C   UNL     1      33.818 -16.714 -21.242  0.00  0.00    +0.001 C 
ENDBRANCH  16  19
ENDBRANCH  15  16
ENDBRANCH  13  15
ENDBRANCH   3  13
BRANCH   2  21
ATOM     21  C   UNL     1      33.034 -10.474 -24.277  0.00  0.00    +0.004 C 
BRANCH  21  22
ATOM     22  C   UNL     1      34.359 -10.771 -24.966  0.00  0.00    +0.044 C 
BRANCH  22  25
ATOM     23  O   UNL     1      34.238 -13.155 -24.798  0.00  0.00    -0.452 OA
ATOM     24  O   UNL     1      34.079 -15.367 -24.422  0.00  0.00    -0.250 OA
ATOM     25  C   UNL     1      34.287 -12.073 -25.753  0.00  0.00    +0.171 C 
ATOM     26  C   UNL     1      33.094 -12.079 -26.696  0.00  0.00    +0.073 C 
ATOM     27  C   UNL     1      32.974 -13.447 -27.344  0.00  0.00    +0.125 C 
ATOM     28  C   UNL     1      32.844 -14.519 -26.281  0.00  0.00    +0.139 C 
ATOM     29  C   UNL     1      33.800 -14.394 -25.119  0.00  0.00    +0.319 C 
BRANCH  27  30
ATOM     30  O   UNL     1      34.119 -13.726 -28.146  0.00  0.00    -0.384 OA
ATOM     31  H   UNL     1      34.900 -13.804 -27.576  0.00  0.00    +0.210 HD
ENDBRANCH  27  30
ENDBRANCH  22  25
ENDBRANCH  21  22
ENDBRANCH   2  21
TORSDOF 8
ENDMDL
MODEL 8
REMARK VINA RESULT:      -7.0      1.824      6.080
REMARK  Name = 54454
REMARK  8 active torsions:
REMARK  status: ('A' for Active; 'I' for Inactive)
REMARK    1  A    between atoms: C_2  and  C_21
REMARK    2  A    between atoms: C_3  and  O_13
REMARK    3  A    between atoms: O_13  and  C_15
REMARK    4  A    between atoms: C_15  and  C_16
REMARK    5  A    between atoms: C_16  and  C_19
REMARK    6  A    between atoms: C_21  and  C_22
REMARK    7  A    between atoms: C_22  and  C_25
REMARK    8  A    between atoms: C_27  and  O_30
REMARK                            x       y       z     vdW  Elec       q    Type
REMARK                         _______ _______ _______ _____ _____    ______ ____
ROOT
ATOM      1  C   UNL     1      34.993 -22.301 -17.091  0.00  0.00    +0.062 C 
ATOM      2  C   UNL     1      34.025 -23.181 -17.936  0.00  0.00    +0.012 C 
ATOM      3  C   UNL     1      35.376 -22.938 -15.736  0.00  0.00    +0.173 C 
ATOM      4  C   UNL     1      33.657 -22.485 -19.279  0.00  0.00    +0.022 C 
ATOM      5  C   UNL     1      36.226 -21.919 -17.905  0.00  0.00    -0.024 C 
ATOM      6  C   UNL     1      36.474 -22.133 -15.034  0.00  0.00    +0.048 C 
ATOM      7  C   UNL     1      37.744 -21.958 -15.886  0.00  0.00    +0.025 C 
ATOM      8  C   UNL     1      37.443 -21.773 -17.350  0.00  0.00    -0.030 C 
ATOM      9  C   UNL     1      34.885 -21.941 -19.962  0.00  0.00    -0.027 C 
ATOM     10  C   UNL     1      36.043 -21.708 -19.330  0.00  0.00    -0.009 C 
ATOM     11  C   UNL     1      32.621 -21.363 -19.151  0.00  0.00    +0.005 C 
ATOM     12  C   UNL     1      38.730 -23.115 -15.699  0.00  0.00    +0.005 C 
ENDROOT
BRANCH   3  13
ATOM     13  O   UNL     1      35.794 -24.287 -15.921  0.00  0.00    -0.452 OA
BRANCH  13  15
ATOM     14  O   UNL     1      34.773 -25.032 -13.999  0.00  0.00    -0.250 OA
ATOM     15  C   UNL     1      35.667 -25.110 -14.833  0.00  0.00    +0.316 C 
BRANCH  15  16
ATOM     16  C   UNL     1      36.802 -26.141 -14.793  0.00  0.00    +0.090 C 
ATOM     17  C   UNL     1      38.090 -25.509 -15.350  0.00  0.00    +0.011 C 
ATOM     18  C   UNL     1      36.415 -27.320 -15.704  0.00  0.00    +0.011 C 
BRANCH  16  19
ATOM     19  C   UNL     1      37.024 -26.662 -13.351  0.00  0.00    +0.011 C 
ATOM     20  C   UNL     1      37.851 -25.744 -12.457  0.00  0.00    +0.001 C 
ENDBRANCH  16  19
ENDBRANCH  15  16
ENDBRANCH  13  15
ENDBRANCH   3  13
BRANCH   2  21
ATOM     21  C   UNL     1      32.775 -23.606 -17.158  0.00  0.00    +0.004 C 
BRANCH  21  22
ATOM     22  C   UNL     1      32.538 -22.693 -15.962  0.00  0.00    +0.044 C 
BRANCH  22  25
ATOM     23  O   UNL     1      30.169 -22.943 -15.734  0.00  0.00    -0.452 OA
ATOM     24  O   UNL     1      27.926 -23.118 -15.736  0.00  0.00    -0.250 OA
ATOM     25  C   UNL     1      31.422 -23.230 -15.075  0.00  0.00    +0.171 C 
ATOM     26  C   UNL     1      31.604 -24.715 -14.802  0.00  0.00    +0.073 C 
ATOM     27  C   UNL     1      30.396 -25.239 -14.047  0.00  0.00    +0.125 C 
ATOM     28  C   UNL     1      29.131 -24.974 -14.839  0.00  0.00    +0.139 C 
ATOM     29  C   UNL     1      29.020 -23.590 -15.433  0.00  0.00    +0.319 C 
BRANCH  27  30
ATOM     30  O   UNL     1      30.287 -24.607 -12.774  0.00  0.00    -0.384 OA
ATOM     31  H   UNL     1      31.014 -24.902 -12.204  0.00  0.00    +0.210 HD
ENDBRANCH  27  30
ENDBRANCH  22  25
ENDBRANCH  21  22
ENDBRANCH   2  21
TORSDOF 8
ENDMDL
MODEL 9
REMARK VINA RESULT:      -7.0      2.846      6.495
REMARK  Name = 54454
REMARK  8 active torsions:
REMARK  status: ('A' for Active; 'I' for Inactive)
REMARK    1  A    between atoms: C_2  and  C_21
REMARK    2  A    between atoms: C_3  and  O_13
REMARK    3  A    between atoms: O_13  and  C_15
REMARK    4  A    between atoms: C_15  and  C_16
REMARK    5  A    between atoms: C_16  and  C_19
REMARK    6  A    between atoms: C_21  and  C_22
REMARK    7  A    between atoms: C_22  and  C_25
REMARK    8  A    between atoms: C_27  and  O_30
REMARK                            x       y       z     vdW  Elec       q    Type
REMARK                         _______ _______ _______ _____ _____    ______ ____
ROOT
ATOM      1  C   UNL     1      33.724 -23.075 -14.965  0.00  0.00    +0.062 C 
ATOM      2  C   UNL     1      34.340 -23.498 -16.332  0.00  0.00    +0.012 C 
ATOM      3  C   UNL     1      32.254 -22.609 -15.073  0.00  0.00    +0.173 C 
ATOM      4  C   UNL     1      35.825 -23.939 -16.168  0.00  0.00    +0.022 C 
ATOM      5  C   UNL     1      33.891 -24.184 -13.930  0.00  0.00    -0.024 C 
ATOM      6  C   UNL     1      31.637 -22.392 -13.688  0.00  0.00    +0.048 C 
ATOM      7  C   UNL     1      31.707 -23.637 -12.785  0.00  0.00    +0.025 C 
ATOM      8  C   UNL     1      32.980 -24.419 -12.968  0.00  0.00    -0.030 C 
ATOM      9  C   UNL     1      35.984 -24.883 -15.006  0.00  0.00    -0.027 C 
ATOM     10  C   UNL     1      35.094 -24.994 -14.012  0.00  0.00    -0.009 C 
ATOM     11  C   UNL     1      36.818 -22.783 -16.012  0.00  0.00    +0.005 C 
ATOM     12  C   UNL     1      30.498 -24.557 -12.976  0.00  0.00    +0.005 C 
ENDROOT
BRANCH   3  13
ATOM     13  O   UNL     1      31.486 -23.552 -15.814  0.00  0.00    -0.452 OA
BRANCH  13  15
ATOM     14  O   UNL     1      30.676 -22.202 -17.491  0.00  0.00    -0.250 OA
ATOM     15  C   UNL     1      30.498 -23.032 -16.606  0.00  0.00    +0.316 C 
BRANCH  15  16
ATOM     16  C   UNL     1      29.132 -23.622 -16.234  0.00  0.00    +0.090 C 
ATOM     17  C   UNL     1      29.323 -25.036 -15.657  0.00  0.00    +0.011 C 
ATOM     18  C   UNL     1      28.291 -23.739 -17.519  0.00  0.00    +0.011 C 
BRANCH  16  19
ATOM     19  C   UNL     1      28.394 -22.710 -15.223  0.00  0.00    +0.011 C 
ATOM     20  C   UNL     1      27.046 -22.180 -15.701  0.00  0.00    +0.001 C 
ENDBRANCH  16  19
ENDBRANCH  15  16
ENDBRANCH  13  15
ENDBRANCH   3  13
BRANCH   2  21
ATOM     21  C   UNL     1      34.184 -22.424 -17.413  0.00  0.00    +0.004 C 
BRANCH  21  22
ATOM     22  C   UNL     1      34.032 -23.053 -18.791  0.00  0.00    +0.044 C 
BRANCH  22  25
ATOM     23  O   UNL     1      32.987 -21.280 -20.012  0.00  0.00    -0.452 OA
ATOM     24  O   UNL     1      31.841 -19.617 -21.004  0.00  0.00    -0.250 OA
ATOM     25  C   UNL     1      34.223 -22.016 -19.891  0.00  0.00    +0.171 C 
ATOM     26  C   UNL     1      35.409 -21.112 -19.593  0.00  0.00    +0.073 C 
ATOM     27  C   UNL     1      35.469 -20.005 -20.630  0.00  0.00    +0.125 C 
ATOM     28  C   UNL     1      34.169 -19.227 -20.638  0.00  0.00    +0.139 C 
ATOM     29  C   UNL     1      32.914 -20.067 -20.606  0.00  0.00    +0.319 C 
BRANCH  27  30
ATOM     30  O   UNL     1      35.695 -20.545 -21.929  0.00  0.00    -0.384 OA
ATOM     31  H   UNL     1      35.809 -19.821 -22.564  0.00  0.00    +0.210 HD
ENDBRANCH  27  30
ENDBRANCH  22  25
ENDBRANCH  21  22
ENDBRANCH   2  21
TORSDOF 8
ENDMDL
