MODEL 1
REMARK VINA RESULT:      -5.9      0.000      0.000
REMARK  Name = 36688842
REMARK  6 active torsions:
REMARK  status: ('A' for Active; 'I' for Inactive)
REMARK    1  A    between atoms: C_1  and  N_2
REMARK    2  A    between atoms: C_1  and  C_8
REMARK    3  A    between atoms: C_1  and  C_9
REMARK    4  A    between atoms: C_9  and  S_10
REMARK    5  A    between atoms: S_10  and  C_11
REMARK    6  A    between atoms: C_11  and  C_14
REMARK                            x       y       z     vdW  Elec       q    Type
REMARK                         _______ _______ _______ _____ _____    ______ ____
ROOT
ATOM      1  C   UNK     1      36.793 -23.417 -11.747  0.00  0.00    +0.051 C 
ENDROOT
BRANCH   1   2
ATOM      2  N   UNK     1      38.220 -23.870 -11.682  0.00  0.00    +0.389 N 
ATOM      3  H   UNK     1      38.636 -23.561 -10.804  0.00  0.00    -0.088 HD
ATOM      4  H   UNK     1      38.739 -23.470 -12.464  0.00  0.00    -0.088 HD
ATOM      5  H   UNK     1      38.257 -24.888 -11.736  0.00  0.00    -0.088 HD
ENDBRANCH   1   2
BRANCH   1   8
ATOM      6  O   UNK     1      36.016 -24.237  -9.663  0.00  0.00    -0.248 OA
ATOM      7  O   UNK     1      34.945 -24.902 -11.564  0.00  0.00    -0.248 OA
ATOM      8  C   UNK     1      35.816 -24.262 -10.911  0.00  0.00    +0.346 C 
ENDBRANCH   1   8
BRANCH   1   9
ATOM      9  C   UNK     1      36.444 -23.244 -13.227  0.00  0.00    +0.047 C 
BRANCH   9  10
ATOM     10  S   UNK     1      37.532 -24.188 -14.346  0.00  0.00    -0.132 S 
BRANCH  10  11
ATOM     11  C   UNK     1      36.291 -25.320 -15.011  0.00  0.00    +0.142 C 
BRANCH  11  14
ATOM     12  O   UNK     1      36.663 -27.359 -16.232  0.00  0.00    -0.274 OA
ATOM     13  N   UNK     1      37.836 -27.027 -14.283  0.00  0.00    -0.328 N 
ATOM     14  C   UNK     1      36.934 -26.662 -15.257  0.00  0.00    +0.230 C 
ATOM     15  H   UNK     1      38.311 -27.887 -14.350  0.00  0.00    +0.145 HD
ATOM     16  H   UNK     1      38.005 -26.430 -13.519  0.00  0.00    +0.145 HD
ENDBRANCH  11  14
ENDBRANCH  10  11
ENDBRANCH   9  10
ENDBRANCH   1   9
TORSDOF 6
ENDMDL
MODEL 2
REMARK VINA RESULT:      -5.8      2.837      4.985
REMARK  Name = 36688842
REMARK  6 active torsions:
REMARK  status: ('A' for Active; 'I' for Inactive)
REMARK    1  A    between atoms: C_1  and  N_2
REMARK    2  A    between atoms: C_1  and  C_8
REMARK    3  A    between atoms: C_1  and  C_9
REMARK    4  A    between atoms: C_9  and  S_10
REMARK    5  A    between atoms: S_10  and  C_11
REMARK    6  A    between atoms: C_11  and  C_14
REMARK                            x       y       z     vdW  Elec       q    Type
REMARK                         _______ _______ _______ _____ _____    ______ ____
ROOT
ATOM      1  C   UNK     1      38.757 -25.503 -14.491  0.00  0.00    +0.051 C 
ENDROOT
BRANCH   1   2
ATOM      2  N   UNK     1      38.243 -26.908 -14.393  0.00  0.00    +0.389 N 
ATOM      3  H   UNK     1      37.615 -27.096 -15.173  0.00  0.00    -0.088 HD
ATOM      4  H   UNK     1      37.739 -27.024 -13.514  0.00  0.00    -0.088 HD
ATOM      5  H   UNK     1      39.028 -27.559 -14.423  0.00  0.00    -0.088 HD
ENDBRANCH   1   2
BRANCH   1   8
ATOM      6  O   UNK     1      40.573 -26.097 -15.895  0.00  0.00    -0.248 OA
ATOM      7  O   UNK     1      40.947 -24.628 -14.190  0.00  0.00    -0.248 OA
ATOM      8  C   UNK     1      40.235 -25.390 -14.903  0.00  0.00    +0.346 C 
ENDBRANCH   1   8
BRANCH   1   9
ATOM      9  C   UNK     1      38.356 -24.787 -13.199  0.00  0.00    +0.047 C 
BRANCH   9  10
ATOM     10  S   UNK     1      37.151 -23.442 -13.456  0.00  0.00    -0.132 S 
BRANCH  10  11
ATOM     11  C   UNK     1      36.484 -23.375 -11.779  0.00  0.00    +0.142 C 
BRANCH  11  14
ATOM     12  O   UNK     1      35.341 -25.099 -10.550  0.00  0.00    -0.274 OA
ATOM     13  N   UNK     1      34.749 -24.751 -12.743  0.00  0.00    -0.328 N 
ATOM     14  C   UNK     1      35.479 -24.487 -11.607  0.00  0.00    +0.230 C 
ATOM     15  H   UNK     1      34.065 -25.459 -12.736  0.00  0.00    +0.145 HD
ATOM     16  H   UNK     1      34.910 -24.231 -13.564  0.00  0.00    +0.145 HD
ENDBRANCH  11  14
ENDBRANCH  10  11
ENDBRANCH   9  10
ENDBRANCH   1   9
TORSDOF 6
ENDMDL
MODEL 3
REMARK VINA RESULT:      -5.8      2.843      5.042
REMARK  Name = 36688842
REMARK  6 active torsions:
REMARK  status: ('A' for Active; 'I' for Inactive)
REMARK    1  A    between atoms: C_1  and  N_2
REMARK    2  A    between atoms: C_1  and  C_8
REMARK    3  A    between atoms: C_1  and  C_9
REMARK    4  A    between atoms: C_9  and  S_10
REMARK    5  A    between atoms: S_10  and  C_11
REMARK    6  A    between atoms: C_11  and  C_14
REMARK                            x       y       z     vdW  Elec       q    Type
REMARK                         _______ _______ _______ _____ _____    ______ ____
ROOT
ATOM      1  C   UNK     1      38.820 -25.813 -14.489  0.00  0.00    +0.051 C 
ENDROOT
BRANCH   1   2
ATOM      2  N   UNK     1      38.680 -26.193 -13.046  0.00  0.00    +0.389 N 
ATOM      3  H   UNK     1      38.161 -27.067 -12.973  0.00  0.00    -0.088 HD
ATOM      4  H   UNK     1      38.180 -25.457 -12.547  0.00  0.00    -0.088 HD
ATOM      5  H   UNK     1      39.606 -26.313 -12.635  0.00  0.00    -0.088 HD
ENDBRANCH   1   2
BRANCH   1   8
ATOM      6  O   UNK     1      40.669 -26.098 -15.945  0.00  0.00    -0.248 OA
ATOM      7  O   UNK     1      40.868 -24.639 -14.203  0.00  0.00    -0.248 OA
ATOM      8  C   UNK     1      40.257 -25.476 -14.925  0.00  0.00    +0.346 C 
ENDBRANCH   1   8
BRANCH   1   9
ATOM      9  C   UNK     1      37.757 -24.751 -14.777  0.00  0.00    +0.047 C 
BRANCH   9  10
ATOM     10  S   UNK     1      36.292 -24.874 -13.697  0.00  0.00    -0.132 S 
BRANCH  10  11
ATOM     11  C   UNK     1      36.290 -23.177 -13.078  0.00  0.00    +0.142 C 
BRANCH  11  14
ATOM     12  O   UNK     1      38.286 -22.528 -11.904  0.00  0.00    -0.274 OA
ATOM     13  N   UNK     1      36.687 -23.717 -10.758  0.00  0.00    -0.328 N 
ATOM     14  C   UNK     1      37.196 -23.093 -11.875  0.00  0.00    +0.230 C 
ATOM     15  H   UNK     1      37.202 -23.719  -9.919  0.00  0.00    +0.145 HD
ATOM     16  H   UNK     1      35.810 -24.161 -10.798  0.00  0.00    +0.145 HD
ENDBRANCH  11  14
ENDBRANCH  10  11
ENDBRANCH   9  10
ENDBRANCH   1   9
TORSDOF 6
ENDMDL
MODEL 4
REMARK VINA RESULT:      -5.7      2.752      2.787
REMARK  Name = 36688842
REMARK  6 active torsions:
REMARK  status: ('A' for Active; 'I' for Inactive)
REMARK    1  A    between atoms: C_1  and  N_2
REMARK    2  A    between atoms: C_1  and  C_8
REMARK    3  A    between atoms: C_1  and  C_9
REMARK    4  A    between atoms: C_9  and  S_10
REMARK    5  A    between atoms: S_10  and  C_11
REMARK    6  A    between atoms: C_11  and  C_14
REMARK                            x       y       z     vdW  Elec       q    Type
REMARK                         _______ _______ _______ _____ _____    ______ ____
ROOT
ATOM      1  C   UNK     1      35.468 -24.599 -12.531  0.00  0.00    +0.051 C 
ENDROOT
BRANCH   1   2
ATOM      2  N   UNK     1      34.479 -23.547 -12.933  0.00  0.00    +0.389 N 
ATOM      3  H   UNK     1      34.477 -23.452 -13.948  0.00  0.00    -0.088 HD
ATOM      4  H   UNK     1      34.738 -22.657 -12.508  0.00  0.00    -0.088 HD
ATOM      5  H   UNK     1      33.548 -23.817 -12.615  0.00  0.00    -0.088 HD
ENDBRANCH   1   2
BRANCH   1   8
ATOM      6  O   UNK     1      37.018 -23.861 -10.895  0.00  0.00    -0.248 OA
ATOM      7  O   UNK     1      35.223 -25.097 -10.218  0.00  0.00    -0.248 OA
ATOM      8  C   UNK     1      35.943 -24.504 -11.070  0.00  0.00    +0.346 C 
ENDBRANCH   1   8
BRANCH   1   9
ATOM      9  C   UNK     1      36.563 -24.618 -13.600  0.00  0.00    +0.047 C 
BRANCH   9  10
ATOM     10  S   UNK     1      37.518 -26.171 -13.637  0.00  0.00    -0.132 S 
BRANCH  10  11
ATOM     11  C   UNK     1      39.148 -25.475 -13.286  0.00  0.00    +0.142 C 
BRANCH  11  14
ATOM     12  O   UNK     1      41.049 -26.540 -14.304  0.00  0.00    -0.274 OA
ATOM     13  N   UNK     1      39.733 -25.183 -15.611  0.00  0.00    -0.328 N 
ATOM     14  C   UNK     1      40.076 -25.801 -14.430  0.00  0.00    +0.230 C 
ATOM     15  H   UNK     1      40.276 -25.331 -16.419  0.00  0.00    +0.145 HD
ATOM     16  H   UNK     1      38.945 -24.594 -15.648  0.00  0.00    +0.145 HD
ENDBRANCH  11  14
ENDBRANCH  10  11
ENDBRANCH   9  10
ENDBRANCH   1   9
TORSDOF 6
ENDMDL
MODEL 5
REMARK VINA RESULT:      -5.7      1.436      1.602
REMARK  Name = 36688842
REMARK  6 active torsions:
REMARK  status: ('A' for Active; 'I' for Inactive)
REMARK    1  A    between atoms: C_1  and  N_2
REMARK    2  A    between atoms: C_1  and  C_8
REMARK    3  A    between atoms: C_1  and  C_9
REMARK    4  A    between atoms: C_9  and  S_10
REMARK    5  A    between atoms: S_10  and  C_11
REMARK    6  A    between atoms: C_11  and  C_14
REMARK                            x       y       z     vdW  Elec       q    Type
REMARK                         _______ _______ _______ _____ _____    ______ ____
ROOT
ATOM      1  C   UNK     1      35.642 -24.137 -12.567  0.00  0.00    +0.051 C 
ENDROOT
BRANCH   1   2
ATOM      2  N   UNK     1      34.267 -23.583 -12.787  0.00  0.00    +0.389 N 
ATOM      3  H   UNK     1      33.573 -24.250 -12.451  0.00  0.00    -0.088 HD
ATOM      4  H   UNK     1      34.123 -23.415 -13.783  0.00  0.00    -0.088 HD
ATOM      5  H   UNK     1      34.169 -22.704 -12.278  0.00  0.00    -0.088 HD
ENDBRANCH   1   2
BRANCH   1   8
ATOM      6  O   UNK     1      35.213 -25.184 -10.484  0.00  0.00    -0.248 OA
ATOM      7  O   UNK     1      37.010 -23.789 -10.654  0.00  0.00    -0.248 OA
ATOM      8  C   UNK     1      35.996 -24.401 -11.094  0.00  0.00    +0.346 C 
ENDBRANCH   1   8
BRANCH   1   9
ATOM      9  C   UNK     1      36.613 -23.250 -13.350  0.00  0.00    +0.047 C 
BRANCH   9  10
ATOM     10  S   UNK     1      37.527 -24.144 -14.652  0.00  0.00    -0.132 S 
BRANCH  10  11
ATOM     11  C   UNK     1      36.258 -25.363 -15.061  0.00  0.00    +0.142 C 
BRANCH  11  14
ATOM     12  O   UNK     1      36.678 -27.402 -16.266  0.00  0.00    -0.274 OA
ATOM     13  N   UNK     1      37.801 -27.055 -14.291  0.00  0.00    -0.328 N 
ATOM     14  C   UNK     1      36.919 -26.700 -15.287  0.00  0.00    +0.230 C 
ATOM     15  H   UNK     1      38.285 -27.910 -14.344  0.00  0.00    +0.145 HD
ATOM     16  H   UNK     1      37.947 -26.453 -13.526  0.00  0.00    +0.145 HD
ENDBRANCH  11  14
ENDBRANCH  10  11
ENDBRANCH   9  10
ENDBRANCH   1   9
TORSDOF 6
ENDMDL
MODEL 6
REMARK VINA RESULT:      -5.7      1.932      4.504
REMARK  Name = 36688842
REMARK  6 active torsions:
REMARK  status: ('A' for Active; 'I' for Inactive)
REMARK    1  A    between atoms: C_1  and  N_2
REMARK    2  A    between atoms: C_1  and  C_8
REMARK    3  A    between atoms: C_1  and  C_9
REMARK    4  A    between atoms: C_9  and  S_10
REMARK    5  A    between atoms: S_10  and  C_11
REMARK    6  A    between atoms: C_11  and  C_14
REMARK                            x       y       z     vdW  Elec       q    Type
REMARK                         _______ _______ _______ _____ _____    ______ ____
ROOT
ATOM      1  C   UNK     1      37.804 -26.220 -14.597  0.00  0.00    +0.051 C 
ENDROOT
BRANCH   1   2
ATOM      2  N   UNK     1      38.643 -25.028 -14.942  0.00  0.00    +0.389 N 
ATOM      3  H   UNK     1      39.424 -25.319 -15.529  0.00  0.00    -0.088 HD
ATOM      4  H   UNK     1      39.002 -24.606 -14.085  0.00  0.00    -0.088 HD
ATOM      5  H   UNK     1      38.075 -24.345 -15.444  0.00  0.00    -0.088 HD
ENDBRANCH   1   2
BRANCH   1   8
ATOM      6  O   UNK     1      36.656 -27.446 -16.271  0.00  0.00    -0.248 OA
ATOM      7  O   UNK     1      35.678 -25.563 -15.435  0.00  0.00    -0.248 OA
ATOM      8  C   UNK     1      36.589 -26.434 -15.518  0.00  0.00    +0.346 C 
ENDBRANCH   1   8
BRANCH   1   9
ATOM      9  C   UNK     1      37.513 -26.146 -13.097  0.00  0.00    +0.047 C 
BRANCH   9  10
ATOM     10  S   UNK     1      38.057 -24.585 -12.326  0.00  0.00    -0.132 S 
BRANCH  10  11
ATOM     11  C   UNK     1      36.506 -23.671 -12.481  0.00  0.00    +0.142 C 
BRANCH  11  14
ATOM     12  O   UNK     1      35.378 -24.981 -10.808  0.00  0.00    -0.274 OA
ATOM     13  N   UNK     1      34.374 -24.740 -12.862  0.00  0.00    -0.328 N 
ATOM     14  C   UNK     1      35.381 -24.522 -11.948  0.00  0.00    +0.230 C 
ATOM     15  H   UNK     1      33.592 -25.283 -12.612  0.00  0.00    +0.145 HD
ATOM     16  H   UNK     1      34.436 -24.352 -13.765  0.00  0.00    +0.145 HD
ENDBRANCH  11  14
ENDBRANCH  10  11
ENDBRANCH   9  10
ENDBRANCH   1   9
TORSDOF 6
ENDMDL
MODEL 7
REMARK VINA RESULT:      -5.6      2.592      4.476
REMARK  Name = 36688842
REMARK  6 active torsions:
REMARK  status: ('A' for Active; 'I' for Inactive)
REMARK    1  A    between atoms: C_1  and  N_2
REMARK    2  A    between atoms: C_1  and  C_8
REMARK    3  A    between atoms: C_1  and  C_9
REMARK    4  A    between atoms: C_9  and  S_10
REMARK    5  A    between atoms: S_10  and  C_11
REMARK    6  A    between atoms: C_11  and  C_14
REMARK                            x       y       z     vdW  Elec       q    Type
REMARK                         _______ _______ _______ _____ _____    ______ ____
ROOT
ATOM      1  C   UNK     1      38.617 -25.871 -14.892  0.00  0.00    +0.051 C 
ENDROOT
BRANCH   1   2
ATOM      2  N   UNK     1      37.786 -26.938 -14.246  0.00  0.00    +0.389 N 
ATOM      3  H   UNK     1      37.861 -27.800 -14.785  0.00  0.00    -0.088 HD
ATOM      4  H   UNK     1      36.811 -26.638 -14.218  0.00  0.00    -0.088 HD
ATOM      5  H   UNK     1      38.119 -27.099 -13.296  0.00  0.00    -0.088 HD
ENDBRANCH   1   2
BRANCH   1   8
ATOM      6  O   UNK     1      40.159 -24.688 -13.534  0.00  0.00    -0.248 OA
ATOM      7  O   UNK     1      40.875 -26.562 -14.619  0.00  0.00    -0.248 OA
ATOM      8  C   UNK     1      40.019 -25.696 -14.283  0.00  0.00    +0.346 C 
ENDBRANCH   1   8
BRANCH   1   9
ATOM      9  C   UNK     1      37.749 -24.612 -14.969  0.00  0.00    +0.047 C 
BRANCH   9  10
ATOM     10  S   UNK     1      36.018 -24.889 -14.466  0.00  0.00    -0.132 S 
BRANCH  10  11
ATOM     11  C   UNK     1      36.030 -23.895 -12.957  0.00  0.00    +0.142 C 
BRANCH  11  14
ATOM     12  O   UNK     1      36.665 -25.725 -11.531  0.00  0.00    -0.274 OA
ATOM     13  N   UNK     1      37.926 -23.805 -11.465  0.00  0.00    -0.328 N 
ATOM     14  C   UNK     1      36.887 -24.583 -11.925  0.00  0.00    +0.230 C 
ATOM     15  H   UNK     1      38.545 -24.161 -10.787  0.00  0.00    +0.145 HD
ATOM     16  H   UNK     1      38.049 -22.892 -11.812  0.00  0.00    +0.145 HD
ENDBRANCH  11  14
ENDBRANCH  10  11
ENDBRANCH   9  10
ENDBRANCH   1   9
TORSDOF 6
ENDMDL
MODEL 8
REMARK VINA RESULT:      -5.5      2.030      2.386
REMARK  Name = 36688842
REMARK  6 active torsions:
REMARK  status: ('A' for Active; 'I' for Inactive)
REMARK    1  A    between atoms: C_1  and  N_2
REMARK    2  A    between atoms: C_1  and  C_8
REMARK    3  A    between atoms: C_1  and  C_9
REMARK    4  A    between atoms: C_9  and  S_10
REMARK    5  A    between atoms: S_10  and  C_11
REMARK    6  A    between atoms: C_11  and  C_14
REMARK                            x       y       z     vdW  Elec       q    Type
REMARK                         _______ _______ _______ _____ _____    ______ ____
ROOT
ATOM      1  C   UNK     1      37.127 -24.491 -12.035  0.00  0.00    +0.051 C 
ENDROOT
BRANCH   1   2
ATOM      2  N   UNK     1      38.324 -23.704 -11.596  0.00  0.00    +0.389 N 
ATOM      3  H   UNK     1      39.027 -24.337 -11.215  0.00  0.00    -0.088 HD
ATOM      4  H   UNK     1      38.045 -23.034 -10.878  0.00  0.00    -0.088 HD
ATOM      5  H   UNK     1      38.714 -23.203 -12.395  0.00  0.00    -0.088 HD
ENDBRANCH   1   2
BRANCH   1   8
ATOM      6  O   UNK     1      34.845 -24.857 -11.505  0.00  0.00    -0.248 OA
ATOM      7  O   UNK     1      36.240 -24.108  -9.862  0.00  0.00    -0.248 OA
ATOM      8  C   UNK     1      35.960 -24.493 -11.033  0.00  0.00    +0.346 C 
ENDBRANCH   1   8
BRANCH   1   9
ATOM      9  C   UNK     1      37.634 -25.863 -12.488  0.00  0.00    +0.047 C 
BRANCH   9  10
ATOM     10  S   UNK     1      37.084 -26.326 -14.163  0.00  0.00    -0.132 S 
BRANCH  10  11
ATOM     11  C   UNK     1      36.881 -24.661 -14.834  0.00  0.00    +0.142 C 
BRANCH  11  14
ATOM     12  O   UNK     1      35.139 -23.828 -16.268  0.00  0.00    -0.274 OA
ATOM     13  N   UNK     1      34.538 -25.106 -14.454  0.00  0.00    -0.328 N 
ATOM     14  C   UNK     1      35.450 -24.481 -15.275  0.00  0.00    +0.230 C 
ATOM     15  H   UNK     1      33.576 -25.049 -14.655  0.00  0.00    +0.145 HD
ATOM     16  H   UNK     1      34.847 -25.608 -13.667  0.00  0.00    +0.145 HD
ENDBRANCH  11  14
ENDBRANCH  10  11
ENDBRANCH   9  10
ENDBRANCH   1   9
TORSDOF 6
ENDMDL
MODEL 9
REMARK VINA RESULT:      -5.5      3.168      4.426
REMARK  Name = 36688842
REMARK  6 active torsions:
REMARK  status: ('A' for Active; 'I' for Inactive)
REMARK    1  A    between atoms: C_1  and  N_2
REMARK    2  A    between atoms: C_1  and  C_8
REMARK    3  A    between atoms: C_1  and  C_9
REMARK    4  A    between atoms: C_9  and  S_10
REMARK    5  A    between atoms: S_10  and  C_11
REMARK    6  A    between atoms: C_11  and  C_14
REMARK                            x       y       z     vdW  Elec       q    Type
REMARK                         _______ _______ _______ _____ _____    ______ ____
ROOT
ATOM      1  C   UNK     1      38.924 -25.560 -14.214  0.00  0.00    +0.051 C 
ENDROOT
BRANCH   1   2
ATOM      2  N   UNK     1      38.134 -26.829 -14.319  0.00  0.00    +0.389 N 
ATOM      3  H   UNK     1      38.727 -27.570 -14.691  0.00  0.00    -0.088 HD
ATOM      4  H   UNK     1      37.340 -26.684 -14.943  0.00  0.00    -0.088 HD
ATOM      5  H   UNK     1      37.794 -27.097 -13.395  0.00  0.00    -0.088 HD
ENDBRANCH   1   2
BRANCH   1   8
ATOM      6  O   UNK     1      41.072 -24.635 -14.598  0.00  0.00    -0.248 OA
ATOM      7  O   UNK     1      40.839 -26.904 -14.642  0.00  0.00    -0.248 OA
ATOM      8  C   UNK     1      40.427 -25.717 -14.505  0.00  0.00    +0.346 C 
ENDBRANCH   1   8
BRANCH   1   9
ATOM      9  C   UNK     1      38.556 -24.913 -12.876  0.00  0.00    +0.047 C 
BRANCH   9  10
ATOM     10  S   UNK     1      36.809 -25.149 -12.410  0.00  0.00    -0.132 S 
BRANCH  10  11
ATOM     11  C   UNK     1      36.075 -23.978 -13.572  0.00  0.00    +0.142 C 
BRANCH  11  14
ATOM     12  O   UNK     1      35.683 -25.230 -15.589  0.00  0.00    -0.274 OA
ATOM     13  N   UNK     1      33.897 -24.809 -14.204  0.00  0.00    -0.328 N 
ATOM     14  C   UNK     1      35.225 -24.737 -14.561  0.00  0.00    +0.230 C 
ATOM     15  H   UNK     1      33.257 -25.283 -14.783  0.00  0.00    +0.145 HD
ATOM     16  H   UNK     1      33.587 -24.386 -13.371  0.00  0.00    +0.145 HD
ENDBRANCH  11  14
ENDBRANCH  10  11
ENDBRANCH   9  10
ENDBRANCH   1   9
TORSDOF 6
ENDMDL
