MODEL 1
REMARK VINA RESULT:      -7.4      0.000      0.000
REMARK  Name = 448295
REMARK  11 active torsions:
REMARK  status: ('A' for Active; 'I' for Inactive)
REMARK    1  A    between atoms: C_2  and  N_7
REMARK    2  A    between atoms: C_3  and  O_11
REMARK    3  A    between atoms: C_4  and  O_13
REMARK    4  A    between atoms: C_5  and  C_22
REMARK    5  A    between atoms: C_6  and  O_15
REMARK    6  A    between atoms: O_15  and  C_16
REMARK    7  A    between atoms: C_16  and  C_17
REMARK    8  A    between atoms: C_17  and  C_18
REMARK    9  A    between atoms: C_18  and  C_19
REMARK   10  A    between atoms: C_19  and  C_20
REMARK   11  A    between atoms: C_22  and  O_23
REMARK                            x       y       z     vdW  Elec       q    Type
REMARK                         _______ _______ _______ _____ _____    ______ ____
ROOT
ATOM      1  O   UNL     1      35.643 -24.460 -13.575  0.00  0.00    -0.326 OA
ATOM      2  C   UNL     1      38.103 -25.954 -13.491  0.00  0.00    -0.003 C 
ATOM      3  C   UNL     1      37.674 -25.008 -12.359  0.00  0.00    +0.123 C 
ATOM      4  C   UNL     1      37.446 -25.556 -14.822  0.00  0.00    +0.149 C 
ATOM      5  C   UNL     1      36.143 -24.908 -12.310  0.00  0.00    +0.172 C 
ATOM      6  C   UNL     1      35.935 -25.366 -14.639  0.00  0.00    +0.261 C 
ENDROOT
BRANCH   2   7
ATOM      7  N   UNL     1      39.561 -25.975 -13.618  0.00  0.00    +0.385 N 
ATOM      8  H   UNL     1      39.871 -25.146 -14.126  0.00  0.00    -0.089 HD
ATOM      9  H   UNL     1      39.848 -26.811 -14.126  0.00  0.00    -0.089 HD
ATOM     10  H   UNL     1      39.983 -25.980 -12.689  0.00  0.00    -0.089 HD
ENDBRANCH   2   7
BRANCH   3  11
ATOM     11  O   UNL     1      38.234 -23.708 -12.555  0.00  0.00    -0.384 OA
ATOM     12  H   UNL     1      39.201 -23.775 -12.589  0.00  0.00    +0.210 HD
ENDBRANCH   3  11
BRANCH   4  13
ATOM     13  O   UNL     1      37.642 -26.585 -15.790  0.00  0.00    -0.381 OA
ATOM     14  H   UNL     1      38.047 -26.207 -16.586  0.00  0.00    +0.210 HD
ENDBRANCH   4  13
BRANCH   6  15
ATOM     15  O   UNL     1      35.354 -24.885 -15.852  0.00  0.00    -0.329 OA
BRANCH  15  16
ATOM     16  C   UNL     1      35.052 -23.501 -15.767  0.00  0.00    +0.145 C 
BRANCH  16  17
ATOM     17  C   UNL     1      33.973 -23.168 -16.789  0.00  0.00    +0.032 C 
BRANCH  17  18
ATOM     18  C   UNL     1      34.565 -22.511 -18.035  0.00  0.00    +0.003 C 
BRANCH  18  19
ATOM     19  C   UNL     1      33.505 -22.024 -19.027  0.00  0.00    +0.000 C 
BRANCH  19  20
ATOM     20  C   UNL     1      34.002 -20.907 -19.946  0.00  0.00    +0.000 C 
ATOM     21  C   UNL     1      32.843 -20.094 -20.504  0.00  0.00    +0.000 C 
ENDBRANCH  19  20
ENDBRANCH  18  19
ENDBRANCH  17  18
ENDBRANCH  16  17
ENDBRANCH  15  16
ENDBRANCH   6  15
BRANCH   5  22
ATOM     22  C   UNL     1      35.659 -23.922 -11.253  0.00  0.00    +0.169 C 
BRANCH  22  23
ATOM     23  O   UNL     1      36.386 -24.147 -10.059  0.00  0.00    -0.379 OA
ATOM     24  H   UNL     1      37.094 -23.487  -9.982  0.00  0.00    +0.211 HD
ENDBRANCH  22  23
ENDBRANCH   5  22
TORSDOF 11
ENDMDL
MODEL 2
REMARK VINA RESULT:      -7.3      1.812      2.861
REMARK  Name = 448295
REMARK  11 active torsions:
REMARK  status: ('A' for Active; 'I' for Inactive)
REMARK    1  A    between atoms: C_2  and  N_7
REMARK    2  A    between atoms: C_3  and  O_11
REMARK    3  A    between atoms: C_4  and  O_13
REMARK    4  A    between atoms: C_5  and  C_22
REMARK    5  A    between atoms: C_6  and  O_15
REMARK    6  A    between atoms: O_15  and  C_16
REMARK    7  A    between atoms: C_16  and  C_17
REMARK    8  A    between atoms: C_17  and  C_18
REMARK    9  A    between atoms: C_18  and  C_19
REMARK   10  A    between atoms: C_19  and  C_20
REMARK   11  A    between atoms: C_22  and  O_23
REMARK                            x       y       z     vdW  Elec       q    Type
REMARK                         _______ _______ _______ _____ _____    ______ ____
ROOT
ATOM      1  O   UNL     1      35.775 -24.456 -13.366  0.00  0.00    -0.326 OA
ATOM      2  C   UNL     1      38.208 -25.989 -13.501  0.00  0.00    -0.003 C 
ATOM      3  C   UNL     1      37.851 -25.116 -12.289  0.00  0.00    +0.123 C 
ATOM      4  C   UNL     1      37.498 -25.492 -14.769  0.00  0.00    +0.149 C 
ATOM      5  C   UNL     1      36.325 -24.996 -12.160  0.00  0.00    +0.172 C 
ATOM      6  C   UNL     1      36.000 -25.292 -14.502  0.00  0.00    +0.261 C 
ENDROOT
BRANCH   2   7
ATOM      7  N   UNL     1      39.659 -26.023 -13.698  0.00  0.00    +0.385 N 
ATOM      8  H   UNL     1      40.107 -25.388 -13.038  0.00  0.00    -0.089 HD
ATOM      9  H   UNL     1      39.880 -25.735 -14.651  0.00  0.00    -0.089 HD
ATOM     10  H   UNL     1      40.000 -26.972 -13.542  0.00  0.00    -0.089 HD
ENDBRANCH   2   7
BRANCH   3  11
ATOM     11  O   UNL     1      38.424 -23.814 -12.424  0.00  0.00    -0.384 OA
ATOM     12  H   UNL     1      38.386 -23.540 -13.354  0.00  0.00    +0.210 HD
ENDBRANCH   3  11
BRANCH   4  13
ATOM     13  O   UNL     1      37.629 -26.456 -15.812  0.00  0.00    -0.381 OA
ATOM     14  H   UNL     1      38.514 -26.390 -16.204  0.00  0.00    +0.210 HD
ENDBRANCH   4  13
BRANCH   6  15
ATOM     15  O   UNL     1      35.372 -24.722 -15.651  0.00  0.00    -0.329 OA
BRANCH  15  16
ATOM     16  C   UNL     1      34.273 -23.903 -15.284  0.00  0.00    +0.145 C 
BRANCH  16  17
ATOM     17  C   UNL     1      33.654 -23.316 -16.547  0.00  0.00    +0.032 C 
BRANCH  17  18
ATOM     18  C   UNL     1      32.129 -23.286 -16.461  0.00  0.00    +0.003 C 
BRANCH  18  19
ATOM     19  C   UNL     1      31.604 -22.998 -15.052  0.00  0.00    +0.000 C 
BRANCH  19  20
ATOM     20  C   UNL     1      30.165 -23.469 -14.832  0.00  0.00    +0.000 C 
ATOM     21  C   UNL     1      30.114 -24.951 -14.494  0.00  0.00    +0.000 C 
ENDBRANCH  19  20
ENDBRANCH  18  19
ENDBRANCH  17  18
ENDBRANCH  16  17
ENDBRANCH  15  16
ENDBRANCH   6  15
BRANCH   5  22
ATOM     22  C   UNL     1      35.909 -24.077 -11.017  0.00  0.00    +0.169 C 
BRANCH  22  23
ATOM     23  O   UNL     1      35.310 -24.862 -10.002  0.00  0.00    -0.379 OA
ATOM     24  H   UNL     1      35.555 -24.507  -9.132  0.00  0.00    +0.211 HD
ENDBRANCH  22  23
ENDBRANCH   5  22
TORSDOF 11
ENDMDL
MODEL 3
REMARK VINA RESULT:      -7.3      2.061      3.360
REMARK  Name = 448295
REMARK  11 active torsions:
REMARK  status: ('A' for Active; 'I' for Inactive)
REMARK    1  A    between atoms: C_2  and  N_7
REMARK    2  A    between atoms: C_3  and  O_11
REMARK    3  A    between atoms: C_4  and  O_13
REMARK    4  A    between atoms: C_5  and  C_22
REMARK    5  A    between atoms: C_6  and  O_15
REMARK    6  A    between atoms: O_15  and  C_16
REMARK    7  A    between atoms: C_16  and  C_17
REMARK    8  A    between atoms: C_17  and  C_18
REMARK    9  A    between atoms: C_18  and  C_19
REMARK   10  A    between atoms: C_19  and  C_20
REMARK   11  A    between atoms: C_22  and  O_23
REMARK                            x       y       z     vdW  Elec       q    Type
REMARK                         _______ _______ _______ _____ _____    ______ ____
ROOT
ATOM      1  O   UNL     1      38.366 -24.613 -15.300  0.00  0.00    -0.326 OA
ATOM      2  C   UNL     1      36.961 -24.698 -12.789  0.00  0.00    -0.003 C 
ATOM      3  C   UNL     1      38.082 -25.688 -13.140  0.00  0.00    +0.123 C 
ATOM      4  C   UNL     1      36.309 -24.130 -14.059  0.00  0.00    +0.149 C 
ATOM      5  C   UNL     1      39.065 -25.040 -14.126  0.00  0.00    +0.172 C 
ATOM      6  C   UNL     1      37.381 -23.616 -15.030  0.00  0.00    +0.261 C 
ENDROOT
BRANCH   2   7
ATOM      7  N   UNL     1      35.960 -25.339 -11.935  0.00  0.00    +0.385 N 
ATOM      8  H   UNL     1      35.726 -24.718 -11.160  0.00  0.00    -0.089 HD
ATOM      9  H   UNL     1      36.334 -26.214 -11.567  0.00  0.00    -0.089 HD
ATOM     10  H   UNL     1      35.120 -25.532 -12.481  0.00  0.00    -0.089 HD
ENDBRANCH   2   7
BRANCH   3  11
ATOM     11  O   UNL     1      37.537 -26.877 -13.717  0.00  0.00    -0.384 OA
ATOM     12  H   UNL     1      37.979 -27.057 -14.561  0.00  0.00    +0.210 HD
ENDBRANCH   3  11
BRANCH   4  13
ATOM     13  O   UNL     1      35.464 -23.031 -13.724  0.00  0.00    -0.381 OA
ATOM     14  H   UNL     1      35.219 -23.085 -12.787  0.00  0.00    +0.210 HD
ENDBRANCH   4  13
BRANCH   6  15
ATOM     15  O   UNL     1      36.773 -23.197 -16.252  0.00  0.00    -0.329 OA
BRANCH  15  16
ATOM     16  C   UNL     1      37.131 -21.863 -16.574  0.00  0.00    +0.145 C 
BRANCH  16  17
ATOM     17  C   UNL     1      36.742 -21.585 -18.021  0.00  0.00    +0.032 C 
BRANCH  17  18
ATOM     18  C   UNL     1      35.311 -22.034 -18.313  0.00  0.00    +0.003 C 
BRANCH  18  19
ATOM     19  C   UNL     1      34.768 -21.507 -19.644  0.00  0.00    +0.000 C 
BRANCH  19  20
ATOM     20  C   UNL     1      33.264 -21.229 -19.619  0.00  0.00    +0.000 C 
ATOM     21  C   UNL     1      32.905 -20.047 -20.507  0.00  0.00    +0.000 C 
ENDBRANCH  19  20
ENDBRANCH  18  19
ENDBRANCH  17  18
ENDBRANCH  16  17
ENDBRANCH  15  16
ENDBRANCH   6  15
BRANCH   5  22
ATOM     22  C   UNL     1      40.160 -26.002 -14.570  0.00  0.00    +0.169 C 
BRANCH  22  23
ATOM     23  O   UNL     1      40.394 -25.812 -15.954  0.00  0.00    -0.379 OA
ATOM     24  H   UNL     1      39.631 -26.137 -16.459  0.00  0.00    +0.211 HD
ENDBRANCH  22  23
ENDBRANCH   5  22
TORSDOF 11
ENDMDL
MODEL 4
REMARK VINA RESULT:      -7.1      3.151      4.901
REMARK  Name = 448295
REMARK  11 active torsions:
REMARK  status: ('A' for Active; 'I' for Inactive)
REMARK    1  A    between atoms: C_2  and  N_7
REMARK    2  A    between atoms: C_3  and  O_11
REMARK    3  A    between atoms: C_4  and  O_13
REMARK    4  A    between atoms: C_5  and  C_22
REMARK    5  A    between atoms: C_6  and  O_15
REMARK    6  A    between atoms: O_15  and  C_16
REMARK    7  A    between atoms: C_16  and  C_17
REMARK    8  A    between atoms: C_17  and  C_18
REMARK    9  A    between atoms: C_18  and  C_19
REMARK   10  A    between atoms: C_19  and  C_20
REMARK   11  A    between atoms: C_22  and  O_23
REMARK                            x       y       z     vdW  Elec       q    Type
REMARK                         _______ _______ _______ _____ _____    ______ ____
ROOT
ATOM      1  O   UNL     1      34.387 -24.012 -16.211  0.00  0.00    -0.326 OA
ATOM      2  C   UNL     1      32.007 -23.083 -14.884  0.00  0.00    -0.003 C 
ATOM      3  C   UNL     1      33.118 -23.844 -14.145  0.00  0.00    +0.123 C 
ATOM      4  C   UNL     1      32.018 -23.409 -16.385  0.00  0.00    +0.149 C 
ATOM      5  C   UNL     1      34.467 -23.607 -14.839  0.00  0.00    +0.172 C 
ATOM      6  C   UNL     1      33.433 -23.257 -16.958  0.00  0.00    +0.261 C 
ENDROOT
BRANCH   2   7
ATOM      7  N   UNL     1      30.700 -23.386 -14.296  0.00  0.00    +0.385 N 
ATOM      8  H   UNL     1      30.775 -24.218 -13.712  0.00  0.00    -0.089 HD
ATOM      9  H   UNL     1      30.022 -23.552 -15.040  0.00  0.00    -0.089 HD
ATOM     10  H   UNL     1      30.393 -22.597 -13.727  0.00  0.00    -0.089 HD
ENDBRANCH   2   7
BRANCH   3  11
ATOM     11  O   UNL     1      32.832 -25.243 -14.117  0.00  0.00    -0.384 OA
ATOM     12  H   UNL     1      32.190 -25.427 -13.414  0.00  0.00    +0.210 HD
ENDBRANCH   3  11
BRANCH   4  13
ATOM     13  O   UNL     1      31.165 -22.507 -17.087  0.00  0.00    -0.381 OA
ATOM     14  H   UNL     1      31.694 -21.972 -17.699  0.00  0.00    +0.210 HD
ENDBRANCH   4  13
BRANCH   6  15
ATOM     15  O   UNL     1      33.454 -23.673 -18.324  0.00  0.00    -0.329 OA
BRANCH  15  16
ATOM     16  C   UNL     1      34.297 -22.840 -19.104  0.00  0.00    +0.145 C 
BRANCH  16  17
ATOM     17  C   UNL     1      33.549 -21.555 -19.436  0.00  0.00    +0.032 C 
BRANCH  17  18
ATOM     18  C   UNL     1      34.440 -20.566 -20.186  0.00  0.00    +0.003 C 
BRANCH  18  19
ATOM     19  C   UNL     1      33.671 -19.679 -21.169  0.00  0.00    +0.000 C 
BRANCH  19  20
ATOM     20  C   UNL     1      34.566 -18.703 -21.933  0.00  0.00    +0.000 C 
ATOM     21  C   UNL     1      34.795 -19.166 -23.365  0.00  0.00    +0.000 C 
ENDBRANCH  19  20
ENDBRANCH  18  19
ENDBRANCH  17  18
ENDBRANCH  16  17
ENDBRANCH  15  16
ENDBRANCH   6  15
BRANCH   5  22
ATOM     22  C   UNL     1      35.599 -24.399 -14.196  0.00  0.00    +0.169 C 
BRANCH  22  23
ATOM     23  O   UNL     1      35.611 -25.702 -14.752  0.00  0.00    -0.379 OA
ATOM     24  H   UNL     1      35.780 -26.352 -14.050  0.00  0.00    +0.211 HD
ENDBRANCH  22  23
ENDBRANCH   5  22
TORSDOF 11
ENDMDL
MODEL 5
REMARK VINA RESULT:      -7.0      8.800     12.184
REMARK  Name = 448295
REMARK  11 active torsions:
REMARK  status: ('A' for Active; 'I' for Inactive)
REMARK    1  A    between atoms: C_2  and  N_7
REMARK    2  A    between atoms: C_3  and  O_11
REMARK    3  A    between atoms: C_4  and  O_13
REMARK    4  A    between atoms: C_5  and  C_22
REMARK    5  A    between atoms: C_6  and  O_15
REMARK    6  A    between atoms: O_15  and  C_16
REMARK    7  A    between atoms: C_16  and  C_17
REMARK    8  A    between atoms: C_17  and  C_18
REMARK    9  A    between atoms: C_18  and  C_19
REMARK   10  A    between atoms: C_19  and  C_20
REMARK   11  A    between atoms: C_22  and  O_23
REMARK                            x       y       z     vdW  Elec       q    Type
REMARK                         _______ _______ _______ _____ _____    ______ ____
ROOT
ATOM      1  O   UNL     1      34.705 -16.091 -22.541  0.00  0.00    -0.326 OA
ATOM      2  C   UNL     1      33.529 -14.372 -24.528  0.00  0.00    -0.003 C 
ATOM      3  C   UNL     1      33.381 -14.111 -23.022  0.00  0.00    +0.123 C 
ATOM      4  C   UNL     1      33.802 -15.858 -24.808  0.00  0.00    +0.149 C 
ATOM      5  C   UNL     1      34.587 -14.691 -22.268  0.00  0.00    +0.172 C 
ATOM      6  C   UNL     1      34.944 -16.370 -23.921  0.00  0.00    +0.261 C 
ENDROOT
BRANCH   2   7
ATOM      7  N   UNL     1      32.336 -13.919 -25.247  0.00  0.00    +0.385 N 
ATOM      8  H   UNL     1      31.508 -14.101 -24.680  0.00  0.00    -0.089 HD
ATOM      9  H   UNL     1      32.259 -14.422 -26.130  0.00  0.00    -0.089 HD
ATOM     10  H   UNL     1      32.410 -12.919 -25.430  0.00  0.00    -0.089 HD
ENDBRANCH   2   7
BRANCH   3  11
ATOM     11  O   UNL     1      32.178 -14.702 -22.528  0.00  0.00    -0.384 OA
ATOM     12  H   UNL     1      32.215 -15.662 -22.654  0.00  0.00    +0.210 HD
ENDBRANCH   3  11
BRANCH   4  13
ATOM     13  O   UNL     1      34.194 -16.035 -26.168  0.00  0.00    -0.381 OA
ATOM     14  H   UNL     1      33.556 -15.592 -26.749  0.00  0.00    +0.210 HD
ENDBRANCH   4  13
BRANCH   6  15
ATOM     15  O   UNL     1      35.112 -17.776 -24.105  0.00  0.00    -0.329 OA
BRANCH  15  16
ATOM     16  C   UNL     1      35.682 -18.383 -22.957  0.00  0.00    +0.145 C 
BRANCH  16  17
ATOM     17  C   UNL     1      34.779 -19.522 -22.502  0.00  0.00    +0.032 C 
BRANCH  17  18
ATOM     18  C   UNL     1      34.445 -19.412 -21.015  0.00  0.00    +0.003 C 
BRANCH  18  19
ATOM     19  C   UNL     1      33.189 -20.191 -20.614  0.00  0.00    +0.000 C 
BRANCH  19  20
ATOM     20  C   UNL     1      33.444 -21.237 -19.528  0.00  0.00    +0.000 C 
ATOM     21  C   UNL     1      34.905 -21.662 -19.501  0.00  0.00    +0.000 C 
ENDBRANCH  19  20
ENDBRANCH  18  19
ENDBRANCH  17  18
ENDBRANCH  16  17
ENDBRANCH  15  16
ENDBRANCH   6  15
BRANCH   5  22
ATOM     22  C   UNL     1      34.460 -14.530 -20.758  0.00  0.00    +0.169 C 
BRANCH  22  23
ATOM     23  O   UNL     1      34.944 -15.706 -20.136  0.00  0.00    -0.379 OA
ATOM     24  H   UNL     1      35.842 -15.895 -20.454  0.00  0.00    +0.211 HD
ENDBRANCH  22  23
ENDBRANCH   5  22
TORSDOF 11
ENDMDL
MODEL 6
REMARK VINA RESULT:      -7.0      2.762      4.205
REMARK  Name = 448295
REMARK  11 active torsions:
REMARK  status: ('A' for Active; 'I' for Inactive)
REMARK    1  A    between atoms: C_2  and  N_7
REMARK    2  A    between atoms: C_3  and  O_11
REMARK    3  A    between atoms: C_4  and  O_13
REMARK    4  A    between atoms: C_5  and  C_22
REMARK    5  A    between atoms: C_6  and  O_15
REMARK    6  A    between atoms: O_15  and  C_16
REMARK    7  A    between atoms: C_16  and  C_17
REMARK    8  A    between atoms: C_17  and  C_18
REMARK    9  A    between atoms: C_18  and  C_19
REMARK   10  A    between atoms: C_19  and  C_20
REMARK   11  A    between atoms: C_22  and  O_23
REMARK                            x       y       z     vdW  Elec       q    Type
REMARK                         _______ _______ _______ _____ _____    ______ ____
ROOT
ATOM      1  O   UNL     1      35.479 -23.416 -14.374  0.00  0.00    -0.326 OA
ATOM      2  C   UNL     1      37.657 -24.827 -13.127  0.00  0.00    -0.003 C 
ATOM      3  C   UNL     1      37.760 -24.237 -14.542  0.00  0.00    +0.123 C 
ATOM      4  C   UNL     1      36.194 -25.107 -12.750  0.00  0.00    +0.149 C 
ATOM      5  C   UNL     1      36.824 -23.027 -14.676  0.00  0.00    +0.172 C 
ATOM      6  C   UNL     1      35.322 -23.876 -13.032  0.00  0.00    +0.261 C 
ENDROOT
BRANCH   2   7
ATOM      7  N   UNL     1      38.463 -26.044 -13.018  0.00  0.00    +0.385 N 
ATOM      8  H   UNL     1      38.515 -26.500 -13.929  0.00  0.00    -0.089 HD
ATOM      9  H   UNL     1      38.034 -26.678 -12.345  0.00  0.00    -0.089 HD
ATOM     10  H   UNL     1      39.404 -25.802 -12.706  0.00  0.00    -0.089 HD
ENDBRANCH   2   7
BRANCH   3  11
ATOM     11  O   UNL     1      37.416 -25.221 -15.519  0.00  0.00    -0.384 OA
ATOM     12  H   UNL     1      37.098 -26.021 -15.073  0.00  0.00    +0.210 HD
ENDBRANCH   3  11
BRANCH   4  13
ATOM     13  O   UNL     1      36.096 -25.400 -11.358  0.00  0.00    -0.381 OA
ATOM     14  H   UNL     1      35.435 -24.818 -10.951  0.00  0.00    +0.210 HD
ENDBRANCH   4  13
BRANCH   6  15
ATOM     15  O   UNL     1      33.949 -24.186 -12.788  0.00  0.00    -0.329 OA
BRANCH  15  16
ATOM     16  C   UNL     1      33.256 -24.447 -13.998  0.00  0.00    +0.145 C 
BRANCH  16  17
ATOM     17  C   UNL     1      31.857 -24.949 -13.665  0.00  0.00    +0.032 C 
BRANCH  17  18
ATOM     18  C   UNL     1      30.850 -23.802 -13.606  0.00  0.00    +0.003 C 
BRANCH  18  19
ATOM     19  C   UNL     1      31.042 -22.766 -14.717  0.00  0.00    +0.000 C 
BRANCH  19  20
ATOM     20  C   UNL     1      30.173 -23.028 -15.948  0.00  0.00    +0.000 C 
ATOM     21  C   UNL     1      28.738 -22.576 -15.719  0.00  0.00    +0.000 C 
ENDBRANCH  19  20
ENDBRANCH  18  19
ENDBRANCH  17  18
ENDBRANCH  16  17
ENDBRANCH  15  16
ENDBRANCH   6  15
BRANCH   5  22
ATOM     22  C   UNL     1      36.826 -22.445 -16.084  0.00  0.00    +0.169 C 
BRANCH  22  23
ATOM     23  O   UNL     1      35.755 -23.020 -16.812  0.00  0.00    -0.379 OA
ATOM     24  H   UNL     1      35.663 -23.955 -16.568  0.00  0.00    +0.211 HD
ENDBRANCH  22  23
ENDBRANCH   5  22
TORSDOF 11
ENDMDL
MODEL 7
REMARK VINA RESULT:      -6.9      8.983     12.822
REMARK  Name = 448295
REMARK  11 active torsions:
REMARK  status: ('A' for Active; 'I' for Inactive)
REMARK    1  A    between atoms: C_2  and  N_7
REMARK    2  A    between atoms: C_3  and  O_11
REMARK    3  A    between atoms: C_4  and  O_13
REMARK    4  A    between atoms: C_5  and  C_22
REMARK    5  A    between atoms: C_6  and  O_15
REMARK    6  A    between atoms: O_15  and  C_16
REMARK    7  A    between atoms: C_16  and  C_17
REMARK    8  A    between atoms: C_17  and  C_18
REMARK    9  A    between atoms: C_18  and  C_19
REMARK   10  A    between atoms: C_19  and  C_20
REMARK   11  A    between atoms: C_22  and  O_23
REMARK                            x       y       z     vdW  Elec       q    Type
REMARK                         _______ _______ _______ _____ _____    ______ ____
ROOT
ATOM      1  O   UNL     1      34.383 -15.289 -24.212  0.00  0.00    -0.326 OA
ATOM      2  C   UNL     1      32.718 -14.309 -22.078  0.00  0.00    -0.003 C 
ATOM      3  C   UNL     1      32.721 -13.676 -23.477  0.00  0.00    +0.123 C 
ATOM      4  C   UNL     1      34.041 -15.038 -21.798  0.00  0.00    +0.149 C 
ATOM      5  C   UNL     1      33.104 -14.728 -24.529  0.00  0.00    +0.172 C 
ATOM      6  C   UNL     1      34.394 -15.976 -22.961  0.00  0.00    +0.261 C 
ENDROOT
BRANCH   2   7
ATOM      7  N   UNL     1      32.459 -13.294 -21.056  0.00  0.00    +0.385 N 
ATOM      8  H   UNL     1      32.320 -13.747 -20.153  0.00  0.00    -0.089 HD
ATOM      9  H   UNL     1      31.621 -12.767 -21.303  0.00  0.00    -0.089 HD
ATOM     10  H   UNL     1      33.255 -12.659 -20.999  0.00  0.00    -0.089 HD
ENDBRANCH   2   7
BRANCH   3  11
ATOM     11  O   UNL     1      33.643 -12.586 -23.531  0.00  0.00    -0.384 OA
ATOM     12  H   UNL     1      33.387 -11.915 -22.880  0.00  0.00    +0.210 HD
ENDBRANCH   3  11
BRANCH   4  13
ATOM     13  O   UNL     1      33.922 -15.832 -20.619  0.00  0.00    -0.381 OA
ATOM     14  H   UNL     1      34.135 -16.755 -20.828  0.00  0.00    +0.210 HD
ENDBRANCH   4  13
BRANCH   6  15
ATOM     15  O   UNL     1      35.679 -16.559 -22.743  0.00  0.00    -0.329 OA
BRANCH  15  16
ATOM     16  C   UNL     1      35.621 -17.975 -22.815  0.00  0.00    +0.145 C 
BRANCH  16  17
ATOM     17  C   UNL     1      36.221 -18.557 -21.541  0.00  0.00    +0.032 C 
BRANCH  17  18
ATOM     18  C   UNL     1      35.269 -19.551 -20.877  0.00  0.00    +0.003 C 
BRANCH  18  19
ATOM     19  C   UNL     1      33.806 -19.356 -21.283  0.00  0.00    +0.000 C 
BRANCH  19  20
ATOM     20  C   UNL     1      32.829 -20.186 -20.450  0.00  0.00    +0.000 C 
ATOM     21  C   UNL     1      33.553 -21.269 -19.663  0.00  0.00    +0.000 C 
ENDBRANCH  19  20
ENDBRANCH  18  19
ENDBRANCH  17  18
ENDBRANCH  16  17
ENDBRANCH  15  16
ENDBRANCH   6  15
BRANCH   5  22
ATOM     22  C   UNL     1      33.199 -14.140 -25.932  0.00  0.00    +0.169 C 
BRANCH  22  23
ATOM     23  O   UNL     1      33.513 -15.182 -26.838  0.00  0.00    -0.379 OA
ATOM     24  H   UNL     1      32.730 -15.740 -26.973  0.00  0.00    +0.211 HD
ENDBRANCH  22  23
ENDBRANCH   5  22
TORSDOF 11
ENDMDL
MODEL 8
REMARK VINA RESULT:      -6.9     11.386     14.492
REMARK  Name = 448295
REMARK  11 active torsions:
REMARK  status: ('A' for Active; 'I' for Inactive)
REMARK    1  A    between atoms: C_2  and  N_7
REMARK    2  A    between atoms: C_3  and  O_11
REMARK    3  A    between atoms: C_4  and  O_13
REMARK    4  A    between atoms: C_5  and  C_22
REMARK    5  A    between atoms: C_6  and  O_15
REMARK    6  A    between atoms: O_15  and  C_16
REMARK    7  A    between atoms: C_16  and  C_17
REMARK    8  A    between atoms: C_17  and  C_18
REMARK    9  A    between atoms: C_18  and  C_19
REMARK   10  A    between atoms: C_19  and  C_20
REMARK   11  A    between atoms: C_22  and  O_23
REMARK                            x       y       z     vdW  Elec       q    Type
REMARK                         _______ _______ _______ _____ _____    ______ ____
ROOT
ATOM      1  O   UNL     1      33.996 -14.074 -23.412  0.00  0.00    -0.326 OA
ATOM      2  C   UNL     1      33.863 -16.677 -24.635  0.00  0.00    -0.003 C 
ATOM      3  C   UNL     1      34.514 -16.443 -23.264  0.00  0.00    +0.123 C 
ATOM      4  C   UNL     1      33.869 -15.390 -25.475  0.00  0.00    +0.149 C 
ATOM      5  C   UNL     1      33.871 -15.230 -22.576  0.00  0.00    +0.172 C 
ATOM      6  C   UNL     1      33.316 -14.214 -24.659  0.00  0.00    +0.261 C 
ENDROOT
BRANCH   2   7
ATOM      7  N   UNL     1      34.540 -17.763 -25.346  0.00  0.00    +0.385 N 
ATOM      8  H   UNL     1      35.516 -17.806 -25.053  0.00  0.00    -0.089 HD
ATOM      9  H   UNL     1      34.494 -17.594 -26.350  0.00  0.00    -0.089 HD
ATOM     10  H   UNL     1      34.082 -18.648 -25.129  0.00  0.00    -0.089 HD
ENDBRANCH   2   7
BRANCH   3  11
ATOM     11  O   UNL     1      35.919 -16.223 -23.408  0.00  0.00    -0.384 OA
ATOM     12  H   UNL     1      36.331 -16.180 -22.531  0.00  0.00    +0.210 HD
ENDBRANCH   3  11
BRANCH   4  13
ATOM     13  O   UNL     1      33.037 -15.553 -26.622  0.00  0.00    -0.381 OA
ATOM     14  H   UNL     1      32.647 -14.697 -26.863  0.00  0.00    +0.210 HD
ENDBRANCH   4  13
BRANCH   6  15
ATOM     15  O   UNL     1      33.433 -13.004 -25.409  0.00  0.00    -0.329 OA
BRANCH  15  16
ATOM     16  C   UNL     1      33.878 -11.932 -24.592  0.00  0.00    +0.145 C 
BRANCH  16  17
ATOM     17  C   UNL     1      34.636 -10.935 -25.459  0.00  0.00    +0.032 C 
BRANCH  17  18
ATOM     18  C   UNL     1      35.090  -9.721 -24.649  0.00  0.00    +0.003 C 
BRANCH  18  19
ATOM     19  C   UNL     1      34.028  -9.210 -23.672  0.00  0.00    +0.000 C 
BRANCH  19  20
ATOM     20  C   UNL     1      34.202  -7.737 -23.302  0.00  0.00    +0.000 C 
ATOM     21  C   UNL     1      34.609  -6.907 -24.511  0.00  0.00    +0.000 C 
ENDBRANCH  19  20
ENDBRANCH  18  19
ENDBRANCH  17  18
ENDBRANCH  16  17
ENDBRANCH  15  16
ENDBRANCH   6  15
BRANCH   5  22
ATOM     22  C   UNL     1      34.528 -14.902 -21.241  0.00  0.00    +0.169 C 
BRANCH  22  23
ATOM     23  O   UNL     1      34.977 -16.108 -20.650  0.00  0.00    -0.379 OA
ATOM     24  H   UNL     1      34.429 -16.312 -19.874  0.00  0.00    +0.211 HD
ENDBRANCH  22  23
ENDBRANCH   5  22
TORSDOF 11
ENDMDL
MODEL 9
REMARK VINA RESULT:      -6.9      2.621      4.088
REMARK  Name = 448295
REMARK  11 active torsions:
REMARK  status: ('A' for Active; 'I' for Inactive)
REMARK    1  A    between atoms: C_2  and  N_7
REMARK    2  A    between atoms: C_3  and  O_11
REMARK    3  A    between atoms: C_4  and  O_13
REMARK    4  A    between atoms: C_5  and  C_22
REMARK    5  A    between atoms: C_6  and  O_15
REMARK    6  A    between atoms: O_15  and  C_16
REMARK    7  A    between atoms: C_16  and  C_17
REMARK    8  A    between atoms: C_17  and  C_18
REMARK    9  A    between atoms: C_18  and  C_19
REMARK   10  A    between atoms: C_19  and  C_20
REMARK   11  A    between atoms: C_22  and  O_23
REMARK                            x       y       z     vdW  Elec       q    Type
REMARK                         _______ _______ _______ _____ _____    ______ ____
ROOT
ATOM      1  O   UNL     1      36.553 -25.036 -14.541  0.00  0.00    -0.326 OA
ATOM      2  C   UNL     1      35.987 -24.248 -11.830  0.00  0.00    -0.003 C 
ATOM      3  C   UNL     1      37.195 -25.122 -12.199  0.00  0.00    +0.123 C 
ATOM      4  C   UNL     1      34.875 -24.370 -12.883  0.00  0.00    +0.149 C 
ATOM      5  C   UNL     1      37.642 -24.821 -13.637  0.00  0.00    +0.172 C 
ATOM      6  C   UNL     1      35.445 -24.169 -14.293  0.00  0.00    +0.261 C 
ENDROOT
BRANCH   2   7
ATOM      7  N   UNL     1      35.485 -24.601 -10.501  0.00  0.00    +0.385 N 
ATOM      8  H   UNL     1      35.317 -23.751  -9.964  0.00  0.00    -0.089 HD
ATOM      9  H   UNL     1      36.175 -25.177 -10.018  0.00  0.00    -0.089 HD
ATOM     10  H   UNL     1      34.614 -25.122 -10.595  0.00  0.00    -0.089 HD
ENDBRANCH   2   7
BRANCH   3  11
ATOM     11  O   UNL     1      36.865 -26.507 -12.080  0.00  0.00    -0.384 OA
ATOM     12  H   UNL     1      36.871 -26.761 -11.144  0.00  0.00    +0.210 HD
ENDBRANCH   3  11
BRANCH   4  13
ATOM     13  O   UNL     1      33.886 -23.365 -12.667  0.00  0.00    -0.381 OA
ATOM     14  H   UNL     1      33.543 -23.438 -11.762  0.00  0.00    +0.210 HD
ENDBRANCH   4  13
BRANCH   6  15
ATOM     15  O   UNL     1      34.427 -24.399 -15.268  0.00  0.00    -0.329 OA
BRANCH  15  16
ATOM     16  C   UNL     1      34.486 -23.438 -16.310  0.00  0.00    +0.145 C 
BRANCH  16  17
ATOM     17  C   UNL     1      33.081 -23.217 -16.855  0.00  0.00    +0.032 C 
BRANCH  17  18
ATOM     18  C   UNL     1      32.030 -23.306 -15.750  0.00  0.00    +0.003 C 
BRANCH  18  19
ATOM     19  C   UNL     1      30.600 -23.091 -16.251  0.00  0.00    +0.000 C 
BRANCH  19  20
ATOM     20  C   UNL     1      29.541 -23.270 -15.161  0.00  0.00    +0.000 C 
ATOM     21  C   UNL     1      29.039 -24.706 -15.109  0.00  0.00    +0.000 C 
ENDBRANCH  19  20
ENDBRANCH  18  19
ENDBRANCH  17  18
ENDBRANCH  16  17
ENDBRANCH  15  16
ENDBRANCH   6  15
BRANCH   5  22
ATOM     22  C   UNL     1      38.792 -25.714 -14.087  0.00  0.00    +0.169 C 
BRANCH  22  23
ATOM     23  O   UNL     1      38.254 -26.926 -14.584  0.00  0.00    -0.379 OA
ATOM     24  H   UNL     1      37.962 -26.799 -15.501  0.00  0.00    +0.211 HD
ENDBRANCH  22  23
ENDBRANCH   5  22
TORSDOF 11
ENDMDL
