MODEL 1
REMARK VINA RESULT:      -7.9      0.000      0.000
REMARK  Name = 8633
REMARK  5 active torsions:
REMARK  status: ('A' for Active; 'I' for Inactive)
REMARK    1  A    between atoms: O_1  and  C_3
REMARK    2  A    between atoms: O_1  and  C_13
REMARK    3  A    between atoms: C_2  and  C_9
REMARK    4  A    between atoms: C_13  and  C_14
REMARK    5  A    between atoms: C_15  and  N_20
REMARK                            x       y       z     vdW  Elec       q    Type
REMARK                         _______ _______ _______ _____ _____    ______ ____
ROOT
ATOM      1  O   UNL     1      31.707 -11.736 -22.498  0.00  0.00    -0.449 OA
ENDROOT
BRANCH   1   3
ATOM      2  C   UNL     1      33.722 -12.506 -23.613  0.00  0.00    +0.040 C 
ATOM      3  C   UNL     1      33.062 -12.122 -22.278  0.00  0.00    +0.169 C 
ATOM      4  C   UNL     1      33.095 -13.781 -24.196  0.00  0.00    +0.004 C 
ATOM      5  C   UNL     1      32.480 -14.565 -21.864  0.00  0.00    +0.004 C 
ATOM      6  C   UNL     1      33.103 -13.286 -21.283  0.00  0.00    +0.044 C 
ATOM      7  C   UNL     1      33.140 -14.936 -23.198  0.00  0.00    +0.000 C 
ATOM      8  C   UNL     1      32.592 -15.718 -20.869  0.00  0.00    +0.000 C 
BRANCH   2   9
ATOM      9  C   UNL     1      33.643 -11.366 -24.631  0.00  0.00    +0.003 C 
ATOM     10  C   UNL     1      34.633 -10.261 -24.273  0.00  0.00    +0.000 C 
ATOM     11  C   UNL     1      33.906 -11.890 -26.040  0.00  0.00    +0.000 C 
ENDBRANCH   2   9
ENDBRANCH   1   3
BRANCH   1  13
ATOM     12  O   UNL     1      30.371 -11.244 -20.689  0.00  0.00    -0.245 OA
ATOM     13  C   UNL     1      31.163 -10.917 -21.560  0.00  0.00    +0.342 C 
BRANCH  13  14
ATOM     14  C   UNL     1      31.662  -9.528 -21.727  0.00  0.00    +0.088 C 
ATOM     15  C   UNL     1      32.280  -8.878 -20.677  0.00  0.00    +0.048 C 
ATOM     16  C   UNL     1      31.483  -8.925 -22.957  0.00  0.00    +0.008 C 
ATOM     17  C   UNL     1      32.738  -7.575 -20.864  0.00  0.00    +0.014 C 
ATOM     18  C   UNL     1      31.941  -7.621 -23.144  0.00  0.00    +0.000 C 
ATOM     19  C   UNL     1      32.569  -6.945 -22.096  0.00  0.00    +0.001 C 
BRANCH  15  20
ATOM     20  N   UNL     1      32.462  -9.497 -19.420  0.00  0.00    -0.357 N 
ATOM     21  H   UNL     1      32.442 -10.479 -19.347  0.00  0.00    +0.142 HD
ATOM     22  H   UNL     1      32.610  -8.946 -18.617  0.00  0.00    +0.142 HD
ENDBRANCH  15  20
ENDBRANCH  13  14
ENDBRANCH   1  13
TORSDOF 5
ENDMDL
MODEL 2
REMARK VINA RESULT:      -7.8      2.359      5.445
REMARK  Name = 8633
REMARK  5 active torsions:
REMARK  status: ('A' for Active; 'I' for Inactive)
REMARK    1  A    between atoms: O_1  and  C_3
REMARK    2  A    between atoms: O_1  and  C_13
REMARK    3  A    between atoms: C_2  and  C_9
REMARK    4  A    between atoms: C_13  and  C_14
REMARK    5  A    between atoms: C_15  and  N_20
REMARK                            x       y       z     vdW  Elec       q    Type
REMARK                         _______ _______ _______ _____ _____    ______ ____
ROOT
ATOM      1  O   UNL     1      33.851 -10.454 -23.518  0.00  0.00    -0.449 OA
ENDROOT
BRANCH   1   3
ATOM      2  C   UNL     1      32.662  -8.352 -23.263  0.00  0.00    +0.040 C 
ATOM      3  C   UNL     1      32.570  -9.840 -23.645  0.00  0.00    +0.169 C 
ATOM      4  C   UNL     1      32.976  -8.180 -21.769  0.00  0.00    +0.004 C 
ATOM      5  C   UNL     1      31.871 -10.407 -21.264  0.00  0.00    +0.004 C 
ATOM      6  C   UNL     1      31.563 -10.579 -22.759  0.00  0.00    +0.044 C 
ATOM      7  C   UNL     1      31.967  -8.921 -20.894  0.00  0.00    +0.000 C 
ATOM      8  C   UNL     1      30.814 -11.107 -20.412  0.00  0.00    +0.000 C 
BRANCH   2   9
ATOM      9  C   UNL     1      33.702  -7.614 -24.108  0.00  0.00    +0.003 C 
ATOM     10  C   UNL     1      33.145  -6.278 -24.592  0.00  0.00    +0.000 C 
ATOM     11  C   UNL     1      34.987  -7.407 -23.313  0.00  0.00    +0.000 C 
ENDBRANCH   2   9
ENDBRANCH   1   3
BRANCH   1  13
ATOM     12  O   UNL     1      35.316 -10.231 -25.279  0.00  0.00    -0.245 OA
ATOM     13  C   UNL     1      34.443 -10.838 -24.679  0.00  0.00    +0.342 C 
BRANCH  13  14
ATOM     14  C   UNL     1      33.880 -12.129 -25.150  0.00  0.00    +0.088 C 
ATOM     15  C   UNL     1      33.773 -13.200 -24.286  0.00  0.00    +0.048 C 
ATOM     16  C   UNL     1      33.475 -12.210 -26.469  0.00  0.00    +0.008 C 
ATOM     17  C   UNL     1      33.241 -14.400 -24.757  0.00  0.00    +0.014 C 
ATOM     18  C   UNL     1      32.942 -13.411 -26.940  0.00  0.00    +0.000 C 
ATOM     19  C   UNL     1      32.825 -14.506 -26.084  0.00  0.00    +0.001 C 
BRANCH  15  20
ATOM     20  N   UNL     1      34.188 -13.115 -22.938  0.00  0.00    -0.357 N 
ATOM     21  H   UNL     1      33.523 -12.971 -22.226  0.00  0.00    +0.142 HD
ATOM     22  H   UNL     1      35.142 -13.202 -22.710  0.00  0.00    +0.142 HD
ENDBRANCH  15  20
ENDBRANCH  13  14
ENDBRANCH   1  13
TORSDOF 5
ENDMDL
MODEL 3
REMARK VINA RESULT:      -7.7      2.294      3.816
REMARK  Name = 8633
REMARK  5 active torsions:
REMARK  status: ('A' for Active; 'I' for Inactive)
REMARK    1  A    between atoms: O_1  and  C_3
REMARK    2  A    between atoms: O_1  and  C_13
REMARK    3  A    between atoms: C_2  and  C_9
REMARK    4  A    between atoms: C_13  and  C_14
REMARK    5  A    between atoms: C_15  and  N_20
REMARK                            x       y       z     vdW  Elec       q    Type
REMARK                         _______ _______ _______ _____ _____    ______ ____
ROOT
ATOM      1  O   UNL     1      33.756 -12.426 -23.258  0.00  0.00    -0.449 OA
ENDROOT
BRANCH   1   3
ATOM      2  C   UNL     1      32.206 -13.351 -21.633  0.00  0.00    +0.040 C 
ATOM      3  C   UNL     1      32.670 -13.337 -23.100  0.00  0.00    +0.169 C 
ATOM      4  C   UNL     1      33.286 -13.943 -20.715  0.00  0.00    +0.004 C 
ATOM      5  C   UNL     1      34.185 -15.330 -22.638  0.00  0.00    +0.004 C 
ATOM      6  C   UNL     1      33.108 -14.732 -23.557  0.00  0.00    +0.044 C 
ATOM      7  C   UNL     1      33.716 -15.334 -21.178  0.00  0.00    +0.000 C 
ATOM      8  C   UNL     1      34.552 -16.743 -23.089  0.00  0.00    +0.000 C 
BRANCH   2   9
ATOM      9  C   UNL     1      31.814 -11.953 -21.151  0.00  0.00    +0.003 C 
ATOM     10  C   UNL     1      30.471 -11.540 -21.748  0.00  0.00    +0.000 C 
ATOM     11  C   UNL     1      31.763 -11.908 -19.627  0.00  0.00    +0.000 C 
ENDBRANCH   2   9
ENDBRANCH   1   3
BRANCH   1  13
ATOM     12  O   UNL     1      33.568 -12.014 -25.515  0.00  0.00    -0.245 OA
ATOM     13  C   UNL     1      33.710 -11.635 -24.362  0.00  0.00    +0.342 C 
BRANCH  13  14
ATOM     14  C   UNL     1      33.860 -10.206 -23.988  0.00  0.00    +0.088 C 
ATOM     15  C   UNL     1      34.932  -9.471 -24.452  0.00  0.00    +0.048 C 
ATOM     16  C   UNL     1      32.894  -9.653 -23.167  0.00  0.00    +0.008 C 
ATOM     17  C   UNL     1      35.045  -8.131 -24.083  0.00  0.00    +0.014 C 
ATOM     18  C   UNL     1      33.008  -8.312 -22.799  0.00  0.00    +0.000 C 
ATOM     19  C   UNL     1      34.084  -7.551 -23.257  0.00  0.00    +0.001 C 
BRANCH  15  20
ATOM     20  N   UNL     1      35.917 -10.038 -25.291  0.00  0.00    -0.357 N 
ATOM     21  H   UNL     1      35.789 -10.045 -26.267  0.00  0.00    +0.142 HD
ATOM     22  H   UNL     1      36.734 -10.425 -24.899  0.00  0.00    +0.142 HD
ENDBRANCH  15  20
ENDBRANCH  13  14
ENDBRANCH   1  13
TORSDOF 5
ENDMDL
MODEL 4
REMARK VINA RESULT:      -7.6     13.675     16.182
REMARK  Name = 8633
REMARK  5 active torsions:
REMARK  status: ('A' for Active; 'I' for Inactive)
REMARK    1  A    between atoms: O_1  and  C_3
REMARK    2  A    between atoms: O_1  and  C_13
REMARK    3  A    between atoms: C_2  and  C_9
REMARK    4  A    between atoms: C_13  and  C_14
REMARK    5  A    between atoms: C_15  and  N_20
REMARK                            x       y       z     vdW  Elec       q    Type
REMARK                         _______ _______ _______ _____ _____    ______ ____
ROOT
ATOM      1  O   UNL     1      34.514 -24.524 -14.340  0.00  0.00    -0.449 OA
ENDROOT
BRANCH   1   3
ATOM      2  C   UNL     1      32.986 -23.043 -15.509  0.00  0.00    +0.040 C 
ATOM      3  C   UNL     1      34.179 -23.153 -14.544  0.00  0.00    +0.169 C 
ATOM      4  C   UNL     1      33.368 -23.514 -16.921  0.00  0.00    +0.004 C 
ATOM      5  C   UNL     1      35.785 -22.873 -16.499  0.00  0.00    +0.004 C 
ATOM      6  C   UNL     1      35.402 -22.407 -15.085  0.00  0.00    +0.044 C 
ATOM      7  C   UNL     1      34.589 -22.765 -17.452  0.00  0.00    +0.000 C 
ATOM      8  C   UNL     1      36.970 -22.067 -17.028  0.00  0.00    +0.000 C 
BRANCH   2   9
ATOM      9  C   UNL     1      31.774 -23.826 -15.002  0.00  0.00    +0.003 C 
ATOM     10  C   UNL     1      31.380 -23.354 -13.605  0.00  0.00    +0.000 C 
ATOM     11  C   UNL     1      30.603 -23.684 -15.970  0.00  0.00    +0.000 C 
ENDBRANCH   2   9
ENDBRANCH   1   3
BRANCH   1  13
ATOM     12  O   UNL     1      34.649 -24.834 -12.064  0.00  0.00    -0.245 OA
ATOM     13  C   UNL     1      35.153 -24.813 -13.176  0.00  0.00    +0.342 C 
BRANCH  13  14
ATOM     14  C   UNL     1      36.586 -25.108 -13.426  0.00  0.00    +0.088 C 
ATOM     15  C   UNL     1      36.951 -26.055 -14.363  0.00  0.00    +0.048 C 
ATOM     16  C   UNL     1      37.524 -24.407 -12.692  0.00  0.00    +0.008 C 
ATOM     17  C   UNL     1      38.305 -26.311 -14.576  0.00  0.00    +0.014 C 
ATOM     18  C   UNL     1      38.879 -24.663 -12.905  0.00  0.00    +0.000 C 
ATOM     19  C   UNL     1      39.269 -25.616 -13.847  0.00  0.00    +0.001 C 
BRANCH  15  20
ATOM     20  N   UNL     1      35.990 -26.770 -15.113  0.00  0.00    -0.357 N 
ATOM     21  H   UNL     1      35.959 -27.753 -15.063  0.00  0.00    +0.142 HD
ATOM     22  H   UNL     1      35.351 -26.285 -15.684  0.00  0.00    +0.142 HD
ENDBRANCH  15  20
ENDBRANCH  13  14
ENDBRANCH   1  13
TORSDOF 5
ENDMDL
MODEL 5
REMARK VINA RESULT:      -7.5      3.284      6.571
REMARK  Name = 8633
REMARK  5 active torsions:
REMARK  status: ('A' for Active; 'I' for Inactive)
REMARK    1  A    between atoms: O_1  and  C_3
REMARK    2  A    between atoms: O_1  and  C_13
REMARK    3  A    between atoms: C_2  and  C_9
REMARK    4  A    between atoms: C_13  and  C_14
REMARK    5  A    between atoms: C_15  and  N_20
REMARK                            x       y       z     vdW  Elec       q    Type
REMARK                         _______ _______ _______ _____ _____    ______ ____
ROOT
ATOM      1  O   UNL     1      34.330 -14.308 -22.745  0.00  0.00    -0.449 OA
ENDROOT
BRANCH   1   3
ATOM      2  C   UNL     1      32.684 -13.191 -24.137  0.00  0.00    +0.040 C 
ATOM      3  C   UNL     1      32.935 -14.227 -23.028  0.00  0.00    +0.169 C 
ATOM      4  C   UNL     1      33.017 -11.770 -23.656  0.00  0.00    +0.004 C 
ATOM      5  C   UNL     1      32.506 -12.442 -21.265  0.00  0.00    +0.004 C 
ATOM      6  C   UNL     1      32.178 -13.863 -21.747  0.00  0.00    +0.044 C 
ATOM      7  C   UNL     1      32.258 -11.417 -22.379  0.00  0.00    +0.000 C 
ATOM      8  C   UNL     1      31.689 -12.093 -20.022  0.00  0.00    +0.000 C 
BRANCH   2   9
ATOM      9  C   UNL     1      33.474 -13.517 -25.405  0.00  0.00    +0.003 C 
ATOM     10  C   UNL     1      32.712 -14.522 -26.265  0.00  0.00    +0.000 C 
ATOM     11  C   UNL     1      33.767 -12.245 -26.195  0.00  0.00    +0.000 C 
ENDBRANCH   2   9
ENDBRANCH   1   3
BRANCH   1  13
ATOM     12  O   UNL     1      34.958 -15.267 -20.749  0.00  0.00    -0.245 OA
ATOM     13  C   UNL     1      34.714 -15.336 -21.944  0.00  0.00    +0.342 C 
BRANCH  13  14
ATOM     14  C   UNL     1      34.807 -16.598 -22.722  0.00  0.00    +0.088 C 
ATOM     15  C   UNL     1      35.073 -17.793 -22.084  0.00  0.00    +0.048 C 
ATOM     16  C   UNL     1      34.619 -16.524 -24.089  0.00  0.00    +0.008 C 
ATOM     17  C   UNL     1      35.154 -18.961 -22.841  0.00  0.00    +0.014 C 
ATOM     18  C   UNL     1      34.700 -17.693 -24.846  0.00  0.00    +0.000 C 
ATOM     19  C   UNL     1      34.968 -18.912 -24.222  0.00  0.00    +0.001 C 
BRANCH  15  20
ATOM     20  N   UNL     1      35.265 -17.866 -20.686  0.00  0.00    -0.357 N 
ATOM     21  H   UNL     1      35.519 -18.720 -20.267  0.00  0.00    +0.142 HD
ATOM     22  H   UNL     1      35.145 -17.061 -20.130  0.00  0.00    +0.142 HD
ENDBRANCH  15  20
ENDBRANCH  13  14
ENDBRANCH   1  13
TORSDOF 5
ENDMDL
MODEL 6
REMARK VINA RESULT:      -7.5      1.594      3.588
REMARK  Name = 8633
REMARK  5 active torsions:
REMARK  status: ('A' for Active; 'I' for Inactive)
REMARK    1  A    between atoms: O_1  and  C_3
REMARK    2  A    between atoms: O_1  and  C_13
REMARK    3  A    between atoms: C_2  and  C_9
REMARK    4  A    between atoms: C_13  and  C_14
REMARK    5  A    between atoms: C_15  and  N_20
REMARK                            x       y       z     vdW  Elec       q    Type
REMARK                         _______ _______ _______ _____ _____    ______ ____
ROOT
ATOM      1  O   UNL     1      33.097 -12.491 -22.665  0.00  0.00    -0.449 OA
ENDROOT
BRANCH   1   3
ATOM      2  C   UNL     1      33.208 -14.896 -22.348  0.00  0.00    +0.040 C 
ATOM      3  C   UNL     1      32.394 -13.711 -22.895  0.00  0.00    +0.169 C 
ATOM      4  C   UNL     1      34.506 -15.094 -23.145  0.00  0.00    +0.004 C 
ATOM      5  C   UNL     1      33.422 -14.069 -25.196  0.00  0.00    +0.004 C 
ATOM      6  C   UNL     1      32.127 -13.866 -24.395  0.00  0.00    +0.044 C 
ATOM      7  C   UNL     1      34.229 -15.249 -24.639  0.00  0.00    +0.000 C 
ATOM      8  C   UNL     1      33.112 -14.280 -26.677  0.00  0.00    +0.000 C 
BRANCH   2   9
ATOM      9  C   UNL     1      33.523 -14.727 -20.860  0.00  0.00    +0.003 C 
ATOM     10  C   UNL     1      32.291 -15.038 -20.015  0.00  0.00    +0.000 C 
ATOM     11  C   UNL     1      34.694 -15.618 -20.458  0.00  0.00    +0.000 C 
ENDBRANCH   2   9
ENDBRANCH   1   3
BRANCH   1  13
ATOM     12  O   UNL     1      31.160 -11.277 -22.397  0.00  0.00    -0.245 OA
ATOM     13  C   UNL     1      32.344 -11.360 -22.684  0.00  0.00    +0.342 C 
BRANCH  13  14
ATOM     14  C   UNL     1      33.161 -10.196 -23.110  0.00  0.00    +0.088 C 
ATOM     15  C   UNL     1      32.964  -8.956 -22.535  0.00  0.00    +0.048 C 
ATOM     16  C   UNL     1      34.112 -10.404 -24.092  0.00  0.00    +0.008 C 
ATOM     17  C   UNL     1      33.747  -7.882 -22.956  0.00  0.00    +0.014 C 
ATOM     18  C   UNL     1      34.895  -9.329 -24.513  0.00  0.00    +0.000 C 
ATOM     19  C   UNL     1      34.712  -8.068 -23.946  0.00  0.00    +0.001 C 
BRANCH  15  20
ATOM     20  N   UNL     1      31.992  -8.746 -21.531  0.00  0.00    -0.357 N 
ATOM     21  H   UNL     1      31.045  -8.640 -21.778  0.00  0.00    +0.142 HD
ATOM     22  H   UNL     1      32.263  -8.707 -20.585  0.00  0.00    +0.142 HD
ENDBRANCH  15  20
ENDBRANCH  13  14
ENDBRANCH   1  13
TORSDOF 5
ENDMDL
MODEL 7
REMARK VINA RESULT:      -7.5      1.399      5.136
REMARK  Name = 8633
REMARK  5 active torsions:
REMARK  status: ('A' for Active; 'I' for Inactive)
REMARK    1  A    between atoms: O_1  and  C_3
REMARK    2  A    between atoms: O_1  and  C_13
REMARK    3  A    between atoms: C_2  and  C_9
REMARK    4  A    between atoms: C_13  and  C_14
REMARK    5  A    between atoms: C_15  and  N_20
REMARK                            x       y       z     vdW  Elec       q    Type
REMARK                         _______ _______ _______ _____ _____    ______ ____
ROOT
ATOM      1  O   UNL     1      32.869 -10.577 -22.783  0.00  0.00    -0.449 OA
ENDROOT
BRANCH   1   3
ATOM      2  C   UNL     1      33.930  -9.413 -24.632  0.00  0.00    +0.040 C 
ATOM      3  C   UNL     1      32.612  -9.736 -23.906  0.00  0.00    +0.169 C 
ATOM      4  C   UNL     1      34.847  -8.545 -23.757  0.00  0.00    +0.004 C 
ATOM      5  C   UNL     1      32.827  -7.585 -22.561  0.00  0.00    +0.004 C 
ATOM      6  C   UNL     1      31.911  -8.459 -23.433  0.00  0.00    +0.044 C 
ATOM      7  C   UNL     1      34.139  -7.274 -23.291  0.00  0.00    +0.000 C 
ATOM      8  C   UNL     1      32.115  -6.295 -22.159  0.00  0.00    +0.000 C 
BRANCH   2   9
ATOM      9  C   UNL     1      34.663 -10.684 -25.064  0.00  0.00    +0.003 C 
ATOM     10  C   UNL     1      33.700 -11.648 -25.752  0.00  0.00    +0.000 C 
ATOM     11  C   UNL     1      35.830 -10.340 -25.984  0.00  0.00    +0.000 C 
ENDBRANCH   2   9
ENDBRANCH   1   3
BRANCH   1  13
ATOM     12  O   UNL     1      30.663 -10.934 -22.229  0.00  0.00    -0.245 OA
ATOM     13  C   UNL     1      31.817 -11.317 -22.343  0.00  0.00    +0.342 C 
BRANCH  13  14
ATOM     14  C   UNL     1      32.254 -12.696 -22.005  0.00  0.00    +0.088 C 
ATOM     15  C   UNL     1      32.281 -13.117 -20.691  0.00  0.00    +0.048 C 
ATOM     16  C   UNL     1      32.627 -13.524 -23.047  0.00  0.00    +0.008 C 
ATOM     17  C   UNL     1      32.695 -14.417 -20.405  0.00  0.00    +0.014 C 
ATOM     18  C   UNL     1      33.042 -14.825 -22.760  0.00  0.00    +0.000 C 
ATOM     19  C   UNL     1      33.076 -15.272 -21.439  0.00  0.00    +0.001 C 
BRANCH  15  20
ATOM     20  N   UNL     1      31.899 -12.268 -19.628  0.00  0.00    -0.357 N 
ATOM     21  H   UNL     1      31.413 -11.433 -19.815  0.00  0.00    +0.142 HD
ATOM     22  H   UNL     1      32.118 -12.513 -18.699  0.00  0.00    +0.142 HD
ENDBRANCH  15  20
ENDBRANCH  13  14
ENDBRANCH   1  13
TORSDOF 5
ENDMDL
MODEL 8
REMARK VINA RESULT:      -7.4     10.065     13.303
REMARK  Name = 8633
REMARK  5 active torsions:
REMARK  status: ('A' for Active; 'I' for Inactive)
REMARK    1  A    between atoms: O_1  and  C_3
REMARK    2  A    between atoms: O_1  and  C_13
REMARK    3  A    between atoms: C_2  and  C_9
REMARK    4  A    between atoms: C_13  and  C_14
REMARK    5  A    between atoms: C_15  and  N_20
REMARK                            x       y       z     vdW  Elec       q    Type
REMARK                         _______ _______ _______ _____ _____    ______ ____
ROOT
ATOM      1  O   UNL     1      34.525 -23.321 -17.240  0.00  0.00    -0.449 OA
ENDROOT
BRANCH   1   3
ATOM      2  C   UNL     1      35.708 -23.334 -15.120  0.00  0.00    +0.040 C 
ATOM      3  C   UNL     1      34.605 -22.679 -15.969  0.00  0.00    +0.169 C 
ATOM      4  C   UNL     1      35.340 -24.779 -14.750  0.00  0.00    +0.004 C 
ATOM      5  C   UNL     1      32.874 -24.206 -14.896  0.00  0.00    +0.004 C 
ATOM      6  C   UNL     1      33.244 -22.763 -15.272  0.00  0.00    +0.044 C 
ATOM      7  C   UNL     1      33.982 -24.852 -14.055  0.00  0.00    +0.000 C 
ATOM      8  C   UNL     1      31.541 -24.244 -14.151  0.00  0.00    +0.000 C 
BRANCH   2   9
ATOM      9  C   UNL     1      37.063 -23.300 -15.829  0.00  0.00    +0.003 C 
ATOM     10  C   UNL     1      37.518 -21.858 -16.041  0.00  0.00    +0.000 C 
ATOM     11  C   UNL     1      38.103 -24.083 -15.032  0.00  0.00    +0.000 C 
ENDBRANCH   2   9
ENDBRANCH   1   3
BRANCH   1  13
ATOM     12  O   UNL     1      32.523 -22.879 -18.287  0.00  0.00    -0.245 OA
ATOM     13  C   UNL     1      33.727 -22.718 -18.160  0.00  0.00    +0.342 C 
BRANCH  13  14
ATOM     14  C   UNL     1      34.521 -21.807 -19.024  0.00  0.00    +0.088 C 
ATOM     15  C   UNL     1      33.893 -20.841 -19.784  0.00  0.00    +0.048 C 
ATOM     16  C   UNL     1      35.894 -21.968 -19.033  0.00  0.00    +0.008 C 
ATOM     17  C   UNL     1      34.666 -20.002 -20.585  0.00  0.00    +0.014 C 
ATOM     18  C   UNL     1      36.667 -21.127 -19.835  0.00  0.00    +0.000 C 
ATOM     19  C   UNL     1      36.053 -20.144 -20.611  0.00  0.00    +0.001 C 
BRANCH  15  20
ATOM     20  N   UNL     1      32.489 -20.679 -19.772  0.00  0.00    -0.357 N 
ATOM     21  H   UNL     1      31.912 -21.409 -19.450  0.00  0.00    +0.142 HD
ATOM     22  H   UNL     1      32.089 -19.836 -20.085  0.00  0.00    +0.142 HD
ENDBRANCH  15  20
ENDBRANCH  13  14
ENDBRANCH   1  13
TORSDOF 5
ENDMDL
MODEL 9
REMARK VINA RESULT:      -7.4      2.632      5.198
REMARK  Name = 8633
REMARK  5 active torsions:
REMARK  status: ('A' for Active; 'I' for Inactive)
REMARK    1  A    between atoms: O_1  and  C_3
REMARK    2  A    between atoms: O_1  and  C_13
REMARK    3  A    between atoms: C_2  and  C_9
REMARK    4  A    between atoms: C_13  and  C_14
REMARK    5  A    between atoms: C_15  and  N_20
REMARK                            x       y       z     vdW  Elec       q    Type
REMARK                         _______ _______ _______ _____ _____    ______ ____
ROOT
ATOM      1  O   UNL     1      33.018 -10.534 -22.759  0.00  0.00    -0.449 OA
ENDROOT
BRANCH   1   3
ATOM      2  C   UNL     1      31.654  -8.556 -22.411  0.00  0.00    +0.040 C 
ATOM      3  C   UNL     1      31.686 -10.091 -22.505  0.00  0.00    +0.169 C 
ATOM      4  C   UNL     1      32.420  -8.059 -21.175  0.00  0.00    +0.004 C 
ATOM      5  C   UNL     1      31.935 -10.241 -19.976  0.00  0.00    +0.004 C 
ATOM      6  C   UNL     1      31.174 -10.738 -21.215  0.00  0.00    +0.044 C 
ATOM      7  C   UNL     1      31.902  -8.709 -19.894  0.00  0.00    +0.000 C 
ATOM      8  C   UNL     1      31.358 -10.860 -18.705  0.00  0.00    +0.000 C 
BRANCH   2   9
ATOM      9  C   UNL     1      32.210  -7.899 -23.675  0.00  0.00    +0.003 C 
ATOM     10  C   UNL     1      31.164  -6.983 -24.305  0.00  0.00    +0.000 C 
ATOM     11  C   UNL     1      33.486  -7.125 -23.358  0.00  0.00    +0.000 C 
ENDBRANCH   2   9
ENDBRANCH   1   3
BRANCH   1  13
ATOM     12  O   UNL     1      32.637 -12.741 -23.291  0.00  0.00    -0.245 OA
ATOM     13  C   UNL     1      33.135 -11.651 -23.524  0.00  0.00    +0.342 C 
BRANCH  13  14
ATOM     14  C   UNL     1      33.973 -11.379 -24.720  0.00  0.00    +0.088 C 
ATOM     15  C   UNL     1      33.878 -12.185 -25.837  0.00  0.00    +0.048 C 
ATOM     16  C   UNL     1      34.837 -10.302 -24.667  0.00  0.00    +0.008 C 
ATOM     17  C   UNL     1      34.677 -11.904 -26.945  0.00  0.00    +0.014 C 
ATOM     18  C   UNL     1      35.637 -10.021 -25.775  0.00  0.00    +0.000 C 
ATOM     19  C   UNL     1      35.557 -10.823 -26.914  0.00  0.00    +0.001 C 
BRANCH  15  20
ATOM     20  N   UNL     1      32.993 -13.285 -25.889  0.00  0.00    -0.357 N 
ATOM     21  H   UNL     1      33.061 -13.937 -26.624  0.00  0.00    +0.142 HD
ATOM     22  H   UNL     1      32.310 -13.401 -25.190  0.00  0.00    +0.142 HD
ENDBRANCH  15  20
ENDBRANCH  13  14
ENDBRANCH   1  13
TORSDOF 5
ENDMDL
