MODEL 1
REMARK VINA RESULT:      -7.4      0.000      0.000
REMARK  Name = 25011727
REMARK  13 active torsions:
REMARK  status: ('A' for Active; 'I' for Inactive)
REMARK    1  A    between atoms: C_1  and  C_4
REMARK    2  A    between atoms: C_1  and  C_16
REMARK    3  A    between atoms: C_1  and  O_27
REMARK    4  A    between atoms: N_3  and  C_6
REMARK    5  A    between atoms: C_6  and  C_7
REMARK    6  A    between atoms: C_7  and  C_10
REMARK    7  A    between atoms: N_9  and  C_12
REMARK    8  A    between atoms: C_12  and  C_13
REMARK    9  A    between atoms: C_13  and  S_14
REMARK   10  A    between atoms: C_16  and  C_19
REMARK   11  A    between atoms: C_19  and  O_20
REMARK   12  A    between atoms: O_20  and  C_22
REMARK   13  A    between atoms: C_22  and  C_23
REMARK                            x       y       z     vdW  Elec       q    Type
REMARK                         _______ _______ _______ _____ _____    ______ ____
ROOT
ATOM      1  C   UNL     1      34.082 -23.797 -13.482  0.00  0.00    +0.190 C 
ENDROOT
BRANCH   1   4
ATOM      2  O   UNL     1      35.191 -25.070 -15.215  0.00  0.00    -0.272 OA
ATOM      3  N   UNL     1      35.976 -22.940 -14.735  0.00  0.00    -0.302 N 
ATOM      4  C   UNL     1      35.135 -24.027 -14.564  0.00  0.00    +0.249 C 
ATOM      5  H   UNL     1      35.846 -22.151 -14.161  0.00  0.00    +0.150 HD
BRANCH   3   6
ATOM      6  C   UNL     1      37.035 -22.910 -15.717  0.00  0.00    +0.099 C 
BRANCH   6   7
ATOM      7  C   UNL     1      36.934 -21.700 -16.636  0.00  0.00    +0.106 C 
BRANCH   7  10
ATOM      8  O   UNL     1      35.113 -22.724 -17.864  0.00  0.00    -0.275 OA
ATOM      9  N   UNL     1      36.464 -21.166 -18.934  0.00  0.00    -0.303 N 
ATOM     10  C   UNL     1      36.055 -21.936 -17.854  0.00  0.00    +0.224 C 
ATOM     11  H   UNL     1      37.234 -20.565 -18.818  0.00  0.00    +0.149 HD
BRANCH   9  12
ATOM     12  C   UNL     1      35.806 -21.209 -20.219  0.00  0.00    +0.101 C 
BRANCH  12  13
ATOM     13  C   UNL     1      35.062 -19.923 -20.551  0.00  0.00    +0.075 C 
BRANCH  13  14
ATOM     14  S   UNL     1      33.260 -20.166 -20.606  0.00  0.00    -0.166 S 
ATOM     15  H   UNL     1      32.988 -21.463 -20.915  0.00  0.00    +0.102 HD
ENDBRANCH  13  14
ENDBRANCH  12  13
ENDBRANCH   9  12
ENDBRANCH   7  10
ENDBRANCH   6   7
ENDBRANCH   3   6
ENDBRANCH   1   4
BRANCH   1  16
ATOM     16  C   UNL     1      32.613 -23.876 -13.992  0.00  0.00    +0.074 C 
ATOM     17  C   UNL     1      31.765 -22.841 -13.214  0.00  0.00    +0.007 C 
ATOM     18  C   UNL     1      32.007 -25.268 -13.721  0.00  0.00    +0.007 C 
BRANCH  16  19
ATOM     19  C   UNL     1      32.527 -23.555 -15.505  0.00  0.00    +0.211 C 
BRANCH  19  20
ATOM     20  O   UNL     1      31.307 -24.031 -16.061  0.00  0.00    -0.448 OA
BRANCH  20  22
ATOM     21  O   UNL     1      30.777 -22.146 -17.268  0.00  0.00    -0.250 OA
ATOM     22  C   UNL     1      30.451 -23.074 -16.538  0.00  0.00    +0.316 C 
BRANCH  22  23
ATOM     23  C   UNL     1      29.025 -23.319 -16.032  0.00  0.00    +0.090 C 
ATOM     24  C   UNL     1      28.968 -24.661 -15.292  0.00  0.00    +0.011 C 
ATOM     25  C   UNL     1      28.058 -23.365 -17.226  0.00  0.00    +0.011 C 
ATOM     26  C   UNL     1      28.609 -22.174 -15.098  0.00  0.00    +0.011 C 
ENDBRANCH  22  23
ENDBRANCH  20  22
ENDBRANCH  19  20
ENDBRANCH  16  19
ENDBRANCH   1  16
BRANCH   1  27
ATOM     27  O   UNL     1      34.299 -24.795 -12.488  0.00  0.00    -0.376 OA
ATOM     28  H   UNL     1      33.554 -25.416 -12.485  0.00  0.00    +0.211 HD
ENDBRANCH   1  27
TORSDOF 13
ENDMDL
MODEL 2
REMARK VINA RESULT:      -7.2      9.182     12.756
REMARK  Name = 25011727
REMARK  13 active torsions:
REMARK  status: ('A' for Active; 'I' for Inactive)
REMARK    1  A    between atoms: C_1  and  C_4
REMARK    2  A    between atoms: C_1  and  C_16
REMARK    3  A    between atoms: C_1  and  O_27
REMARK    4  A    between atoms: N_3  and  C_6
REMARK    5  A    between atoms: C_6  and  C_7
REMARK    6  A    between atoms: C_7  and  C_10
REMARK    7  A    between atoms: N_9  and  C_12
REMARK    8  A    between atoms: C_12  and  C_13
REMARK    9  A    between atoms: C_13  and  S_14
REMARK   10  A    between atoms: C_16  and  C_19
REMARK   11  A    between atoms: C_19  and  O_20
REMARK   12  A    between atoms: O_20  and  C_22
REMARK   13  A    between atoms: C_22  and  C_23
REMARK                            x       y       z     vdW  Elec       q    Type
REMARK                         _______ _______ _______ _____ _____    ______ ____
ROOT
ATOM      1  C   UNL     1      32.307 -13.759 -21.871  0.00  0.00    +0.190 C 
ENDROOT
BRANCH   1   4
ATOM      2  O   UNL     1      31.414 -11.609 -22.529  0.00  0.00    -0.272 OA
ATOM      3  N   UNL     1      31.680 -12.049 -20.266  0.00  0.00    -0.302 N 
ATOM      4  C   UNL     1      31.760 -12.356 -21.614  0.00  0.00    +0.249 C 
ATOM      5  H   UNL     1      31.983 -12.719 -19.613  0.00  0.00    +0.150 HD
BRANCH   3   6
ATOM      6  C   UNL     1      31.170 -10.790 -19.775  0.00  0.00    +0.099 C 
BRANCH   6   7
ATOM      7  C   UNL     1      32.285  -9.832 -19.380  0.00  0.00    +0.106 C 
BRANCH   7  10
ATOM      8  O   UNL     1      32.593  -7.447 -19.684  0.00  0.00    -0.275 OA
ATOM      9  N   UNL     1      31.843  -8.727 -21.471  0.00  0.00    -0.303 N 
ATOM     10  C   UNL     1      32.272  -8.530 -20.166  0.00  0.00    +0.224 C 
ATOM     11  H   UNL     1      31.609  -9.639 -21.757  0.00  0.00    +0.149 HD
BRANCH   9  12
ATOM     12  C   UNL     1      31.727  -7.651 -22.427  0.00  0.00    +0.101 C 
BRANCH  12  13
ATOM     13  C   UNL     1      32.586  -7.860 -23.667  0.00  0.00    +0.075 C 
BRANCH  13  14
ATOM     14  S   UNL     1      34.363  -7.720 -23.303  0.00  0.00    -0.166 S 
ATOM     15  H   UNL     1      34.613  -8.232 -22.067  0.00  0.00    +0.102 HD
ENDBRANCH  13  14
ENDBRANCH  12  13
ENDBRANCH   9  12
ENDBRANCH   7  10
ENDBRANCH   6   7
ENDBRANCH   3   6
ENDBRANCH   1   4
BRANCH   1  16
ATOM     16  C   UNL     1      33.405 -13.827 -22.972  0.00  0.00    +0.074 C 
ATOM     17  C   UNL     1      33.916 -12.392 -23.247  0.00  0.00    +0.007 C 
ATOM     18  C   UNL     1      32.830 -14.374 -24.294  0.00  0.00    +0.007 C 
BRANCH  16  19
ATOM     19  C   UNL     1      34.599 -14.703 -22.519  0.00  0.00    +0.211 C 
BRANCH  19  20
ATOM     20  O   UNL     1      34.221 -16.072 -22.421  0.00  0.00    -0.448 OA
BRANCH  20  22
ATOM     21  O   UNL     1      35.069 -16.285 -20.293  0.00  0.00    -0.250 OA
ATOM     22  C   UNL     1      34.765 -16.771 -21.375  0.00  0.00    +0.316 C 
BRANCH  22  23
ATOM     23  C   UNL     1      34.943 -18.248 -21.743  0.00  0.00    +0.090 C 
ATOM     24  C   UNL     1      36.294 -18.748 -21.214  0.00  0.00    +0.011 C 
ATOM     25  C   UNL     1      34.918 -18.401 -23.272  0.00  0.00    +0.011 C 
ATOM     26  C   UNL     1      33.795 -19.068 -21.141  0.00  0.00    +0.011 C 
ENDBRANCH  22  23
ENDBRANCH  20  22
ENDBRANCH  19  20
ENDBRANCH  16  19
ENDBRANCH   1  16
BRANCH   1  27
ATOM     27  O   UNL     1      32.841 -14.217 -20.631  0.00  0.00    -0.376 OA
ATOM     28  H   UNL     1      33.810 -14.188 -20.667  0.00  0.00    +0.211 HD
ENDBRANCH   1  27
TORSDOF 13
ENDMDL
MODEL 3
REMARK VINA RESULT:      -7.2      9.346     12.951
REMARK  Name = 25011727
REMARK  13 active torsions:
REMARK  status: ('A' for Active; 'I' for Inactive)
REMARK    1  A    between atoms: C_1  and  C_4
REMARK    2  A    between atoms: C_1  and  C_16
REMARK    3  A    between atoms: C_1  and  O_27
REMARK    4  A    between atoms: N_3  and  C_6
REMARK    5  A    between atoms: C_6  and  C_7
REMARK    6  A    between atoms: C_7  and  C_10
REMARK    7  A    between atoms: N_9  and  C_12
REMARK    8  A    between atoms: C_12  and  C_13
REMARK    9  A    between atoms: C_13  and  S_14
REMARK   10  A    between atoms: C_16  and  C_19
REMARK   11  A    between atoms: C_19  and  O_20
REMARK   12  A    between atoms: O_20  and  C_22
REMARK   13  A    between atoms: C_22  and  C_23
REMARK                            x       y       z     vdW  Elec       q    Type
REMARK                         _______ _______ _______ _____ _____    ______ ____
ROOT
ATOM      1  C   UNL     1      32.268 -14.329 -22.394  0.00  0.00    +0.190 C 
ENDROOT
BRANCH   1   4
ATOM      2  O   UNL     1      32.561 -13.055 -20.358  0.00  0.00    -0.272 OA
ATOM      3  N   UNL     1      31.269 -12.143 -22.056  0.00  0.00    -0.302 N 
ATOM      4  C   UNL     1      32.055 -13.126 -21.478  0.00  0.00    +0.249 C 
ATOM      5  H   UNL     1      30.912 -12.299 -22.960  0.00  0.00    +0.150 HD
BRANCH   3   6
ATOM      6  C   UNL     1      30.949 -10.900 -21.394  0.00  0.00    +0.099 C 
BRANCH   6   7
ATOM      7  C   UNL     1      32.020  -9.840 -21.610  0.00  0.00    +0.106 C 
BRANCH   7  10
ATOM      8  O   UNL     1      32.472  -9.710 -23.988  0.00  0.00    -0.275 OA
ATOM      9  N   UNL     1      31.306  -7.982 -22.962  0.00  0.00    -0.303 N 
ATOM     10  C   UNL     1      31.970  -9.201 -22.989  0.00  0.00    +0.224 C 
ATOM     11  H   UNL     1      30.940  -7.665 -22.106  0.00  0.00    +0.149 HD
BRANCH   9  12
ATOM     12  C   UNL     1      31.129  -7.162 -24.137  0.00  0.00    +0.101 C 
BRANCH  12  13
ATOM     13  C   UNL     1      31.286  -5.674 -23.855  0.00  0.00    +0.075 C 
BRANCH  13  14
ATOM     14  S   UNL     1      30.662  -5.217 -22.209  0.00  0.00    -0.166 S 
ATOM     15  H   UNL     1      30.443  -3.875 -22.164  0.00  0.00    +0.102 HD
ENDBRANCH  13  14
ENDBRANCH  12  13
ENDBRANCH   9  12
ENDBRANCH   7  10
ENDBRANCH   6   7
ENDBRANCH   3   6
ENDBRANCH   1   4
BRANCH   1  16
ATOM     16  C   UNL     1      33.615 -14.309 -23.175  0.00  0.00    +0.074 C 
ATOM     17  C   UNL     1      33.887 -12.860 -23.648  0.00  0.00    +0.007 C 
ATOM     18  C   UNL     1      33.539 -15.199 -24.431  0.00  0.00    +0.007 C 
BRANCH  16  19
ATOM     19  C   UNL     1      34.789 -14.769 -22.277  0.00  0.00    +0.211 C 
BRANCH  19  20
ATOM     20  O   UNL     1      35.057 -16.155 -22.455  0.00  0.00    -0.448 OA
BRANCH  20  22
ATOM     21  O   UNL     1      35.016 -16.470 -20.177  0.00  0.00    -0.250 OA
ATOM     22  C   UNL     1      35.058 -16.917 -21.316  0.00  0.00    +0.316 C 
BRANCH  22  23
ATOM     23  C   UNL     1      35.120 -18.410 -21.660  0.00  0.00    +0.090 C 
ATOM     24  C   UNL     1      33.886 -19.120 -21.088  0.00  0.00    +0.011 C 
ATOM     25  C   UNL     1      36.384 -19.026 -21.041  0.00  0.00    +0.011 C 
ATOM     26  C   UNL     1      35.177 -18.582 -23.184  0.00  0.00    +0.011 C 
ENDBRANCH  22  23
ENDBRANCH  20  22
ENDBRANCH  19  20
ENDBRANCH  16  19
ENDBRANCH   1  16
BRANCH   1  27
ATOM     27  O   UNL     1      32.214 -15.485 -21.561  0.00  0.00    -0.376 OA
ATOM     28  H   UNL     1      33.039 -15.987 -21.651  0.00  0.00    +0.211 HD
ENDBRANCH   1  27
TORSDOF 13
ENDMDL
MODEL 4
REMARK VINA RESULT:      -7.2      6.412      9.787
REMARK  Name = 25011727
REMARK  13 active torsions:
REMARK  status: ('A' for Active; 'I' for Inactive)
REMARK    1  A    between atoms: C_1  and  C_4
REMARK    2  A    between atoms: C_1  and  C_16
REMARK    3  A    between atoms: C_1  and  O_27
REMARK    4  A    between atoms: N_3  and  C_6
REMARK    5  A    between atoms: C_6  and  C_7
REMARK    6  A    between atoms: C_7  and  C_10
REMARK    7  A    between atoms: N_9  and  C_12
REMARK    8  A    between atoms: C_12  and  C_13
REMARK    9  A    between atoms: C_13  and  S_14
REMARK   10  A    between atoms: C_16  and  C_19
REMARK   11  A    between atoms: C_19  and  O_20
REMARK   12  A    between atoms: O_20  and  C_22
REMARK   13  A    between atoms: C_22  and  C_23
REMARK                            x       y       z     vdW  Elec       q    Type
REMARK                         _______ _______ _______ _____ _____    ______ ____
ROOT
ATOM      1  C   UNL     1      34.353 -17.021 -21.452  0.00  0.00    +0.190 C 
ENDROOT
BRANCH   1   4
ATOM      2  O   UNL     1      35.639 -15.945 -23.195  0.00  0.00    -0.272 OA
ATOM      3  N   UNL     1      33.402 -15.375 -22.961  0.00  0.00    -0.302 N 
ATOM      4  C   UNL     1      34.557 -16.059 -22.621  0.00  0.00    +0.249 C 
ATOM      5  H   UNL     1      32.586 -15.541 -22.436  0.00  0.00    +0.150 HD
BRANCH   3   6
ATOM      6  C   UNL     1      33.340 -14.429 -24.051  0.00  0.00    +0.099 C 
BRANCH   6   7
ATOM      7  C   UNL     1      33.538 -12.994 -23.580  0.00  0.00    +0.106 C 
BRANCH   7  10
ATOM      8  O   UNL     1      31.930 -13.276 -21.789  0.00  0.00    -0.275 OA
ATOM      9  N   UNL     1      32.212 -11.174 -22.735  0.00  0.00    -0.303 N 
ATOM     10  C   UNL     1      32.479 -12.529 -22.594  0.00  0.00    +0.224 C 
ATOM     11  H   UNL     1      32.710 -10.665 -23.414  0.00  0.00    +0.149 HD
BRANCH   9  12
ATOM     12  C   UNL     1      31.236 -10.480 -21.928  0.00  0.00    +0.101 C 
BRANCH  12  13
ATOM     13  C   UNL     1      31.846  -9.799 -20.710  0.00  0.00    +0.075 C 
BRANCH  13  14
ATOM     14  S   UNL     1      31.430 -10.658 -19.162  0.00  0.00    -0.166 S 
ATOM     15  H   UNL     1      32.469 -10.549 -18.290  0.00  0.00    +0.102 HD
ENDBRANCH  13  14
ENDBRANCH  12  13
ENDBRANCH   9  12
ENDBRANCH   7  10
ENDBRANCH   6   7
ENDBRANCH   3   6
ENDBRANCH   1   4
BRANCH   1  16
ATOM     16  C   UNL     1      34.690 -18.506 -21.778  0.00  0.00    +0.074 C 
ATOM     17  C   UNL     1      36.085 -18.834 -21.192  0.00  0.00    +0.007 C 
ATOM     18  C   UNL     1      34.762 -18.736 -23.301  0.00  0.00    +0.007 C 
BRANCH  16  19
ATOM     19  C   UNL     1      33.649 -19.467 -21.153  0.00  0.00    +0.211 C 
BRANCH  19  20
ATOM     20  O   UNL     1      34.288 -20.524 -20.445  0.00  0.00    -0.448 OA
BRANCH  20  22
ATOM     21  O   UNL     1      32.380 -20.853 -19.204  0.00  0.00    -0.250 OA
ATOM     22  C   UNL     1      33.519 -21.174 -19.516  0.00  0.00    +0.316 C 
BRANCH  22  23
ATOM     23  C   UNL     1      34.280 -22.362 -18.916  0.00  0.00    +0.090 C 
ATOM     24  C   UNL     1      33.573 -22.831 -17.639  0.00  0.00    +0.011 C 
ATOM     25  C   UNL     1      35.712 -21.927 -18.564  0.00  0.00    +0.011 C 
ATOM     26  C   UNL     1      34.345 -23.500 -19.942  0.00  0.00    +0.011 C 
ENDBRANCH  22  23
ENDBRANCH  20  22
ENDBRANCH  19  20
ENDBRANCH  16  19
ENDBRANCH   1  16
BRANCH   1  27
ATOM     27  O   UNL     1      35.192 -16.559 -20.397  0.00  0.00    -0.376 OA
ATOM     28  H   UNL     1      35.121 -15.594 -20.327  0.00  0.00    +0.211 HD
ENDBRANCH   1  27
TORSDOF 13
ENDMDL
MODEL 5
REMARK VINA RESULT:      -7.1      2.628      5.316
REMARK  Name = 25011727
REMARK  13 active torsions:
REMARK  status: ('A' for Active; 'I' for Inactive)
REMARK    1  A    between atoms: C_1  and  C_4
REMARK    2  A    between atoms: C_1  and  C_16
REMARK    3  A    between atoms: C_1  and  O_27
REMARK    4  A    between atoms: N_3  and  C_6
REMARK    5  A    between atoms: C_6  and  C_7
REMARK    6  A    between atoms: C_7  and  C_10
REMARK    7  A    between atoms: N_9  and  C_12
REMARK    8  A    between atoms: C_12  and  C_13
REMARK    9  A    between atoms: C_13  and  S_14
REMARK   10  A    between atoms: C_16  and  C_19
REMARK   11  A    between atoms: C_19  and  O_20
REMARK   12  A    between atoms: O_20  and  C_22
REMARK   13  A    between atoms: C_22  and  C_23
REMARK                            x       y       z     vdW  Elec       q    Type
REMARK                         _______ _______ _______ _____ _____    ______ ____
ROOT
ATOM      1  C   UNL     1      31.822 -23.584 -16.601  0.00  0.00    +0.190 C 
ENDROOT
BRANCH   1   4
ATOM      2  O   UNL     1      34.027 -23.999 -17.506  0.00  0.00    -0.272 OA
ATOM      3  N   UNL     1      32.756 -22.293 -18.433  0.00  0.00    -0.302 N 
ATOM      4  C   UNL     1      32.997 -23.327 -17.543  0.00  0.00    +0.249 C 
ATOM      5  H   UNL     1      31.896 -21.818 -18.379  0.00  0.00    +0.150 HD
BRANCH   3   6
ATOM      6  C   UNL     1      33.708 -21.882 -19.438  0.00  0.00    +0.099 C 
BRANCH   6   7
ATOM      7  C   UNL     1      33.314 -20.570 -20.102  0.00  0.00    +0.106 C 
BRANCH   7  10
ATOM      8  O   UNL     1      35.592 -19.753 -20.243  0.00  0.00    -0.275 OA
ATOM      9  N   UNL     1      34.123 -19.314 -21.988  0.00  0.00    -0.303 N 
ATOM     10  C   UNL     1      34.481 -19.849 -20.758  0.00  0.00    +0.224 C 
ATOM     11  H   UNL     1      33.203 -19.450 -22.310  0.00  0.00    +0.149 HD
BRANCH   9  12
ATOM     12  C   UNL     1      35.043 -18.569 -22.815  0.00  0.00    +0.101 C 
BRANCH  12  13
ATOM     13  C   UNL     1      34.757 -18.712 -24.304  0.00  0.00    +0.075 C 
BRANCH  13  14
ATOM     14  S   UNL     1      34.523 -17.102 -25.117  0.00  0.00    -0.166 S 
ATOM     15  H   UNL     1      33.611 -17.229 -26.119  0.00  0.00    +0.102 HD
ENDBRANCH  13  14
ENDBRANCH  12  13
ENDBRANCH   9  12
ENDBRANCH   7  10
ENDBRANCH   6   7
ENDBRANCH   3   6
ENDBRANCH   1   4
BRANCH   1  16
ATOM     16  C   UNL     1      32.196 -23.561 -15.090  0.00  0.00    +0.074 C 
ATOM     17  C   UNL     1      31.751 -24.900 -14.452  0.00  0.00    +0.007 C 
ATOM     18  C   UNL     1      31.454 -22.428 -14.353  0.00  0.00    +0.007 C 
BRANCH  16  19
ATOM     19  C   UNL     1      33.724 -23.400 -14.894  0.00  0.00    +0.211 C 
BRANCH  19  20
ATOM     20  O   UNL     1      34.245 -24.433 -14.065  0.00  0.00    -0.448 OA
BRANCH  20  22
ATOM     21  O   UNL     1      36.008 -25.123 -15.370  0.00  0.00    -0.250 OA
ATOM     22  C   UNL     1      35.552 -24.779 -14.288  0.00  0.00    +0.316 C 
BRANCH  22  23
ATOM     23  C   UNL     1      36.369 -24.680 -12.994  0.00  0.00    +0.090 C 
ATOM     24  C   UNL     1      35.419 -24.567 -11.796  0.00  0.00    +0.011 C 
ATOM     25  C   UNL     1      37.259 -23.427 -13.046  0.00  0.00    +0.011 C 
ATOM     26  C   UNL     1      37.262 -25.920 -12.856  0.00  0.00    +0.011 C 
ENDBRANCH  22  23
ENDBRANCH  20  22
ENDBRANCH  19  20
ENDBRANCH  16  19
ENDBRANCH   1  16
BRANCH   1  27
ATOM     27  O   UNL     1      30.858 -22.570 -16.872  0.00  0.00    -0.376 OA
ATOM     28  H   UNL     1      31.154 -21.731 -16.486  0.00  0.00    +0.211 HD
ENDBRANCH   1  27
TORSDOF 13
ENDMDL
MODEL 6
REMARK VINA RESULT:      -7.0      2.089      3.405
REMARK  Name = 25011727
REMARK  13 active torsions:
REMARK  status: ('A' for Active; 'I' for Inactive)
REMARK    1  A    between atoms: C_1  and  C_4
REMARK    2  A    between atoms: C_1  and  C_16
REMARK    3  A    between atoms: C_1  and  O_27
REMARK    4  A    between atoms: N_3  and  C_6
REMARK    5  A    between atoms: C_6  and  C_7
REMARK    6  A    between atoms: C_7  and  C_10
REMARK    7  A    between atoms: N_9  and  C_12
REMARK    8  A    between atoms: C_12  and  C_13
REMARK    9  A    between atoms: C_13  and  S_14
REMARK   10  A    between atoms: C_16  and  C_19
REMARK   11  A    between atoms: C_19  and  O_20
REMARK   12  A    between atoms: O_20  and  C_22
REMARK   13  A    between atoms: C_22  and  C_23
REMARK                            x       y       z     vdW  Elec       q    Type
REMARK                         _______ _______ _______ _____ _____    ______ ____
ROOT
ATOM      1  C   UNL     1      36.449 -23.103 -14.539  0.00  0.00    +0.190 C 
ENDROOT
BRANCH   1   4
ATOM      2  O   UNL     1      37.992 -22.628 -16.341  0.00  0.00    -0.272 OA
ATOM      3  N   UNL     1      35.719 -22.387 -16.740  0.00  0.00    -0.302 N 
ATOM      4  C   UNL     1      36.824 -22.677 -15.957  0.00  0.00    +0.249 C 
ATOM      5  H   UNL     1      34.825 -22.458 -16.335  0.00  0.00    +0.150 HD
BRANCH   3   6
ATOM      6  C   UNL     1      35.819 -21.986 -18.124  0.00  0.00    +0.099 C 
BRANCH   6   7
ATOM      7  C   UNL     1      34.580 -22.365 -18.924  0.00  0.00    +0.106 C 
BRANCH   7  10
ATOM      8  O   UNL     1      32.733 -20.894 -19.473  0.00  0.00    -0.275 OA
ATOM      9  N   UNL     1      34.818 -20.494 -20.418  0.00  0.00    -0.303 N 
ATOM     10  C   UNL     1      33.919 -21.181 -19.614  0.00  0.00    +0.224 C 
ATOM     11  H   UNL     1      35.748 -20.809 -20.460  0.00  0.00    +0.149 HD
BRANCH   9  12
ATOM     12  C   UNL     1      34.444 -19.335 -21.195  0.00  0.00    +0.101 C 
BRANCH  12  13
ATOM     13  C   UNL     1      35.487 -18.227 -21.152  0.00  0.00    +0.075 C 
BRANCH  13  14
ATOM     14  S   UNL     1      34.747 -16.577 -21.350  0.00  0.00    -0.166 S 
ATOM     15  H   UNL     1      34.396 -16.089 -20.129  0.00  0.00    +0.102 HD
ENDBRANCH  13  14
ENDBRANCH  12  13
ENDBRANCH   9  12
ENDBRANCH   7  10
ENDBRANCH   6   7
ENDBRANCH   3   6
ENDBRANCH   1   4
BRANCH   1  16
ATOM     16  C   UNL     1      36.110 -24.617 -14.395  0.00  0.00    +0.074 C 
ATOM     17  C   UNL     1      36.057 -24.967 -12.888  0.00  0.00    +0.007 C 
ATOM     18  C   UNL     1      37.205 -25.492 -15.036  0.00  0.00    +0.007 C 
BRANCH  16  19
ATOM     19  C   UNL     1      34.737 -24.945 -15.031  0.00  0.00    +0.211 C 
BRANCH  19  20
ATOM     20  O   UNL     1      33.815 -23.879 -14.838  0.00  0.00    -0.448 OA
BRANCH  20  22
ATOM     21  O   UNL     1      32.506 -24.811 -13.192  0.00  0.00    -0.250 OA
ATOM     22  C   UNL     1      32.621 -24.216 -14.256  0.00  0.00    +0.316 C 
BRANCH  22  23
ATOM     23  C   UNL     1      31.444 -23.748 -15.120  0.00  0.00    +0.090 C 
ATOM     24  C   UNL     1      30.724 -22.588 -14.421  0.00  0.00    +0.011 C 
ATOM     25  C   UNL     1      30.455 -24.909 -15.310  0.00  0.00    +0.011 C 
ATOM     26  C   UNL     1      31.962 -23.306 -16.495  0.00  0.00    +0.011 C 
ENDBRANCH  22  23
ENDBRANCH  20  22
ENDBRANCH  19  20
ENDBRANCH  16  19
ENDBRANCH   1  16
BRANCH   1  27
ATOM     27  O   UNL     1      37.564 -22.781 -13.712  0.00  0.00    -0.376 OA
ATOM     28  H   UNL     1      38.381 -22.850 -14.229  0.00  0.00    +0.211 HD
ENDBRANCH   1  27
TORSDOF 13
ENDMDL
MODEL 7
REMARK VINA RESULT:      -7.0      8.800     12.424
REMARK  Name = 25011727
REMARK  13 active torsions:
REMARK  status: ('A' for Active; 'I' for Inactive)
REMARK    1  A    between atoms: C_1  and  C_4
REMARK    2  A    between atoms: C_1  and  C_16
REMARK    3  A    between atoms: C_1  and  O_27
REMARK    4  A    between atoms: N_3  and  C_6
REMARK    5  A    between atoms: C_6  and  C_7
REMARK    6  A    between atoms: C_7  and  C_10
REMARK    7  A    between atoms: N_9  and  C_12
REMARK    8  A    between atoms: C_12  and  C_13
REMARK    9  A    between atoms: C_13  and  S_14
REMARK   10  A    between atoms: C_16  and  C_19
REMARK   11  A    between atoms: C_19  and  O_20
REMARK   12  A    between atoms: O_20  and  C_22
REMARK   13  A    between atoms: C_22  and  C_23
REMARK                            x       y       z     vdW  Elec       q    Type
REMARK                         _______ _______ _______ _____ _____    ______ ____
ROOT
ATOM      1  C   UNL     1      32.445 -13.900 -22.857  0.00  0.00    +0.190 C 
ENDROOT
BRANCH   1   4
ATOM      2  O   UNL     1      33.673 -13.908 -24.941  0.00  0.00    -0.272 OA
ATOM      3  N   UNL     1      33.531 -11.921 -23.750  0.00  0.00    -0.302 N 
ATOM      4  C   UNL     1      33.287 -13.268 -23.963  0.00  0.00    +0.249 C 
ATOM      5  H   UNL     1      33.176 -11.503 -22.932  0.00  0.00    +0.150 HD
BRANCH   3   6
ATOM      6  C   UNL     1      34.283 -11.102 -24.671  0.00  0.00    +0.099 C 
BRANCH   6   7
ATOM      7  C   UNL     1      34.428  -9.668 -24.180  0.00  0.00    +0.106 C 
BRANCH   7  10
ATOM      8  O   UNL     1      32.041  -9.482 -23.808  0.00  0.00    -0.275 OA
ATOM      9  N   UNL     1      33.490  -8.196 -22.525  0.00  0.00    -0.303 N 
ATOM     10  C   UNL     1      33.177  -9.130 -23.503  0.00  0.00    +0.224 C 
ATOM     11  H   UNL     1      34.436  -7.986 -22.360  0.00  0.00    +0.149 HD
BRANCH   9  12
ATOM     12  C   UNL     1      32.484  -7.522 -21.738  0.00  0.00    +0.101 C 
BRANCH  12  13
ATOM     13  C   UNL     1      32.587  -7.828 -20.250  0.00  0.00    +0.075 C 
BRANCH  13  14
ATOM     14  S   UNL     1      32.017  -9.509 -19.853  0.00  0.00    -0.166 S 
ATOM     15  H   UNL     1      33.088 -10.285 -19.530  0.00  0.00    +0.102 HD
ENDBRANCH  13  14
ENDBRANCH  12  13
ENDBRANCH   9  12
ENDBRANCH   7  10
ENDBRANCH   6   7
ENDBRANCH   3   6
ENDBRANCH   1   4
BRANCH   1  16
ATOM     16  C   UNL     1      33.262 -14.742 -21.833  0.00  0.00    +0.074 C 
ATOM     17  C   UNL     1      32.277 -15.378 -20.821  0.00  0.00    +0.007 C 
ATOM     18  C   UNL     1      34.234 -13.851 -21.034  0.00  0.00    +0.007 C 
BRANCH  16  19
ATOM     19  C   UNL     1      34.048 -15.873 -22.540  0.00  0.00    +0.211 C 
BRANCH  19  20
ATOM     20  O   UNL     1      33.761 -17.139 -21.956  0.00  0.00    -0.448 OA
BRANCH  20  22
ATOM     21  O   UNL     1      35.481 -17.058 -20.432  0.00  0.00    -0.250 OA
ATOM     22  C   UNL     1      34.757 -17.688 -21.192  0.00  0.00    +0.316 C 
BRANCH  22  23
ATOM     23  C   UNL     1      34.845 -19.201 -21.420  0.00  0.00    +0.090 C 
ATOM     24  C   UNL     1      36.124 -19.743 -20.768  0.00  0.00    +0.011 C 
ATOM     25  C   UNL     1      34.892 -19.490 -22.929  0.00  0.00    +0.011 C 
ATOM     26  C   UNL     1      33.608 -19.882 -20.820  0.00  0.00    +0.011 C 
ENDBRANCH  22  23
ENDBRANCH  20  22
ENDBRANCH  19  20
ENDBRANCH  16  19
ENDBRANCH   1  16
BRANCH   1  27
ATOM     27  O   UNL     1      31.792 -12.827 -22.183  0.00  0.00    -0.376 OA
ATOM     28  H   UNL     1      31.524 -13.117 -21.297  0.00  0.00    +0.211 HD
ENDBRANCH   1  27
TORSDOF 13
ENDMDL
MODEL 8
REMARK VINA RESULT:      -6.9      4.527      8.310
REMARK  Name = 25011727
REMARK  13 active torsions:
REMARK  status: ('A' for Active; 'I' for Inactive)
REMARK    1  A    between atoms: C_1  and  C_4
REMARK    2  A    between atoms: C_1  and  C_16
REMARK    3  A    between atoms: C_1  and  O_27
REMARK    4  A    between atoms: N_3  and  C_6
REMARK    5  A    between atoms: C_6  and  C_7
REMARK    6  A    between atoms: C_7  and  C_10
REMARK    7  A    between atoms: N_9  and  C_12
REMARK    8  A    between atoms: C_12  and  C_13
REMARK    9  A    between atoms: C_13  and  S_14
REMARK   10  A    between atoms: C_16  and  C_19
REMARK   11  A    between atoms: C_19  and  O_20
REMARK   12  A    between atoms: O_20  and  C_22
REMARK   13  A    between atoms: C_22  and  C_23
REMARK                            x       y       z     vdW  Elec       q    Type
REMARK                         _______ _______ _______ _____ _____    ______ ____
ROOT
ATOM      1  C   UNL     1      35.881 -20.080 -21.028  0.00  0.00    +0.190 C 
ENDROOT
BRANCH   1   4
ATOM      2  O   UNL     1      34.335 -21.651 -20.030  0.00  0.00    -0.272 OA
ATOM      3  N   UNL     1      36.250 -21.083 -18.848  0.00  0.00    -0.302 N 
ATOM      4  C   UNL     1      35.385 -21.017 -19.928  0.00  0.00    +0.249 C 
ATOM      5  H   UNL     1      37.067 -20.533 -18.867  0.00  0.00    +0.150 HD
BRANCH   3   6
ATOM      6  C   UNL     1      36.010 -21.921 -17.697  0.00  0.00    +0.099 C 
BRANCH   6   7
ATOM      7  C   UNL     1      37.118 -21.806 -16.660  0.00  0.00    +0.106 C 
BRANCH   7  10
ATOM      8  O   UNL     1      37.832 -22.932 -14.636  0.00  0.00    -0.275 OA
ATOM      9  N   UNL     1      35.876 -23.621 -15.683  0.00  0.00    -0.303 N 
ATOM     10  C   UNL     1      37.007 -22.829 -15.539  0.00  0.00    +0.224 C 
ATOM     11  H   UNL     1      35.278 -23.453 -16.446  0.00  0.00    +0.149 HD
BRANCH   9  12
ATOM     12  C   UNL     1      35.540 -24.678 -14.759  0.00  0.00    +0.101 C 
BRANCH  12  13
ATOM     13  C   UNL     1      36.336 -25.954 -14.999  0.00  0.00    +0.075 C 
BRANCH  13  14
ATOM     14  S   UNL     1      37.365 -26.401 -13.568  0.00  0.00    -0.166 S 
ATOM     15  H   UNL     1      37.691 -27.721 -13.639  0.00  0.00    +0.102 HD
ENDBRANCH  13  14
ENDBRANCH  12  13
ENDBRANCH   9  12
ENDBRANCH   7  10
ENDBRANCH   6   7
ENDBRANCH   3   6
ENDBRANCH   1   4
BRANCH   1  16
ATOM     16  C   UNL     1      34.862 -18.973 -21.433  0.00  0.00    +0.074 C 
ATOM     17  C   UNL     1      33.479 -19.336 -20.840  0.00  0.00    +0.007 C 
ATOM     18  C   UNL     1      34.704 -18.901 -22.965  0.00  0.00    +0.007 C 
BRANCH  16  19
ATOM     19  C   UNL     1      35.292 -17.590 -20.885  0.00  0.00    +0.211 C 
BRANCH  19  20
ATOM     20  O   UNL     1      34.705 -16.536 -21.641  0.00  0.00    -0.448 OA
BRANCH  20  22
ATOM     21  O   UNL     1      35.145 -14.815 -20.180  0.00  0.00    -0.250 OA
ATOM     22  C   UNL     1      34.386 -15.401 -20.941  0.00  0.00    +0.316 C 
BRANCH  22  23
ATOM     23  C   UNL     1      32.947 -14.966 -21.238  0.00  0.00    +0.090 C 
ATOM     24  C   UNL     1      32.775 -14.764 -22.749  0.00  0.00    +0.011 C 
ATOM     25  C   UNL     1      32.656 -13.638 -20.521  0.00  0.00    +0.011 C 
ATOM     26  C   UNL     1      31.972 -16.033 -20.725  0.00  0.00    +0.011 C 
ENDBRANCH  22  23
ENDBRANCH  20  22
ENDBRANCH  19  20
ENDBRANCH  16  19
ENDBRANCH   1  16
BRANCH   1  27
ATOM     27  O   UNL     1      37.075 -19.476 -20.536  0.00  0.00    -0.376 OA
ATOM     28  H   UNL     1      37.830 -19.776 -21.066  0.00  0.00    +0.211 HD
ENDBRANCH   1  27
TORSDOF 13
ENDMDL
MODEL 9
REMARK VINA RESULT:      -6.9      8.952     12.445
REMARK  Name = 25011727
REMARK  13 active torsions:
REMARK  status: ('A' for Active; 'I' for Inactive)
REMARK    1  A    between atoms: C_1  and  C_4
REMARK    2  A    between atoms: C_1  and  C_16
REMARK    3  A    between atoms: C_1  and  O_27
REMARK    4  A    between atoms: N_3  and  C_6
REMARK    5  A    between atoms: C_6  and  C_7
REMARK    6  A    between atoms: C_7  and  C_10
REMARK    7  A    between atoms: N_9  and  C_12
REMARK    8  A    between atoms: C_12  and  C_13
REMARK    9  A    between atoms: C_13  and  S_14
REMARK   10  A    between atoms: C_16  and  C_19
REMARK   11  A    between atoms: C_19  and  O_20
REMARK   12  A    between atoms: O_20  and  C_22
REMARK   13  A    between atoms: C_22  and  C_23
REMARK                            x       y       z     vdW  Elec       q    Type
REMARK                         _______ _______ _______ _____ _____    ______ ____
ROOT
ATOM      1  C   UNL     1      32.458 -13.922 -22.503  0.00  0.00    +0.190 C 
ENDROOT
BRANCH   1   4
ATOM      2  O   UNL     1      33.889 -13.730 -24.444  0.00  0.00    -0.272 OA
ATOM      3  N   UNL     1      33.307 -11.794 -23.304  0.00  0.00    -0.302 N 
ATOM      4  C   UNL     1      33.304 -13.162 -23.523  0.00  0.00    +0.249 C 
ATOM      5  H   UNL     1      32.804 -11.440 -22.536  0.00  0.00    +0.150 HD
BRANCH   3   6
ATOM      6  C   UNL     1      34.015 -10.864 -24.152  0.00  0.00    +0.099 C 
BRANCH   6   7
ATOM      7  C   UNL     1      33.475  -9.445 -24.027  0.00  0.00    +0.106 C 
BRANCH   7  10
ATOM      8  O   UNL     1      31.458  -9.839 -22.743  0.00  0.00    -0.275 OA
ATOM      9  N   UNL     1      33.042  -8.346 -21.932  0.00  0.00    -0.303 N 
ATOM     10  C   UNL     1      32.534  -9.257 -22.848  0.00  0.00    +0.224 C 
ATOM     11  H   UNL     1      33.917  -7.935 -22.113  0.00  0.00    +0.149 HD
BRANCH   9  12
ATOM     12  C   UNL     1      32.339  -7.977 -20.725  0.00  0.00    +0.101 C 
BRANCH  12  13
ATOM     13  C   UNL     1      32.004  -6.492 -20.662  0.00  0.00    +0.075 C 
BRANCH  13  14
ATOM     14  S   UNL     1      31.122  -5.923 -22.148  0.00  0.00    -0.166 S 
ATOM     15  H   UNL     1      31.554  -6.629 -23.229  0.00  0.00    +0.102 HD
ENDBRANCH  13  14
ENDBRANCH  12  13
ENDBRANCH   9  12
ENDBRANCH   7  10
ENDBRANCH   6   7
ENDBRANCH   3   6
ENDBRANCH   1   4
BRANCH   1  16
ATOM     16  C   UNL     1      33.279 -14.821 -21.533  0.00  0.00    +0.074 C 
ATOM     17  C   UNL     1      32.457 -15.026 -20.237  0.00  0.00    +0.007 C 
ATOM     18  C   UNL     1      34.605 -14.142 -21.137  0.00  0.00    +0.007 C 
BRANCH  16  19
ATOM     19  C   UNL     1      33.568 -16.206 -22.163  0.00  0.00    +0.211 C 
BRANCH  19  20
ATOM     20  O   UNL     1      33.518 -17.236 -21.182  0.00  0.00    -0.448 OA
BRANCH  20  22
ATOM     21  O   UNL     1      35.707 -17.403 -20.495  0.00  0.00    -0.250 OA
ATOM     22  C   UNL     1      34.691 -17.907 -20.956  0.00  0.00    +0.316 C 
BRANCH  22  23
ATOM     23  C   UNL     1      34.561 -19.379 -21.363  0.00  0.00    +0.090 C 
ATOM     24  C   UNL     1      33.169 -19.896 -20.978  0.00  0.00    +0.011 C 
ATOM     25  C   UNL     1      35.624 -20.210 -20.625  0.00  0.00    +0.011 C 
ATOM     26  C   UNL     1      34.784 -19.515 -22.875  0.00  0.00    +0.011 C 
ENDBRANCH  22  23
ENDBRANCH  20  22
ENDBRANCH  19  20
ENDBRANCH  16  19
ENDBRANCH   1  16
BRANCH   1  27
ATOM     27  O   UNL     1      31.743 -12.940 -21.758  0.00  0.00    -0.376 OA
ATOM     28  H   UNL     1      32.242 -12.108 -21.758  0.00  0.00    +0.211 HD
ENDBRANCH   1  27
TORSDOF 13
ENDMDL
