MODEL 1
REMARK VINA RESULT:      -9.2      0.000      0.000
REMARK  Name = 449243
REMARK  10 active torsions:
REMARK  status: ('A' for Active; 'I' for Inactive)
REMARK    1  A    between atoms: N_2  and  C_17
REMARK    2  A    between atoms: C_3  and  C_5
REMARK    3  A    between atoms: C_5  and  C_6
REMARK    4  A    between atoms: C_6  and  C_7
REMARK    5  A    between atoms: C_7  and  C_10
REMARK    6  A    between atoms: N_9  and  C_12
REMARK    7  A    between atoms: C_12  and  C_14
REMARK    8  A    between atoms: C_14  and  O_15
REMARK    9  A    between atoms: C_17  and  C_18
REMARK   10  A    between atoms: C_23  and  N_26
REMARK                            x       y       z     vdW  Elec       q    Type
REMARK                         _______ _______ _______ _____ _____    ______ ____
ROOT
ATOM      1  O   UNL     1      35.219 -15.906 -22.902  0.00  0.00    -0.275 OA
ATOM      2  N   UNL     1      35.048 -17.133 -20.940  0.00  0.00    -0.300 N 
ATOM      3  C   UNL     1      34.858 -16.010 -21.733  0.00  0.00    +0.223 C 
ATOM      4  H   UNL     1      34.722 -17.120 -20.011  0.00  0.00    +0.150 HD
ENDROOT
BRANCH   3   5
ATOM      5  C   UNL     1      34.165 -14.893 -20.969  0.00  0.00    +0.086 C 
BRANCH   5   6
ATOM      6  C   UNL     1      32.708 -14.676 -21.384  0.00  0.00    +0.019 C 
BRANCH   6   7
ATOM      7  C   UNL     1      32.435 -13.275 -21.934  0.00  0.00    +0.086 C 
BRANCH   7  10
ATOM      8  O   UNL     1      33.606 -12.007 -23.633  0.00  0.00    -0.275 OA
ATOM      9  N   UNL     1      32.815 -14.129 -24.151  0.00  0.00    -0.295 N 
ATOM     10  C   UNL     1      33.016 -13.037 -23.319  0.00  0.00    +0.223 C 
ATOM     11  H   UNL     1      32.327 -14.906 -23.793  0.00  0.00    +0.150 HD
BRANCH   9  12
ATOM     12  C   UNL     1      33.287 -14.184 -25.515  0.00  0.00    +0.200 C 
BRANCH  12  14
ATOM     13  O   UNL     1      32.456 -16.088 -26.733  0.00  0.00    -0.248 OA
ATOM     14  C   UNL     1      33.349 -15.589 -26.059  0.00  0.00    +0.334 C 
BRANCH  14  15
ATOM     15  O   UNL     1      34.486 -16.246 -25.729  0.00  0.00    -0.479 OA
ATOM     16  H   UNL     1      35.073 -15.878 -25.099  0.00  0.00    +0.295 HD
ENDBRANCH  14  15
ENDBRANCH  12  14
ENDBRANCH   9  12
ENDBRANCH   7  10
ENDBRANCH   6   7
ENDBRANCH   5   6
ENDBRANCH   3   5
BRANCH   2  17
ATOM     17  C   UNL     1      35.708 -18.319 -21.431  0.00  0.00    +0.116 C 
BRANCH  17  18
ATOM     18  C   UNL     1      35.212 -19.561 -20.747  0.00  0.00    -0.002 C 
ATOM     19  C   UNL     1      36.121 -20.457 -20.183  0.00  0.00    -0.001 C 
ATOM     20  C   UNL     1      33.843 -19.820 -20.676  0.00  0.00    -0.001 C 
ATOM     21  C   UNL     1      35.661 -21.610 -19.547  0.00  0.00    +0.024 C 
ATOM     22  C   UNL     1      33.383 -20.972 -20.040  0.00  0.00    +0.024 C 
ATOM     23  C   UNL     1      34.293 -21.868 -19.475  0.00  0.00    +0.143 C 
BRANCH  23  26
ATOM     24  O   UNL     1      33.347 -22.945 -17.669  0.00  0.00    -0.126 OA
ATOM     25  O   UNL     1      33.897 -24.139 -19.427  0.00  0.00    -0.126 OA
ATOM     26  N   UNL     1      33.823 -23.040 -18.827  0.00  0.00    +0.058 N 
ENDBRANCH  23  26
ENDBRANCH  17  18
ENDBRANCH   2  17
TORSDOF 10
ENDMDL
MODEL 2
REMARK VINA RESULT:      -9.1      4.513      9.244
REMARK  Name = 449243
REMARK  10 active torsions:
REMARK  status: ('A' for Active; 'I' for Inactive)
REMARK    1  A    between atoms: N_2  and  C_17
REMARK    2  A    between atoms: C_3  and  C_5
REMARK    3  A    between atoms: C_5  and  C_6
REMARK    4  A    between atoms: C_6  and  C_7
REMARK    5  A    between atoms: C_7  and  C_10
REMARK    6  A    between atoms: N_9  and  C_12
REMARK    7  A    between atoms: C_12  and  C_14
REMARK    8  A    between atoms: C_14  and  O_15
REMARK    9  A    between atoms: C_17  and  C_18
REMARK   10  A    between atoms: C_23  and  N_26
REMARK                            x       y       z     vdW  Elec       q    Type
REMARK                         _______ _______ _______ _____ _____    ______ ____
ROOT
ATOM      1  O   UNL     1      34.318 -23.800 -16.361  0.00  0.00    -0.275 OA
ATOM      2  N   UNL     1      32.967 -22.909 -18.024  0.00  0.00    -0.300 N 
ATOM      3  C   UNL     1      33.257 -23.301 -16.725  0.00  0.00    +0.223 C 
ATOM      4  H   UNL     1      32.085 -22.518 -18.218  0.00  0.00    +0.150 HD
ENDROOT
BRANCH   3   5
ATOM      5  C   UNL     1      32.080 -23.065 -15.792  0.00  0.00    +0.086 C 
BRANCH   5   6
ATOM      6  C   UNL     1      30.736 -22.947 -16.513  0.00  0.00    +0.019 C 
BRANCH   6   7
ATOM      7  C   UNL     1      29.600 -23.691 -15.809  0.00  0.00    +0.086 C 
BRANCH   7  10
ATOM      8  O   UNL     1      27.793 -24.245 -17.324  0.00  0.00    -0.275 OA
ATOM      9  N   UNL     1      27.584 -22.386 -15.946  0.00  0.00    -0.295 N 
ATOM     10  C   UNL     1      28.241 -23.493 -16.463  0.00  0.00    +0.223 C 
ATOM     11  H   UNL     1      28.040 -21.852 -15.255  0.00  0.00    +0.150 HD
BRANCH   9  12
ATOM     12  C   UNL     1      26.264 -21.979 -16.369  0.00  0.00    +0.200 C 
BRANCH  12  14
ATOM     13  O   UNL     1      26.210 -20.101 -17.875  0.00  0.00    -0.248 OA
ATOM     14  C   UNL     1      26.260 -21.316 -17.723  0.00  0.00    +0.334 C 
BRANCH  14  15
ATOM     15  O   UNL     1      26.315 -22.191 -18.754  0.00  0.00    -0.479 OA
ATOM     16  H   UNL     1      27.049 -22.766 -18.841  0.00  0.00    +0.295 HD
ENDBRANCH  14  15
ENDBRANCH  12  14
ENDBRANCH   9  12
ENDBRANCH   7  10
ENDBRANCH   6   7
ENDBRANCH   5   6
ENDBRANCH   3   5
BRANCH   2  17
ATOM     17  C   UNL     1      33.917 -23.056 -19.102  0.00  0.00    +0.116 C 
BRANCH  17  18
ATOM     18  C   UNL     1      34.296 -21.732 -19.701  0.00  0.00    -0.002 C 
ATOM     19  C   UNL     1      35.641 -21.391 -19.846  0.00  0.00    -0.001 C 
ATOM     20  C   UNL     1      33.303 -20.843 -20.113  0.00  0.00    -0.001 C 
ATOM     21  C   UNL     1      35.993 -20.162 -20.403  0.00  0.00    +0.024 C 
ATOM     22  C   UNL     1      33.655 -19.614 -20.671  0.00  0.00    +0.024 C 
ATOM     23  C   UNL     1      35.000 -19.274 -20.816  0.00  0.00    +0.143 C 
BRANCH  23  26
ATOM     24  O   UNL     1      35.217 -16.981 -20.698  0.00  0.00    -0.126 OA
ATOM     25  O   UNL     1      35.804 -17.991 -22.556  0.00  0.00    -0.126 OA
ATOM     26  N   UNL     1      35.358 -18.022 -21.385  0.00  0.00    +0.058 N 
ENDBRANCH  23  26
ENDBRANCH  17  18
ENDBRANCH   2  17
TORSDOF 10
ENDMDL
MODEL 3
REMARK VINA RESULT:      -9.1      4.306      9.754
REMARK  Name = 449243
REMARK  10 active torsions:
REMARK  status: ('A' for Active; 'I' for Inactive)
REMARK    1  A    between atoms: N_2  and  C_17
REMARK    2  A    between atoms: C_3  and  C_5
REMARK    3  A    between atoms: C_5  and  C_6
REMARK    4  A    between atoms: C_6  and  C_7
REMARK    5  A    between atoms: C_7  and  C_10
REMARK    6  A    between atoms: N_9  and  C_12
REMARK    7  A    between atoms: C_12  and  C_14
REMARK    8  A    between atoms: C_14  and  O_15
REMARK    9  A    between atoms: C_17  and  C_18
REMARK   10  A    between atoms: C_23  and  N_26
REMARK                            x       y       z     vdW  Elec       q    Type
REMARK                         _______ _______ _______ _____ _____    ______ ____
ROOT
ATOM      1  O   UNL     1      31.580 -22.742 -17.192  0.00  0.00    -0.275 OA
ATOM      2  N   UNL     1      33.828 -23.198 -17.544  0.00  0.00    -0.300 N 
ATOM      3  C   UNL     1      32.709 -22.959 -16.760  0.00  0.00    +0.223 C 
ATOM      4  H   UNL     1      34.693 -23.362 -17.103  0.00  0.00    +0.150 HD
ENDROOT
BRANCH   3   5
ATOM      5  C   UNL     1      33.048 -22.970 -15.278  0.00  0.00    +0.086 C 
BRANCH   5   6
ATOM      6  C   UNL     1      31.823 -22.896 -14.365  0.00  0.00    +0.019 C 
BRANCH   6   7
ATOM      7  C   UNL     1      31.340 -24.265 -13.883  0.00  0.00    +0.086 C 
BRANCH   7  10
ATOM      8  O   UNL     1      30.087 -26.096 -14.857  0.00  0.00    -0.275 OA
ATOM      9  N   UNL     1      29.531 -23.914 -15.430  0.00  0.00    -0.295 N 
ATOM     10  C   UNL     1      30.270 -24.884 -14.770  0.00  0.00    +0.223 C 
ATOM     11  H   UNL     1      29.766 -22.968 -15.285  0.00  0.00    +0.150 HD
BRANCH   9  12
ATOM     12  C   UNL     1      28.434 -24.221 -16.318  0.00  0.00    +0.200 C 
BRANCH  12  14
ATOM     13  O   UNL     1      27.102 -23.093 -17.978  0.00  0.00    -0.248 OA
ATOM     14  C   UNL     1      28.023 -23.047 -17.171  0.00  0.00    +0.334 C 
BRANCH  14  15
ATOM     15  O   UNL     1      28.771 -21.938 -16.961  0.00  0.00    -0.479 OA
ATOM     16  H   UNL     1      28.863 -21.300 -17.640  0.00  0.00    +0.295 HD
ENDBRANCH  14  15
ENDBRANCH  12  14
ENDBRANCH   9  12
ENDBRANCH   7  10
ENDBRANCH   6   7
ENDBRANCH   5   6
ENDBRANCH   3   5
BRANCH   2  17
ATOM     17  C   UNL     1      33.768 -23.214 -18.987  0.00  0.00    +0.116 C 
BRANCH  17  18
ATOM     18  C   UNL     1      34.257 -21.925 -19.583  0.00  0.00    -0.002 C 
ATOM     19  C   UNL     1      33.343 -20.996 -20.083  0.00  0.00    -0.001 C 
ATOM     20  C   UNL     1      35.625 -21.656 -19.639  0.00  0.00    -0.001 C 
ATOM     21  C   UNL     1      33.797 -19.799 -20.636  0.00  0.00    +0.024 C 
ATOM     22  C   UNL     1      36.078 -20.459 -20.192  0.00  0.00    +0.024 C 
ATOM     23  C   UNL     1      35.164 -19.530 -20.690  0.00  0.00    +0.143 C 
BRANCH  23  26
ATOM     24  O   UNL     1      35.350 -17.232 -20.674  0.00  0.00    -0.126 OA
ATOM     25  O   UNL     1      36.300 -18.346 -22.310  0.00  0.00    -0.126 OA
ATOM     26  N   UNL     1      35.627 -18.311 -21.252  0.00  0.00    +0.058 N 
ENDBRANCH  23  26
ENDBRANCH  17  18
ENDBRANCH   2  17
TORSDOF 10
ENDMDL
MODEL 4
REMARK VINA RESULT:      -9.0      5.055     11.243
REMARK  Name = 449243
REMARK  10 active torsions:
REMARK  status: ('A' for Active; 'I' for Inactive)
REMARK    1  A    between atoms: N_2  and  C_17
REMARK    2  A    between atoms: C_3  and  C_5
REMARK    3  A    between atoms: C_5  and  C_6
REMARK    4  A    between atoms: C_6  and  C_7
REMARK    5  A    between atoms: C_7  and  C_10
REMARK    6  A    between atoms: N_9  and  C_12
REMARK    7  A    between atoms: C_12  and  C_14
REMARK    8  A    between atoms: C_14  and  O_15
REMARK    9  A    between atoms: C_17  and  C_18
REMARK   10  A    between atoms: C_23  and  N_26
REMARK                            x       y       z     vdW  Elec       q    Type
REMARK                         _______ _______ _______ _____ _____    ______ ____
ROOT
ATOM      1  O   UNL     1      35.337 -24.638 -16.025  0.00  0.00    -0.275 OA
ATOM      2  N   UNL     1      33.676 -23.139 -16.639  0.00  0.00    -0.300 N 
ATOM      3  C   UNL     1      34.524 -23.764 -15.737  0.00  0.00    +0.223 C 
ATOM      4  H   UNL     1      33.056 -22.448 -16.310  0.00  0.00    +0.150 HD
ENDROOT
BRANCH   3   5
ATOM      5  C   UNL     1      34.310 -23.256 -14.320  0.00  0.00    +0.086 C 
BRANCH   5   6
ATOM      6  C   UNL     1      34.642 -24.287 -13.240  0.00  0.00    +0.019 C 
BRANCH   6   7
ATOM      7  C   UNL     1      36.032 -24.103 -12.628  0.00  0.00    +0.086 C 
BRANCH   7  10
ATOM      8  O   UNL     1      36.998 -26.254 -12.076  0.00  0.00    -0.275 OA
ATOM      9  N   UNL     1      37.710 -25.153 -13.994  0.00  0.00    -0.295 N 
ATOM     10  C   UNL     1      36.956 -25.292 -12.838  0.00  0.00    +0.223 C 
ATOM     11  H   UNL     1      37.595 -24.336 -14.532  0.00  0.00    +0.150 HD
BRANCH   9  12
ATOM     12  C   UNL     1      38.654 -26.148 -14.449  0.00  0.00    +0.200 C 
BRANCH  12  14
ATOM     13  O   UNL     1      40.622 -24.807 -14.095  0.00  0.00    -0.248 OA
ATOM     14  C   UNL     1      39.990 -25.561 -14.825  0.00  0.00    +0.334 C 
BRANCH  14  15
ATOM     15  O   UNL     1      40.426 -25.947 -16.047  0.00  0.00    -0.479 OA
ATOM     16  H   UNL     1      41.292 -26.288 -16.150  0.00  0.00    +0.295 HD
ENDBRANCH  14  15
ENDBRANCH  12  14
ENDBRANCH   9  12
ENDBRANCH   7  10
ENDBRANCH   6   7
ENDBRANCH   5   6
ENDBRANCH   3   5
BRANCH   2  17
ATOM     17  C   UNL     1      33.670 -23.468 -18.045  0.00  0.00    +0.116 C 
BRANCH  17  18
ATOM     18  C   UNL     1      34.033 -22.287 -18.899  0.00  0.00    -0.002 C 
ATOM     19  C   UNL     1      35.374 -21.970 -19.118  0.00  0.00    -0.001 C 
ATOM     20  C   UNL     1      33.030 -21.507 -19.475  0.00  0.00    -0.001 C 
ATOM     21  C   UNL     1      35.711 -20.875 -19.913  0.00  0.00    +0.024 C 
ATOM     22  C   UNL     1      33.367 -20.412 -20.269  0.00  0.00    +0.024 C 
ATOM     23  C   UNL     1      34.708 -20.096 -20.489  0.00  0.00    +0.143 C 
BRANCH  23  26
ATOM     24  O   UNL     1      34.541 -18.882 -22.441  0.00  0.00    -0.126 OA
ATOM     25  O   UNL     1      35.852 -18.126 -20.851  0.00  0.00    -0.126 OA
ATOM     26  N   UNL     1      35.051 -18.981 -21.299  0.00  0.00    +0.058 N 
ENDBRANCH  23  26
ENDBRANCH  17  18
ENDBRANCH   2  17
TORSDOF 10
ENDMDL
MODEL 5
REMARK VINA RESULT:      -9.0      3.975     10.529
REMARK  Name = 449243
REMARK  10 active torsions:
REMARK  status: ('A' for Active; 'I' for Inactive)
REMARK    1  A    between atoms: N_2  and  C_17
REMARK    2  A    between atoms: C_3  and  C_5
REMARK    3  A    between atoms: C_5  and  C_6
REMARK    4  A    between atoms: C_6  and  C_7
REMARK    5  A    between atoms: C_7  and  C_10
REMARK    6  A    between atoms: N_9  and  C_12
REMARK    7  A    between atoms: C_12  and  C_14
REMARK    8  A    between atoms: C_14  and  O_15
REMARK    9  A    between atoms: C_17  and  C_18
REMARK   10  A    between atoms: C_23  and  N_26
REMARK                            x       y       z     vdW  Elec       q    Type
REMARK                         _______ _______ _______ _____ _____    ______ ____
ROOT
ATOM      1  O   UNL     1      34.441 -23.786 -16.917  0.00  0.00    -0.275 OA
ATOM      2  N   UNL     1      33.117 -22.719 -18.496  0.00  0.00    -0.300 N 
ATOM      3  C   UNL     1      33.378 -23.270 -17.250  0.00  0.00    +0.223 C 
ATOM      4  H   UNL     1      32.231 -22.327 -18.667  0.00  0.00    +0.150 HD
ENDROOT
BRANCH   3   5
ATOM      5  C   UNL     1      32.167 -23.186 -16.334  0.00  0.00    +0.086 C 
BRANCH   5   6
ATOM      6  C   UNL     1      32.524 -22.985 -14.860  0.00  0.00    +0.019 C 
BRANCH   6   7
ATOM      7  C   UNL     1      32.718 -24.296 -14.096  0.00  0.00    +0.086 C 
BRANCH   7  10
ATOM      8  O   UNL     1      34.427 -24.105 -12.390  0.00  0.00    -0.275 OA
ATOM      9  N   UNL     1      34.962 -25.100 -14.420  0.00  0.00    -0.295 N 
ATOM     10  C   UNL     1      34.116 -24.468 -13.521  0.00  0.00    +0.223 C 
ATOM     11  H   UNL     1      34.605 -25.349 -15.303  0.00  0.00    +0.150 HD
BRANCH   9  12
ATOM     12  C   UNL     1      36.342 -25.413 -14.125  0.00  0.00    +0.200 C 
BRANCH  12  14
ATOM     13  O   UNL     1      36.293 -26.964 -15.966  0.00  0.00    -0.248 OA
ATOM     14  C   UNL     1      36.898 -26.503 -15.005  0.00  0.00    +0.334 C 
BRANCH  14  15
ATOM     15  O   UNL     1      38.129 -26.924 -14.631  0.00  0.00    -0.479 OA
ATOM     16  H   UNL     1      38.219 -27.677 -14.081  0.00  0.00    +0.295 HD
ENDBRANCH  14  15
ENDBRANCH  12  14
ENDBRANCH   9  12
ENDBRANCH   7  10
ENDBRANCH   6   7
ENDBRANCH   5   6
ENDBRANCH   3   5
BRANCH   2  17
ATOM     17  C   UNL     1      34.103 -22.700 -19.551  0.00  0.00    +0.116 C 
BRANCH  17  18
ATOM     18  C   UNL     1      34.367 -21.309 -20.049  0.00  0.00    -0.002 C 
ATOM     19  C   UNL     1      35.679 -20.864 -20.214  0.00  0.00    -0.001 C 
ATOM     20  C   UNL     1      33.301 -20.460 -20.347  0.00  0.00    -0.001 C 
ATOM     21  C   UNL     1      35.925 -19.572 -20.677  0.00  0.00    +0.024 C 
ATOM     22  C   UNL     1      33.546 -19.168 -20.810  0.00  0.00    +0.024 C 
ATOM     23  C   UNL     1      34.859 -18.724 -20.976  0.00  0.00    +0.143 C 
BRANCH  23  26
ATOM     24  O   UNL     1      35.076 -16.454 -20.634  0.00  0.00    -0.126 OA
ATOM     25  O   UNL     1      35.353 -17.235 -22.667  0.00  0.00    -0.126 OA
ATOM     26  N   UNL     1      35.108 -17.408 -21.449  0.00  0.00    +0.058 N 
ENDBRANCH  23  26
ENDBRANCH  17  18
ENDBRANCH   2  17
TORSDOF 10
ENDMDL
MODEL 6
REMARK VINA RESULT:      -9.0      4.097      9.429
REMARK  Name = 449243
REMARK  10 active torsions:
REMARK  status: ('A' for Active; 'I' for Inactive)
REMARK    1  A    between atoms: N_2  and  C_17
REMARK    2  A    between atoms: C_3  and  C_5
REMARK    3  A    between atoms: C_5  and  C_6
REMARK    4  A    between atoms: C_6  and  C_7
REMARK    5  A    between atoms: C_7  and  C_10
REMARK    6  A    between atoms: N_9  and  C_12
REMARK    7  A    between atoms: C_12  and  C_14
REMARK    8  A    between atoms: C_14  and  O_15
REMARK    9  A    between atoms: C_17  and  C_18
REMARK   10  A    between atoms: C_23  and  N_26
REMARK                            x       y       z     vdW  Elec       q    Type
REMARK                         _______ _______ _______ _____ _____    ______ ____
ROOT
ATOM      1  O   UNL     1      34.581 -23.653 -16.801  0.00  0.00    -0.275 OA
ATOM      2  N   UNL     1      33.666 -22.437 -18.553  0.00  0.00    -0.300 N 
ATOM      3  C   UNL     1      33.616 -23.134 -17.354  0.00  0.00    +0.223 C 
ATOM      4  H   UNL     1      32.835 -22.056 -18.918  0.00  0.00    +0.150 HD
ENDROOT
BRANCH   3   5
ATOM      5  C   UNL     1      32.200 -23.206 -16.806  0.00  0.00    +0.086 C 
BRANCH   5   6
ATOM      6  C   UNL     1      32.133 -23.565 -15.320  0.00  0.00    +0.019 C 
BRANCH   6   7
ATOM      7  C   UNL     1      30.985 -22.877 -14.579  0.00  0.00    +0.086 C 
BRANCH   7  10
ATOM      8  O   UNL     1      29.277 -24.512 -15.104  0.00  0.00    -0.275 OA
ATOM      9  N   UNL     1      28.781 -22.252 -15.316  0.00  0.00    -0.295 N 
ATOM     10  C   UNL     1      29.605 -23.331 -15.030  0.00  0.00    +0.223 C 
ATOM     11  H   UNL     1      29.151 -21.344 -15.222  0.00  0.00    +0.150 HD
BRANCH   9  12
ATOM     12  C   UNL     1      27.409 -22.395 -15.743  0.00  0.00    +0.200 C 
BRANCH  12  14
ATOM     13  O   UNL     1      27.574 -23.202 -18.005  0.00  0.00    -0.248 OA
ATOM     14  C   UNL     1      27.247 -22.304 -17.239  0.00  0.00    +0.334 C 
BRANCH  14  15
ATOM     15  O   UNL     1      26.706 -21.135 -17.655  0.00  0.00    -0.479 OA
ATOM     16  H   UNL     1      27.185 -20.579 -18.238  0.00  0.00    +0.295 HD
ENDBRANCH  14  15
ENDBRANCH  12  14
ENDBRANCH   9  12
ENDBRANCH   7  10
ENDBRANCH   6   7
ENDBRANCH   5   6
ENDBRANCH   3   5
BRANCH   2  17
ATOM     17  C   UNL     1      34.897 -22.252 -19.284  0.00  0.00    +0.116 C 
BRANCH  17  18
ATOM     18  C   UNL     1      34.928 -20.937 -20.009  0.00  0.00    -0.002 C 
ATOM     19  C   UNL     1      36.149 -20.321 -20.284  0.00  0.00    -0.001 C 
ATOM     20  C   UNL     1      33.736 -20.331 -20.407  0.00  0.00    -0.001 C 
ATOM     21  C   UNL     1      36.178 -19.100 -20.958  0.00  0.00    +0.024 C 
ATOM     22  C   UNL     1      33.765 -19.111 -21.081  0.00  0.00    +0.024 C 
ATOM     23  C   UNL     1      34.987 -18.495 -21.357  0.00  0.00    +0.143 C 
BRANCH  23  26
ATOM     24  O   UNL     1      35.026 -17.253 -23.299  0.00  0.00    -0.126 OA
ATOM     25  O   UNL     1      35.029 -16.189 -21.378  0.00  0.00    -0.126 OA
ATOM     26  N   UNL     1      35.015 -17.253 -22.043  0.00  0.00    +0.058 N 
ENDBRANCH  23  26
ENDBRANCH  17  18
ENDBRANCH   2  17
TORSDOF 10
ENDMDL
MODEL 7
REMARK VINA RESULT:      -8.9      4.607     10.835
REMARK  Name = 449243
REMARK  10 active torsions:
REMARK  status: ('A' for Active; 'I' for Inactive)
REMARK    1  A    between atoms: N_2  and  C_17
REMARK    2  A    between atoms: C_3  and  C_5
REMARK    3  A    between atoms: C_5  and  C_6
REMARK    4  A    between atoms: C_6  and  C_7
REMARK    5  A    between atoms: C_7  and  C_10
REMARK    6  A    between atoms: N_9  and  C_12
REMARK    7  A    between atoms: C_12  and  C_14
REMARK    8  A    between atoms: C_14  and  O_15
REMARK    9  A    between atoms: C_17  and  C_18
REMARK   10  A    between atoms: C_23  and  N_26
REMARK                            x       y       z     vdW  Elec       q    Type
REMARK                         _______ _______ _______ _____ _____    ______ ____
ROOT
ATOM      1  O   UNL     1      32.264 -23.377 -16.178  0.00  0.00    -0.275 OA
ATOM      2  N   UNL     1      33.993 -22.909 -17.653  0.00  0.00    -0.300 N 
ATOM      3  C   UNL     1      33.460 -23.351 -16.450  0.00  0.00    +0.223 C 
ATOM      4  H   UNL     1      34.969 -22.926 -17.777  0.00  0.00    +0.150 HD
ENDROOT
BRANCH   3   5
ATOM      5  C   UNL     1      34.549 -23.780 -15.479  0.00  0.00    +0.086 C 
BRANCH   5   6
ATOM      6  C   UNL     1      35.577 -22.686 -15.184  0.00  0.00    +0.019 C 
BRANCH   6   7
ATOM      7  C   UNL     1      36.993 -23.043 -15.639  0.00  0.00    +0.086 C 
BRANCH   7  10
ATOM      8  O   UNL     1      37.920 -23.537 -13.457  0.00  0.00    -0.275 OA
ATOM      9  N   UNL     1      38.253 -25.043 -15.194  0.00  0.00    -0.295 N 
ATOM     10  C   UNL     1      37.770 -23.872 -14.628  0.00  0.00    +0.223 C 
ATOM     11  H   UNL     1      38.073 -25.211 -16.147  0.00  0.00    +0.150 HD
BRANCH   9  12
ATOM     12  C   UNL     1      39.006 -26.029 -14.453  0.00  0.00    +0.200 C 
BRANCH  12  14
ATOM     13  O   UNL     1      40.984 -24.710 -14.837  0.00  0.00    -0.248 OA
ATOM     14  C   UNL     1      40.491 -25.772 -14.475  0.00  0.00    +0.334 C 
BRANCH  14  15
ATOM     15  O   UNL     1      41.229 -26.828 -14.059  0.00  0.00    -0.479 OA
ATOM     16  H   UNL     1      41.893 -27.184 -14.616  0.00  0.00    +0.295 HD
ENDBRANCH  14  15
ENDBRANCH  12  14
ENDBRANCH   9  12
ENDBRANCH   7  10
ENDBRANCH   6   7
ENDBRANCH   5   6
ENDBRANCH   3   5
BRANCH   2  17
ATOM     17  C   UNL     1      33.162 -22.425 -18.730  0.00  0.00    +0.116 C 
BRANCH  17  18
ATOM     18  C   UNL     1      33.852 -21.365 -19.539  0.00  0.00    -0.002 C 
ATOM     19  C   UNL     1      33.100 -20.439 -20.264  0.00  0.00    -0.001 C 
ATOM     20  C   UNL     1      35.246 -21.305 -19.566  0.00  0.00    -0.001 C 
ATOM     21  C   UNL     1      33.741 -19.454 -21.014  0.00  0.00    +0.024 C 
ATOM     22  C   UNL     1      35.887 -20.319 -20.317  0.00  0.00    +0.024 C 
ATOM     23  C   UNL     1      35.134 -19.393 -21.040  0.00  0.00    +0.143 C 
BRANCH  23  26
ATOM     24  O   UNL     1      37.012 -18.517 -22.051  0.00  0.00    -0.126 OA
ATOM     25  O   UNL     1      35.125 -17.405 -22.209  0.00  0.00    -0.126 OA
ATOM     26  N   UNL     1      35.788 -18.390 -21.803  0.00  0.00    +0.058 N 
ENDBRANCH  23  26
ENDBRANCH  17  18
ENDBRANCH   2  17
TORSDOF 10
ENDMDL
MODEL 8
REMARK VINA RESULT:      -8.8      1.535      2.229
REMARK  Name = 449243
REMARK  10 active torsions:
REMARK  status: ('A' for Active; 'I' for Inactive)
REMARK    1  A    between atoms: N_2  and  C_17
REMARK    2  A    between atoms: C_3  and  C_5
REMARK    3  A    between atoms: C_5  and  C_6
REMARK    4  A    between atoms: C_6  and  C_7
REMARK    5  A    between atoms: C_7  and  C_10
REMARK    6  A    between atoms: N_9  and  C_12
REMARK    7  A    between atoms: C_12  and  C_14
REMARK    8  A    between atoms: C_14  and  O_15
REMARK    9  A    between atoms: C_17  and  C_18
REMARK   10  A    between atoms: C_23  and  N_26
REMARK                            x       y       z     vdW  Elec       q    Type
REMARK                         _______ _______ _______ _____ _____    ______ ____
ROOT
ATOM      1  O   UNL     1      35.165 -15.967 -20.145  0.00  0.00    -0.275 OA
ATOM      2  N   UNL     1      33.931 -17.287 -21.601  0.00  0.00    -0.300 N 
ATOM      3  C   UNL     1      34.129 -16.201 -20.760  0.00  0.00    +0.223 C 
ATOM      4  H   UNL     1      33.061 -17.389 -22.050  0.00  0.00    +0.150 HD
ENDROOT
BRANCH   3   5
ATOM      5  C   UNL     1      32.884 -15.333 -20.661  0.00  0.00    +0.086 C 
BRANCH   5   6
ATOM      6  C   UNL     1      32.591 -14.532 -21.931  0.00  0.00    +0.019 C 
BRANCH   6   7
ATOM      7  C   UNL     1      33.836 -14.248 -22.772  0.00  0.00    +0.086 C 
BRANCH   7  10
ATOM      8  O   UNL     1      34.411 -15.969 -24.376  0.00  0.00    -0.275 OA
ATOM      9  N   UNL     1      33.045 -14.212 -25.044  0.00  0.00    -0.295 N 
ATOM     10  C   UNL     1      33.820 -14.920 -24.137  0.00  0.00    +0.223 C 
ATOM     11  H   UNL     1      32.615 -13.379 -24.742  0.00  0.00    +0.150 HD
BRANCH   9  12
ATOM     12  C   UNL     1      32.835 -14.638 -26.408  0.00  0.00    +0.200 C 
BRANCH  12  14
ATOM     13  O   UNL     1      34.289 -13.343 -27.826  0.00  0.00    -0.248 OA
ATOM     14  C   UNL     1      33.156 -13.562 -27.415  0.00  0.00    +0.334 C 
BRANCH  14  15
ATOM     15  O   UNL     1      32.071 -12.861 -27.820  0.00  0.00    -0.479 OA
ATOM     16  H   UNL     1      31.726 -12.178 -27.278  0.00  0.00    +0.295 HD
ENDBRANCH  14  15
ENDBRANCH  12  14
ENDBRANCH   9  12
ENDBRANCH   7  10
ENDBRANCH   6   7
ENDBRANCH   5   6
ENDBRANCH   3   5
BRANCH   2  17
ATOM     17  C   UNL     1      34.959 -18.272 -21.839  0.00  0.00    +0.116 C 
BRANCH  17  18
ATOM     18  C   UNL     1      34.799 -19.476 -20.955  0.00  0.00    -0.002 C 
ATOM     19  C   UNL     1      33.523 -19.942 -20.634  0.00  0.00    -0.001 C 
ATOM     20  C   UNL     1      35.926 -20.129 -20.455  0.00  0.00    -0.001 C 
ATOM     21  C   UNL     1      33.375 -21.060 -19.814  0.00  0.00    +0.024 C 
ATOM     22  C   UNL     1      35.777 -21.247 -19.636  0.00  0.00    +0.024 C 
ATOM     23  C   UNL     1      34.501 -21.713 -19.315  0.00  0.00    +0.143 C 
BRANCH  23  26
ATOM     24  O   UNL     1      33.659 -23.817 -18.890  0.00  0.00    -0.126 OA
ATOM     25  O   UNL     1      34.914 -22.865 -17.361  0.00  0.00    -0.126 OA
ATOM     26  N   UNL     1      34.351 -22.853 -18.481  0.00  0.00    +0.058 N 
ENDBRANCH  23  26
ENDBRANCH  17  18
ENDBRANCH   2  17
TORSDOF 10
ENDMDL
MODEL 9
REMARK VINA RESULT:      -8.8      2.181      3.842
REMARK  Name = 449243
REMARK  10 active torsions:
REMARK  status: ('A' for Active; 'I' for Inactive)
REMARK    1  A    between atoms: N_2  and  C_17
REMARK    2  A    between atoms: C_3  and  C_5
REMARK    3  A    between atoms: C_5  and  C_6
REMARK    4  A    between atoms: C_6  and  C_7
REMARK    5  A    between atoms: C_7  and  C_10
REMARK    6  A    between atoms: N_9  and  C_12
REMARK    7  A    between atoms: C_12  and  C_14
REMARK    8  A    between atoms: C_14  and  O_15
REMARK    9  A    between atoms: C_17  and  C_18
REMARK   10  A    between atoms: C_23  and  N_26
REMARK                            x       y       z     vdW  Elec       q    Type
REMARK                         _______ _______ _______ _____ _____    ______ ____
ROOT
ATOM      1  O   UNL     1      35.310 -15.899 -23.145  0.00  0.00    -0.275 OA
ATOM      2  N   UNL     1      35.005 -17.113 -21.191  0.00  0.00    -0.300 N 
ATOM      3  C   UNL     1      34.991 -15.959 -21.961  0.00  0.00    +0.223 C 
ATOM      4  H   UNL     1      34.731 -17.059 -20.247  0.00  0.00    +0.150 HD
ENDROOT
BRANCH   3   5
ATOM      5  C   UNL     1      34.554 -14.749 -21.151  0.00  0.00    +0.086 C 
BRANCH   5   6
ATOM      6  C   UNL     1      33.043 -14.673 -20.925  0.00  0.00    +0.019 C 
BRANCH   6   7
ATOM      7  C   UNL     1      32.278 -14.088 -22.114  0.00  0.00    +0.086 C 
BRANCH   7  10
ATOM      8  O   UNL     1      32.723 -11.905 -23.064  0.00  0.00    -0.275 OA
ATOM      9  N   UNL     1      31.636 -12.046 -21.016  0.00  0.00    -0.295 N 
ATOM     10  C   UNL     1      32.258 -12.567 -22.141  0.00  0.00    +0.223 C 
ATOM     11  H   UNL     1      31.298 -12.672 -20.336  0.00  0.00    +0.150 HD
BRANCH   9  12
ATOM     12  C   UNL     1      31.456 -10.629 -20.795  0.00  0.00    +0.200 C 
BRANCH  12  14
ATOM     13  O   UNL     1      31.396 -10.780 -18.393  0.00  0.00    -0.248 OA
ATOM     14  C   UNL     1      31.808 -10.205 -19.392  0.00  0.00    +0.334 C 
BRANCH  14  15
ATOM     15  O   UNL     1      32.624  -9.125 -19.343  0.00  0.00    -0.479 OA
ATOM     16  H   UNL     1      32.659  -8.600 -18.568  0.00  0.00    +0.295 HD
ENDBRANCH  14  15
ENDBRANCH  12  14
ENDBRANCH   9  12
ENDBRANCH   7  10
ENDBRANCH   6   7
ENDBRANCH   5   6
ENDBRANCH   3   5
BRANCH   2  17
ATOM     17  C   UNL     1      35.409 -18.391 -21.728  0.00  0.00    +0.116 C 
BRANCH  17  18
ATOM     18  C   UNL     1      34.857 -19.536 -20.928  0.00  0.00    -0.002 C 
ATOM     19  C   UNL     1      35.721 -20.479 -20.370  0.00  0.00    -0.001 C 
ATOM     20  C   UNL     1      33.480 -19.658 -20.743  0.00  0.00    -0.001 C 
ATOM     21  C   UNL     1      35.208 -21.541 -19.627  0.00  0.00    +0.024 C 
ATOM     22  C   UNL     1      32.967 -20.720 -20.000  0.00  0.00    +0.024 C 
ATOM     23  C   UNL     1      33.832 -21.662 -19.441  0.00  0.00    +0.143 C 
BRANCH  23  26
ATOM     24  O   UNL     1      33.872 -23.862 -18.754  0.00  0.00    -0.126 OA
ATOM     25  O   UNL     1      32.299 -22.551 -17.965  0.00  0.00    -0.126 OA
ATOM     26  N   UNL     1      33.309 -22.743 -18.684  0.00  0.00    +0.058 N 
ENDBRANCH  23  26
ENDBRANCH  17  18
ENDBRANCH   2  17
TORSDOF 10
ENDMDL
