MODEL 1
REMARK VINA RESULT:      -9.9      0.000      0.000
REMARK  Name = 5327109
REMARK  10 active torsions:
REMARK  status: ('A' for Active; 'I' for Inactive)
REMARK    1  A    between atoms: C_1  and  N_2
REMARK    2  A    between atoms: C_1  and  C_17
REMARK    3  A    between atoms: N_2  and  S_4
REMARK    4  A    between atoms: S_4  and  C_8
REMARK    5  A    between atoms: C_17  and  N_18
REMARK    6  A    between atoms: N_18  and  C_21
REMARK    7  A    between atoms: C_21  and  C_22
REMARK    8  A    between atoms: C_22  and  O_23
REMARK    9  A    between atoms: O_23  and  C_24
REMARK   10  A    between atoms: C_24  and  C_26
REMARK                            x       y       z     vdW  Elec       q    Type
REMARK                         _______ _______ _______ _____ _____    ______ ____
ROOT
ATOM      1  C   UNL     1      35.119 -20.464 -20.283  0.00  0.00    +0.068 C 
ENDROOT
BRANCH   1   2
ATOM      2  N   UNL     1      35.608 -19.111 -20.584  0.00  0.00    -0.182 NA
ATOM      3  H   UNL     1      35.023 -18.463 -20.059  0.00  0.00    +0.149 HD
BRANCH   2   4
ATOM      4  S   UNL     1      35.639 -18.553 -22.197  0.00  0.00    +0.060 S 
ATOM      5  O   UNL     1      34.774 -19.397 -23.005  0.00  0.00    -0.153 OA
ATOM      6  O   UNL     1      37.021 -18.344 -22.596  0.00  0.00    -0.153 OA
BRANCH   4   8
ATOM      7  N   UNL     1      33.346 -14.820 -25.339  0.00  0.00    -0.242 NA
ATOM      8  C   UNL     1      34.890 -16.971 -22.052  0.00  0.00    +0.122 C 
ATOM      9  C   UNL     1      34.381 -16.269 -23.158  0.00  0.00    +0.022 C 
ATOM     10  C   UNL     1      33.795 -15.002 -22.956  0.00  0.00    +0.020 C 
ATOM     11  C   UNL     1      34.817 -16.424 -20.769  0.00  0.00    +0.020 C 
ATOM     12  C   UNL     1      33.728 -14.461 -21.661  0.00  0.00    +0.002 C 
ATOM     13  C   UNL     1      34.438 -16.790 -24.456  0.00  0.00    +0.022 C 
ATOM     14  C   UNL     1      34.238 -15.172 -20.574  0.00  0.00    +0.001 C 
ATOM     15  C   UNL     1      33.301 -14.334 -24.078  0.00  0.00    +0.099 C 
ATOM     16  C   UNL     1      33.914 -16.035 -25.494  0.00  0.00    +0.099 C 
ENDBRANCH   4   8
ENDBRANCH   2   4
ENDBRANCH   1   2
BRANCH   1  17
ATOM     17  C   UNL     1      36.261 -21.299 -19.722  0.00  0.00    -0.062 C 
BRANCH  17  18
ATOM     18  N   UNL     1      35.856 -21.938 -18.476  0.00  0.00    +0.386 N 
ATOM     19  H   UNL     1      35.809 -22.947 -18.618  0.00  0.00    -0.084 HD
ATOM     20  H   UNL     1      34.942 -21.573 -18.205  0.00  0.00    -0.084 HD
BRANCH  18  21
ATOM     21  C   UNL     1      36.806 -21.650 -17.412  0.00  0.00    -0.049 C 
BRANCH  21  22
ATOM     22  C   UNL     1      36.612 -22.607 -16.245  0.00  0.00    +0.119 C 
BRANCH  22  23
ATOM     23  O   UNL     1      35.477 -23.420 -16.506  0.00  0.00    -0.351 OA
BRANCH  23  24
ATOM     24  C   UNL     1      34.863 -23.860 -15.302  0.00  0.00    +0.168 C 
BRANCH  24  26
ATOM     25 CL   UNL     1      29.007 -22.514 -15.477  0.00  0.00    -0.082 Cl
ATOM     26  C   UNL     1      33.401 -23.525 -15.346  0.00  0.00    +0.007 C 
ATOM     27  C   UNL     1      32.665 -23.458 -14.163  0.00  0.00    -0.001 C 
ATOM     28  C   UNL     1      32.777 -23.279 -16.570  0.00  0.00    -0.001 C 
ATOM     29  C   UNL     1      31.306 -23.145 -14.203  0.00  0.00    +0.011 C 
ATOM     30  C   UNL     1      31.419 -22.965 -16.610  0.00  0.00    +0.011 C 
ATOM     31  C   UNL     1      30.683 -22.899 -15.428  0.00  0.00    +0.058 C 
ENDBRANCH  24  26
ENDBRANCH  23  24
ENDBRANCH  22  23
ENDBRANCH  21  22
ENDBRANCH  18  21
ENDBRANCH  17  18
ENDBRANCH   1  17
TORSDOF 10
ENDMDL
MODEL 2
REMARK VINA RESULT:      -9.8      3.300      9.567
REMARK  Name = 5327109
REMARK  10 active torsions:
REMARK  status: ('A' for Active; 'I' for Inactive)
REMARK    1  A    between atoms: C_1  and  N_2
REMARK    2  A    between atoms: C_1  and  C_17
REMARK    3  A    between atoms: N_2  and  S_4
REMARK    4  A    between atoms: S_4  and  C_8
REMARK    5  A    between atoms: C_17  and  N_18
REMARK    6  A    between atoms: N_18  and  C_21
REMARK    7  A    between atoms: C_21  and  C_22
REMARK    8  A    between atoms: C_22  and  O_23
REMARK    9  A    between atoms: O_23  and  C_24
REMARK   10  A    between atoms: C_24  and  C_26
REMARK                            x       y       z     vdW  Elec       q    Type
REMARK                         _______ _______ _______ _____ _____    ______ ____
ROOT
ATOM      1  C   UNL     1      33.008 -20.421 -20.181  0.00  0.00    +0.068 C 
ENDROOT
BRANCH   1   2
ATOM      2  N   UNL     1      34.091 -21.327 -19.772  0.00  0.00    -0.182 NA
ATOM      3  H   UNL     1      34.496 -21.707 -20.626  0.00  0.00    +0.149 HD
BRANCH   2   4
ATOM      4  S   UNL     1      33.756 -22.654 -18.752  0.00  0.00    +0.060 S 
ATOM      5  O   UNL     1      33.966 -23.886 -19.497  0.00  0.00    -0.153 OA
ATOM      6  O   UNL     1      32.486 -22.424 -18.082  0.00  0.00    -0.153 OA
BRANCH   4   8
ATOM      7  N   UNL     1      34.674 -24.069 -13.632  0.00  0.00    -0.242 NA
ATOM      8  C   UNL     1      35.020 -22.517 -17.541  0.00  0.00    +0.122 C 
ATOM      9  C   UNL     1      34.888 -23.040 -16.244  0.00  0.00    +0.022 C 
ATOM     10  C   UNL     1      35.950 -22.886 -15.330  0.00  0.00    +0.020 C 
ATOM     11  C   UNL     1      36.188 -21.853 -17.924  0.00  0.00    +0.020 C 
ATOM     12  C   UNL     1      37.121 -22.216 -15.726  0.00  0.00    +0.002 C 
ATOM     13  C   UNL     1      33.731 -23.710 -15.830  0.00  0.00    +0.022 C 
ATOM     14  C   UNL     1      37.235 -21.703 -17.018  0.00  0.00    +0.001 C 
ATOM     15  C   UNL     1      35.783 -23.418 -14.051  0.00  0.00    +0.099 C 
ATOM     16  C   UNL     1      33.677 -24.198 -14.534  0.00  0.00    +0.099 C 
ENDBRANCH   4   8
ENDBRANCH   2   4
ENDBRANCH   1   2
BRANCH   1  17
ATOM     17  C   UNL     1      33.583 -19.305 -21.042  0.00  0.00    -0.062 C 
BRANCH  17  18
ATOM     18  N   UNL     1      34.991 -19.098 -20.726  0.00  0.00    +0.386 N 
ATOM     19  H   UNL     1      35.395 -19.979 -20.409  0.00  0.00    -0.084 HD
ATOM     20  H   UNL     1      35.060 -18.391 -19.993  0.00  0.00    -0.084 HD
BRANCH  18  21
ATOM     21  C   UNL     1      35.722 -18.630 -21.894  0.00  0.00    -0.049 C 
BRANCH  21  22
ATOM     22  C   UNL     1      34.880 -18.784 -23.151  0.00  0.00    +0.119 C 
BRANCH  22  23
ATOM     23  O   UNL     1      34.560 -17.492 -23.648  0.00  0.00    -0.351 OA
BRANCH  23  24
ATOM     24  C   UNL     1      35.276 -16.476 -22.958  0.00  0.00    +0.168 C 
BRANCH  24  26
ATOM     25 CL   UNL     1      31.441 -12.168 -21.265  0.00  0.00    -0.082 Cl
ATOM     26  C   UNL     1      34.318 -15.401 -22.537  0.00  0.00    +0.007 C 
ATOM     27  C   UNL     1      33.821 -15.382 -21.233  0.00  0.00    -0.001 C 
ATOM     28  C   UNL     1      33.925 -14.419 -23.446  0.00  0.00    -0.001 C 
ATOM     29  C   UNL     1      32.932 -14.382 -20.839  0.00  0.00    +0.011 C 
ATOM     30  C   UNL     1      33.036 -13.420 -23.052  0.00  0.00    +0.011 C 
ATOM     31  C   UNL     1      32.539 -13.401 -21.750  0.00  0.00    +0.058 C 
ENDBRANCH  24  26
ENDBRANCH  23  24
ENDBRANCH  22  23
ENDBRANCH  21  22
ENDBRANCH  18  21
ENDBRANCH  17  18
ENDBRANCH   1  17
TORSDOF 10
ENDMDL
MODEL 3
REMARK VINA RESULT:      -9.7      3.194      9.652
REMARK  Name = 5327109
REMARK  10 active torsions:
REMARK  status: ('A' for Active; 'I' for Inactive)
REMARK    1  A    between atoms: C_1  and  N_2
REMARK    2  A    between atoms: C_1  and  C_17
REMARK    3  A    between atoms: N_2  and  S_4
REMARK    4  A    between atoms: S_4  and  C_8
REMARK    5  A    between atoms: C_17  and  N_18
REMARK    6  A    between atoms: N_18  and  C_21
REMARK    7  A    between atoms: C_21  and  C_22
REMARK    8  A    between atoms: C_22  and  O_23
REMARK    9  A    between atoms: O_23  and  C_24
REMARK   10  A    between atoms: C_24  and  C_26
REMARK                            x       y       z     vdW  Elec       q    Type
REMARK                         _______ _______ _______ _____ _____    ______ ____
ROOT
ATOM      1  C   UNL     1      35.807 -21.650 -19.955  0.00  0.00    +0.068 C 
ENDROOT
BRANCH   1   2
ATOM      2  N   UNL     1      35.284 -21.980 -18.621  0.00  0.00    -0.182 NA
ATOM      3  H   UNL     1      35.978 -22.577 -18.173  0.00  0.00    +0.149 HD
BRANCH   2   4
ATOM      4  S   UNL     1      33.779 -22.768 -18.464  0.00  0.00    +0.060 S 
ATOM      5  O   UNL     1      33.816 -24.011 -19.218  0.00  0.00    -0.153 OA
ATOM      6  O   UNL     1      32.716 -21.806 -18.709  0.00  0.00    -0.153 OA
BRANCH   4   8
ATOM      7  N   UNL     1      30.184 -23.526 -14.518  0.00  0.00    -0.242 NA
ATOM      8  C   UNL     1      33.746 -23.160 -16.752  0.00  0.00    +0.122 C 
ATOM      9  C   UNL     1      32.550 -23.278 -16.024  0.00  0.00    +0.022 C 
ATOM     10  C   UNL     1      32.611 -23.595 -14.651  0.00  0.00    +0.020 C 
ATOM     11  C   UNL     1      34.980 -23.355 -16.128  0.00  0.00    +0.020 C 
ATOM     12  C   UNL     1      33.859 -23.789 -14.033  0.00  0.00    +0.002 C 
ATOM     13  C   UNL     1      31.298 -23.090 -16.620  0.00  0.00    +0.022 C 
ATOM     14  C   UNL     1      35.036 -23.668 -14.772  0.00  0.00    +0.001 C 
ATOM     15  C   UNL     1      31.404 -23.703 -13.961  0.00  0.00    +0.099 C 
ATOM     16  C   UNL     1      30.164 -23.224 -15.834  0.00  0.00    +0.099 C 
ENDBRANCH   4   8
ENDBRANCH   2   4
ENDBRANCH   1   2
BRANCH   1  17
ATOM     17  C   UNL     1      35.181 -20.347 -20.433  0.00  0.00    -0.062 C 
BRANCH  17  18
ATOM     18  N   UNL     1      36.168 -19.275 -20.413  0.00  0.00    +0.386 N 
ATOM     19  H   UNL     1      37.093 -19.675 -20.255  0.00  0.00    -0.084 HD
ATOM     20  H   UNL     1      35.928 -18.626 -19.663  0.00  0.00    -0.084 HD
BRANCH  18  21
ATOM     21  C   UNL     1      36.171 -18.548 -21.674  0.00  0.00    -0.049 C 
BRANCH  21  22
ATOM     22  C   UNL     1      34.945 -18.903 -22.501  0.00  0.00    +0.119 C 
BRANCH  22  23
ATOM     23  O   UNL     1      34.509 -17.741 -23.193  0.00  0.00    -0.351 OA
BRANCH  23  24
ATOM     24  C   UNL     1      35.250 -16.592 -22.803  0.00  0.00    +0.168 C 
BRANCH  24  26
ATOM     25 CL   UNL     1      31.429 -12.192 -21.330  0.00  0.00    -0.082 Cl
ATOM     26  C   UNL     1      34.295 -15.495 -22.437  0.00  0.00    +0.007 C 
ATOM     27  C   UNL     1      33.882 -15.344 -21.113  0.00  0.00    -0.001 C 
ATOM     28  C   UNL     1      33.823 -14.623 -23.418  0.00  0.00    -0.001 C 
ATOM     29  C   UNL     1      32.996 -14.322 -20.770  0.00  0.00    +0.011 C 
ATOM     30  C   UNL     1      32.937 -13.602 -23.076  0.00  0.00    +0.011 C 
ATOM     31  C   UNL     1      32.523 -13.451 -21.753  0.00  0.00    +0.058 C 
ENDBRANCH  24  26
ENDBRANCH  23  24
ENDBRANCH  22  23
ENDBRANCH  21  22
ENDBRANCH  18  21
ENDBRANCH  17  18
ENDBRANCH   1  17
TORSDOF 10
ENDMDL
MODEL 4
REMARK VINA RESULT:      -9.6      3.528      4.767
REMARK  Name = 5327109
REMARK  10 active torsions:
REMARK  status: ('A' for Active; 'I' for Inactive)
REMARK    1  A    between atoms: C_1  and  N_2
REMARK    2  A    between atoms: C_1  and  C_17
REMARK    3  A    between atoms: N_2  and  S_4
REMARK    4  A    between atoms: S_4  and  C_8
REMARK    5  A    between atoms: C_17  and  N_18
REMARK    6  A    between atoms: N_18  and  C_21
REMARK    7  A    between atoms: C_21  and  C_22
REMARK    8  A    between atoms: C_22  and  O_23
REMARK    9  A    between atoms: O_23  and  C_24
REMARK   10  A    between atoms: C_24  and  C_26
REMARK                            x       y       z     vdW  Elec       q    Type
REMARK                         _______ _______ _______ _____ _____    ______ ____
ROOT
ATOM      1  C   UNL     1      35.029 -22.830 -16.352  0.00  0.00    +0.068 C 
ENDROOT
BRANCH   1   2
ATOM      2  N   UNL     1      35.167 -22.489 -17.775  0.00  0.00    -0.182 NA
ATOM      3  H   UNL     1      35.431 -21.505 -17.818  0.00  0.00    +0.149 HD
BRANCH   2   4
ATOM      4  S   UNL     1      33.845 -22.692 -18.835  0.00  0.00    +0.060 S 
ATOM      5  O   UNL     1      32.617 -22.725 -18.057  0.00  0.00    -0.153 OA
ATOM      6  O   UNL     1      34.144 -23.775 -19.758  0.00  0.00    -0.153 OA
BRANCH   4   8
ATOM      7  N   UNL     1      37.443 -19.277 -20.945  0.00  0.00    -0.242 NA
ATOM      8  C   UNL     1      33.878 -21.196 -19.754  0.00  0.00    +0.122 C 
ATOM      9  C   UNL     1      35.075 -20.571 -20.143  0.00  0.00    +0.022 C 
ATOM     10  C   UNL     1      35.014 -19.369 -20.879  0.00  0.00    +0.020 C 
ATOM     11  C   UNL     1      32.643 -20.639 -20.093  0.00  0.00    +0.020 C 
ATOM     12  C   UNL     1      33.766 -18.817 -21.214  0.00  0.00    +0.002 C 
ATOM     13  C   UNL     1      36.328 -21.104 -19.820  0.00  0.00    +0.022 C 
ATOM     14  C   UNL     1      32.588 -19.452 -20.820  0.00  0.00    +0.001 C 
ATOM     15  C   UNL     1      36.223 -18.777 -21.246  0.00  0.00    +0.099 C 
ATOM     16  C   UNL     1      37.463 -20.427 -20.239  0.00  0.00    +0.099 C 
ENDBRANCH   4   8
ENDBRANCH   2   4
ENDBRANCH   1   2
BRANCH   1  17
ATOM     17  C   UNL     1      36.406 -23.092 -15.761  0.00  0.00    -0.062 C 
BRANCH  17  18
ATOM     18  N   UNL     1      36.334 -24.154 -14.764  0.00  0.00    +0.386 N 
ATOM     19  H   UNL     1      36.758 -23.826 -13.896  0.00  0.00    -0.084 HD
ATOM     20  H   UNL     1      36.835 -24.969 -15.120  0.00  0.00    -0.084 HD
BRANCH  18  21
ATOM     21  C   UNL     1      34.952 -24.533 -14.508  0.00  0.00    -0.049 C 
BRANCH  21  22
ATOM     22  C   UNL     1      34.551 -24.171 -13.086  0.00  0.00    +0.119 C 
BRANCH  22  23
ATOM     23  O   UNL     1      33.146 -23.969 -13.045  0.00  0.00    -0.351 OA
BRANCH  23  24
ATOM     24  C   UNL     1      32.449 -25.004 -13.725  0.00  0.00    +0.168 C 
BRANCH  24  26
ATOM     25 CL   UNL     1      27.563 -22.689 -16.352  0.00  0.00    -0.082 Cl
ATOM     26  C   UNL     1      31.230 -24.426 -14.382  0.00  0.00    +0.007 C 
ATOM     27  C   UNL     1      30.099 -25.219 -14.573  0.00  0.00    -0.001 C 
ATOM     28  C   UNL     1      31.227 -23.095 -14.800  0.00  0.00    -0.001 C 
ATOM     29  C   UNL     1      28.964 -24.683 -15.182  0.00  0.00    +0.011 C 
ATOM     30  C   UNL     1      30.093 -22.558 -15.408  0.00  0.00    +0.011 C 
ATOM     31  C   UNL     1      28.962 -23.351 -15.600  0.00  0.00    +0.058 C 
ENDBRANCH  24  26
ENDBRANCH  23  24
ENDBRANCH  22  23
ENDBRANCH  21  22
ENDBRANCH  18  21
ENDBRANCH  17  18
ENDBRANCH   1  17
TORSDOF 10
ENDMDL
MODEL 5
REMARK VINA RESULT:      -9.6      3.649     10.199
REMARK  Name = 5327109
REMARK  10 active torsions:
REMARK  status: ('A' for Active; 'I' for Inactive)
REMARK    1  A    between atoms: C_1  and  N_2
REMARK    2  A    between atoms: C_1  and  C_17
REMARK    3  A    between atoms: N_2  and  S_4
REMARK    4  A    between atoms: S_4  and  C_8
REMARK    5  A    between atoms: C_17  and  N_18
REMARK    6  A    between atoms: N_18  and  C_21
REMARK    7  A    between atoms: C_21  and  C_22
REMARK    8  A    between atoms: C_22  and  O_23
REMARK    9  A    between atoms: O_23  and  C_24
REMARK   10  A    between atoms: C_24  and  C_26
REMARK                            x       y       z     vdW  Elec       q    Type
REMARK                         _______ _______ _______ _____ _____    ______ ____
ROOT
ATOM      1  C   UNL     1      35.875 -21.771 -19.888  0.00  0.00    +0.068 C 
ENDROOT
BRANCH   1   2
ATOM      2  N   UNL     1      35.253 -22.022 -18.580  0.00  0.00    -0.182 NA
ATOM      3  H   UNL     1      35.922 -22.565 -18.035  0.00  0.00    +0.149 HD
BRANCH   2   4
ATOM      4  S   UNL     1      33.760 -22.844 -18.488  0.00  0.00    +0.060 S 
ATOM      5  O   UNL     1      33.861 -24.090 -19.231  0.00  0.00    -0.153 OA
ATOM      6  O   UNL     1      32.688 -21.909 -18.788  0.00  0.00    -0.153 OA
BRANCH   4   8
ATOM      7  N   UNL     1      30.024 -23.318 -14.630  0.00  0.00    -0.242 NA
ATOM      8  C   UNL     1      33.657 -23.228 -16.777  0.00  0.00    +0.122 C 
ATOM      9  C   UNL     1      32.438 -23.253 -16.078  0.00  0.00    +0.022 C 
ATOM     10  C   UNL     1      32.442 -23.569 -14.703  0.00  0.00    +0.020 C 
ATOM     11  C   UNL     1      34.857 -23.512 -16.123  0.00  0.00    +0.020 C 
ATOM     12  C   UNL     1      33.656 -23.854 -14.055  0.00  0.00    +0.002 C 
ATOM     13  C   UNL     1      31.219 -22.974 -16.705  0.00  0.00    +0.022 C 
ATOM     14  C   UNL     1      34.856 -23.824 -14.765  0.00  0.00    +0.001 C 
ATOM     15  C   UNL     1      31.213 -23.585 -14.042  0.00  0.00    +0.099 C 
ATOM     16  C   UNL     1      30.059 -23.020 -15.946  0.00  0.00    +0.099 C 
ENDBRANCH   4   8
ENDBRANCH   2   4
ENDBRANCH   1   2
BRANCH   1  17
ATOM     17  C   UNL     1      35.678 -20.310 -20.267  0.00  0.00    -0.062 C 
BRANCH  17  18
ATOM     18  N   UNL     1      34.309 -20.084 -20.712  0.00  0.00    +0.386 N 
ATOM     19  H   UNL     1      33.709 -19.956 -19.897  0.00  0.00    -0.084 HD
ATOM     20  H   UNL     1      34.005 -20.893 -21.255  0.00  0.00    -0.084 HD
BRANCH  18  21
ATOM     21  C   UNL     1      34.226 -18.901 -21.556  0.00  0.00    -0.049 C 
BRANCH  21  22
ATOM     22  C   UNL     1      35.316 -17.905 -21.193  0.00  0.00    +0.119 C 
BRANCH  22  23
ATOM     23  O   UNL     1      35.431 -16.951 -22.240  0.00  0.00    -0.351 OA
BRANCH  23  24
ATOM     24  C   UNL     1      34.677 -15.779 -21.963  0.00  0.00    +0.168 C 
BRANCH  24  26
ATOM     25 CL   UNL     1      32.765 -13.403 -27.144  0.00  0.00    -0.082 Cl
ATOM     26  C   UNL     1      34.201 -15.185 -23.256  0.00  0.00    +0.007 C 
ATOM     27  C   UNL     1      34.035 -15.998 -24.377  0.00  0.00    -0.001 C 
ATOM     28  C   UNL     1      33.921 -13.821 -23.337  0.00  0.00    -0.001 C 
ATOM     29  C   UNL     1      33.591 -15.448 -25.580  0.00  0.00    +0.011 C 
ATOM     30  C   UNL     1      33.476 -13.271 -24.539  0.00  0.00    +0.011 C 
ATOM     31  C   UNL     1      33.312 -14.083 -25.660  0.00  0.00    +0.058 C 
ENDBRANCH  24  26
ENDBRANCH  23  24
ENDBRANCH  22  23
ENDBRANCH  21  22
ENDBRANCH  18  21
ENDBRANCH  17  18
ENDBRANCH   1  17
TORSDOF 10
ENDMDL
MODEL 6
REMARK VINA RESULT:      -9.6      3.297      9.665
REMARK  Name = 5327109
REMARK  10 active torsions:
REMARK  status: ('A' for Active; 'I' for Inactive)
REMARK    1  A    between atoms: C_1  and  N_2
REMARK    2  A    between atoms: C_1  and  C_17
REMARK    3  A    between atoms: N_2  and  S_4
REMARK    4  A    between atoms: S_4  and  C_8
REMARK    5  A    between atoms: C_17  and  N_18
REMARK    6  A    between atoms: N_18  and  C_21
REMARK    7  A    between atoms: C_21  and  C_22
REMARK    8  A    between atoms: C_22  and  O_23
REMARK    9  A    between atoms: O_23  and  C_24
REMARK   10  A    between atoms: C_24  and  C_26
REMARK                            x       y       z     vdW  Elec       q    Type
REMARK                         _______ _______ _______ _____ _____    ______ ____
ROOT
ATOM      1  C   UNL     1      32.962 -20.287 -19.833  0.00  0.00    +0.068 C 
ENDROOT
BRANCH   1   2
ATOM      2  N   UNL     1      32.837 -21.752 -19.823  0.00  0.00    -0.182 NA
ATOM      3  H   UNL     1      31.928 -21.967 -19.415  0.00  0.00    +0.149 HD
BRANCH   2   4
ATOM      4  S   UNL     1      33.986 -22.703 -18.994  0.00  0.00    +0.060 S 
ATOM      5  O   UNL     1      35.193 -21.916 -18.793  0.00  0.00    -0.153 OA
ATOM      6  O   UNL     1      34.073 -24.004 -19.637  0.00  0.00    -0.153 OA
BRANCH   4   8
ATOM      7  N   UNL     1      35.308 -24.064 -13.948  0.00  0.00    -0.242 NA
ATOM      8  C   UNL     1      33.213 -22.938 -17.435  0.00  0.00    +0.122 C 
ATOM      9  C   UNL     1      33.927 -23.313 -16.283  0.00  0.00    +0.022 C 
ATOM     10  C   UNL     1      33.230 -23.483 -15.069  0.00  0.00    +0.020 C 
ATOM     11  C   UNL     1      31.833 -22.734 -17.380  0.00  0.00    +0.020 C 
ATOM     12  C   UNL     1      31.841 -23.275 -15.026  0.00  0.00    +0.002 C 
ATOM     13  C   UNL     1      35.310 -23.524 -16.305  0.00  0.00    +0.022 C 
ATOM     14  C   UNL     1      31.149 -22.902 -16.178  0.00  0.00    +0.001 C 
ATOM     15  C   UNL     1      33.971 -23.856 -13.948  0.00  0.00    +0.099 C 
ATOM     16  C   UNL     1      35.941 -23.893 -15.128  0.00  0.00    +0.099 C 
ENDBRANCH   4   8
ENDBRANCH   2   4
ENDBRANCH   1   2
BRANCH   1  17
ATOM     17  C   UNL     1      33.435 -19.832 -21.206  0.00  0.00    -0.062 C 
BRANCH  17  18
ATOM     18  N   UNL     1      34.878 -20.001 -21.325  0.00  0.00    +0.386 N 
ATOM     19  H   UNL     1      35.072 -20.820 -21.901  0.00  0.00    -0.084 HD
ATOM     20  H   UNL     1      35.270 -20.121 -20.391  0.00  0.00    -0.084 HD
BRANCH  18  21
ATOM     21  C   UNL     1      35.489 -18.831 -21.939  0.00  0.00    -0.049 C 
BRANCH  21  22
ATOM     22  C   UNL     1      35.081 -18.715 -23.399  0.00  0.00    +0.119 C 
BRANCH  22  23
ATOM     23  O   UNL     1      34.547 -17.418 -23.623  0.00  0.00    -0.351 OA
BRANCH  23  24
ATOM     24  C   UNL     1      35.235 -16.432 -22.866  0.00  0.00    +0.168 C 
BRANCH  24  26
ATOM     25 CL   UNL     1      31.369 -12.111 -21.281  0.00  0.00    -0.082 Cl
ATOM     26  C   UNL     1      34.269 -15.354 -22.471  0.00  0.00    +0.007 C 
ATOM     27  C   UNL     1      33.753 -15.320 -21.176  0.00  0.00    -0.001 C 
ATOM     28  C   UNL     1      33.889 -14.383 -23.398  0.00  0.00    -0.001 C 
ATOM     29  C   UNL     1      32.856 -14.317 -20.807  0.00  0.00    +0.011 C 
ATOM     30  C   UNL     1      32.993 -13.380 -23.030  0.00  0.00    +0.011 C 
ATOM     31  C   UNL     1      32.476 -13.347 -21.736  0.00  0.00    +0.058 C 
ENDBRANCH  24  26
ENDBRANCH  23  24
ENDBRANCH  22  23
ENDBRANCH  21  22
ENDBRANCH  18  21
ENDBRANCH  17  18
ENDBRANCH   1  17
TORSDOF 10
ENDMDL
MODEL 7
REMARK VINA RESULT:      -9.6      4.008      6.546
REMARK  Name = 5327109
REMARK  10 active torsions:
REMARK  status: ('A' for Active; 'I' for Inactive)
REMARK    1  A    between atoms: C_1  and  N_2
REMARK    2  A    between atoms: C_1  and  C_17
REMARK    3  A    between atoms: N_2  and  S_4
REMARK    4  A    between atoms: S_4  and  C_8
REMARK    5  A    between atoms: C_17  and  N_18
REMARK    6  A    between atoms: N_18  and  C_21
REMARK    7  A    between atoms: C_21  and  C_22
REMARK    8  A    between atoms: C_22  and  O_23
REMARK    9  A    between atoms: O_23  and  C_24
REMARK   10  A    between atoms: C_24  and  C_26
REMARK                            x       y       z     vdW  Elec       q    Type
REMARK                         _______ _______ _______ _____ _____    ______ ____
ROOT
ATOM      1  C   UNL     1      33.313 -14.550 -25.697  0.00  0.00    +0.068 C 
ENDROOT
BRANCH   1   2
ATOM      2  N   UNL     1      32.428 -14.033 -24.643  0.00  0.00    -0.182 NA
ATOM      3  H   UNL     1      32.128 -13.105 -24.940  0.00  0.00    +0.149 HD
BRANCH   2   4
ATOM      4  S   UNL     1      33.002 -13.878 -23.044  0.00  0.00    +0.060 S 
ATOM      5  O   UNL     1      34.454 -13.954 -23.054  0.00  0.00    -0.153 OA
ATOM      6  O   UNL     1      32.239 -14.767 -22.181  0.00  0.00    -0.153 OA
BRANCH   4   8
ATOM      7  N   UNL     1      34.353  -8.824 -24.344  0.00  0.00    -0.242 NA
ATOM      8  C   UNL     1      32.536 -12.233 -22.643  0.00  0.00    +0.122 C 
ATOM      9  C   UNL     1      33.152 -11.109 -23.220  0.00  0.00    +0.022 C 
ATOM     10  C   UNL     1      32.720  -9.821 -22.843  0.00  0.00    +0.020 C 
ATOM     11  C   UNL     1      31.508 -12.079 -21.711  0.00  0.00    +0.020 C 
ATOM     12  C   UNL     1      31.684  -9.678 -21.904  0.00  0.00    +0.002 C 
ATOM     13  C   UNL     1      34.184 -11.230 -24.157  0.00  0.00    +0.022 C 
ATOM     14  C   UNL     1      31.084 -10.805 -21.342  0.00  0.00    +0.001 C 
ATOM     15  C   UNL     1      33.355  -8.729 -23.436  0.00  0.00    +0.099 C 
ATOM     16  C   UNL     1      34.741 -10.073 -24.680  0.00  0.00    +0.099 C 
ENDBRANCH   4   8
ENDBRANCH   2   4
ENDBRANCH   1   2
BRANCH   1  17
ATOM     17  C   UNL     1      33.520 -16.044 -25.492  0.00  0.00    -0.062 C 
BRANCH  17  18
ATOM     18  N   UNL     1      34.900 -16.315 -25.107  0.00  0.00    +0.386 N 
ATOM     19  H   UNL     1      35.355 -15.437 -24.855  0.00  0.00    -0.084 HD
ATOM     20  H   UNL     1      35.378 -16.751 -25.895  0.00  0.00    -0.084 HD
BRANCH  18  21
ATOM     21  C   UNL     1      34.953 -17.223 -23.970  0.00  0.00    -0.049 C 
BRANCH  21  22
ATOM     22  C   UNL     1      34.578 -18.635 -24.393  0.00  0.00    +0.119 C 
BRANCH  22  23
ATOM     23  O   UNL     1      34.924 -19.532 -23.347  0.00  0.00    -0.351 OA
BRANCH  23  24
ATOM     24  C   UNL     1      34.865 -18.900 -22.076  0.00  0.00    +0.168 C 
BRANCH  24  26
ATOM     25 CL   UNL     1      33.719 -23.037 -17.869  0.00  0.00    -0.082 Cl
ATOM     26  C   UNL     1      34.578 -19.933 -21.027  0.00  0.00    +0.007 C 
ATOM     27  C   UNL     1      35.617 -20.703 -20.505  0.00  0.00    -0.001 C 
ATOM     28  C   UNL     1      33.273 -20.122 -20.571  0.00  0.00    -0.001 C 
ATOM     29  C   UNL     1      35.352 -21.663 -19.528  0.00  0.00    +0.011 C 
ATOM     30  C   UNL     1      33.008 -21.081 -19.594  0.00  0.00    +0.011 C 
ATOM     31  C   UNL     1      34.046 -21.852 -19.073  0.00  0.00    +0.058 C 
ENDBRANCH  24  26
ENDBRANCH  23  24
ENDBRANCH  22  23
ENDBRANCH  21  22
ENDBRANCH  18  21
ENDBRANCH  17  18
ENDBRANCH   1  17
TORSDOF 10
ENDMDL
MODEL 8
REMARK VINA RESULT:      -9.5      1.608      2.480
REMARK  Name = 5327109
REMARK  10 active torsions:
REMARK  status: ('A' for Active; 'I' for Inactive)
REMARK    1  A    between atoms: C_1  and  N_2
REMARK    2  A    between atoms: C_1  and  C_17
REMARK    3  A    between atoms: N_2  and  S_4
REMARK    4  A    between atoms: S_4  and  C_8
REMARK    5  A    between atoms: C_17  and  N_18
REMARK    6  A    between atoms: N_18  and  C_21
REMARK    7  A    between atoms: C_21  and  C_22
REMARK    8  A    between atoms: C_22  and  O_23
REMARK    9  A    between atoms: O_23  and  C_24
REMARK   10  A    between atoms: C_24  and  C_26
REMARK                            x       y       z     vdW  Elec       q    Type
REMARK                         _______ _______ _______ _____ _____    ______ ____
ROOT
ATOM      1  C   UNL     1      34.064 -20.131 -20.757  0.00  0.00    +0.068 C 
ENDROOT
BRANCH   1   2
ATOM      2  N   UNL     1      33.849 -18.705 -21.040  0.00  0.00    -0.182 NA
ATOM      3  H   UNL     1      33.231 -18.655 -21.849  0.00  0.00    +0.149 HD
BRANCH   2   4
ATOM      4  S   UNL     1      35.179 -17.689 -21.373  0.00  0.00    +0.060 S 
ATOM      5  O   UNL     1      36.348 -18.513 -21.637  0.00  0.00    -0.153 OA
ATOM      6  O   UNL     1      35.244 -16.649 -20.359  0.00  0.00    -0.153 OA
BRANCH   4   8
ATOM      7  N   UNL     1      32.357 -13.412 -23.048  0.00  0.00    -0.242 NA
ATOM      8  C   UNL     1      34.691 -16.924 -22.877  0.00  0.00    +0.122 C 
ATOM      9  C   UNL     1      33.913 -15.754 -22.915  0.00  0.00    +0.022 C 
ATOM     10  C   UNL     1      33.562 -15.204 -24.165  0.00  0.00    +0.020 C 
ATOM     11  C   UNL     1      35.112 -17.536 -24.059  0.00  0.00    +0.020 C 
ATOM     12  C   UNL     1      33.992 -15.828 -25.349  0.00  0.00    +0.002 C 
ATOM     13  C   UNL     1      33.476 -15.118 -21.748  0.00  0.00    +0.022 C 
ATOM     14  C   UNL     1      34.764 -16.989 -25.292  0.00  0.00    +0.001 C 
ATOM     15  C   UNL     1      32.789 -14.043 -24.164  0.00  0.00    +0.099 C 
ATOM     16  C   UNL     1      32.712 -13.967 -21.870  0.00  0.00    +0.099 C 
ENDBRANCH   4   8
ENDBRANCH   2   4
ENDBRANCH   1   2
BRANCH   1  17
ATOM     17  C   UNL     1      32.960 -20.635 -19.840  0.00  0.00    -0.062 C 
BRANCH  17  18
ATOM     18  N   UNL     1      33.293 -21.959 -19.328  0.00  0.00    +0.386 N 
ATOM     19  H   UNL     1      32.842 -22.665 -19.909  0.00  0.00    -0.084 HD
ATOM     20  H   UNL     1      32.964 -22.027 -18.364  0.00  0.00    -0.084 HD
BRANCH  18  21
ATOM     21  C   UNL     1      34.732 -22.175 -19.344  0.00  0.00    -0.049 C 
BRANCH  21  22
ATOM     22  C   UNL     1      35.267 -22.338 -17.929  0.00  0.00    +0.119 C 
BRANCH  22  23
ATOM     23  O   UNL     1      34.493 -23.323 -17.259  0.00  0.00    -0.351 OA
BRANCH  23  24
ATOM     24  C   UNL     1      34.151 -22.913 -15.943  0.00  0.00    +0.168 C 
BRANCH  24  26
ATOM     25 CL   UNL     1      28.813 -25.254 -14.475  0.00  0.00    -0.082 Cl
ATOM     26  C   UNL     1      32.818 -23.497 -15.578  0.00  0.00    +0.007 C 
ATOM     27  C   UNL     1      32.719 -24.396 -14.516  0.00  0.00    -0.001 C 
ATOM     28  C   UNL     1      31.678 -23.141 -16.298  0.00  0.00    -0.001 C 
ATOM     29  C   UNL     1      31.480 -24.940 -14.174  0.00  0.00    +0.011 C 
ATOM     30  C   UNL     1      30.440 -23.684 -15.957  0.00  0.00    +0.011 C 
ATOM     31  C   UNL     1      30.341 -24.583 -14.896  0.00  0.00    +0.058 C 
ENDBRANCH  24  26
ENDBRANCH  23  24
ENDBRANCH  22  23
ENDBRANCH  21  22
ENDBRANCH  18  21
ENDBRANCH  17  18
ENDBRANCH   1  17
TORSDOF 10
ENDMDL
MODEL 9
REMARK VINA RESULT:      -9.5      7.259     12.043
REMARK  Name = 5327109
REMARK  10 active torsions:
REMARK  status: ('A' for Active; 'I' for Inactive)
REMARK    1  A    between atoms: C_1  and  N_2
REMARK    2  A    between atoms: C_1  and  C_17
REMARK    3  A    between atoms: N_2  and  S_4
REMARK    4  A    between atoms: S_4  and  C_8
REMARK    5  A    between atoms: C_17  and  N_18
REMARK    6  A    between atoms: N_18  and  C_21
REMARK    7  A    between atoms: C_21  and  C_22
REMARK    8  A    between atoms: C_22  and  O_23
REMARK    9  A    between atoms: O_23  and  C_24
REMARK   10  A    between atoms: C_24  and  C_26
REMARK                            x       y       z     vdW  Elec       q    Type
REMARK                         _______ _______ _______ _____ _____    ______ ____
ROOT
ATOM      1  C   UNL     1      32.018 -12.170 -22.533  0.00  0.00    +0.068 C 
ENDROOT
BRANCH   1   2
ATOM      2  N   UNL     1      32.145 -13.491 -23.166  0.00  0.00    -0.182 NA
ATOM      3  H   UNL     1      32.443 -14.139 -22.438  0.00  0.00    +0.149 HD
BRANCH   2   4
ATOM      4  S   UNL     1      33.208 -13.708 -24.484  0.00  0.00    +0.060 S 
ATOM      5  O   UNL     1      34.281 -12.731 -24.391  0.00  0.00    -0.153 OA
ATOM      6  O   UNL     1      32.427 -13.808 -25.707  0.00  0.00    -0.153 OA
BRANCH   4   8
ATOM      7  N   UNL     1      35.135 -16.550 -20.329  0.00  0.00    -0.242 NA
ATOM      8  C   UNL     1      33.877 -15.299 -24.158  0.00  0.00    +0.122 C 
ATOM      9  C   UNL     1      34.291 -15.699 -22.876  0.00  0.00    +0.022 C 
ATOM     10  C   UNL     1      34.820 -16.994 -22.699  0.00  0.00    +0.020 C 
ATOM     11  C   UNL     1      33.986 -16.170 -25.243  0.00  0.00    +0.020 C 
ATOM     12  C   UNL     1      34.924 -17.863 -23.799  0.00  0.00    +0.002 C 
ATOM     13  C   UNL     1      34.195 -14.849 -21.768  0.00  0.00    +0.022 C 
ATOM     14  C   UNL     1      34.508 -17.449 -25.064  0.00  0.00    +0.001 C 
ATOM     15  C   UNL     1      35.220 -17.356 -21.412  0.00  0.00    +0.099 C 
ATOM     16  C   UNL     1      34.625 -15.318 -20.536  0.00  0.00    +0.099 C 
ENDBRANCH   4   8
ENDBRANCH   2   4
ENDBRANCH   1   2
BRANCH   1  17
ATOM     17  C   UNL     1      31.549 -12.344 -21.096  0.00  0.00    -0.062 C 
BRANCH  17  18
ATOM     18  N   UNL     1      30.692 -11.231 -20.706  0.00  0.00    +0.386 N 
ATOM     19  H   UNL     1      29.726 -11.553 -20.661  0.00  0.00    -0.084 HD
ATOM     20  H   UNL     1      30.788 -10.487 -21.399  0.00  0.00    -0.084 HD
BRANCH  18  21
ATOM     21  C   UNL     1      31.082 -10.706 -19.405  0.00  0.00    -0.049 C 
BRANCH  21  22
ATOM     22  C   UNL     1      32.189  -9.674 -19.552  0.00  0.00    +0.119 C 
BRANCH  22  23
ATOM     23  O   UNL     1      31.972  -8.938 -20.748  0.00  0.00    -0.351 OA
BRANCH  23  24
ATOM     24  C   UNL     1      32.504  -7.624 -20.657  0.00  0.00    +0.168 C 
BRANCH  24  26
ATOM     25 CL   UNL     1      33.480  -5.512 -26.199  0.00  0.00    -0.082 Cl
ATOM     26  C   UNL     1      32.748  -7.096 -22.039  0.00  0.00    +0.007 C 
ATOM     27  C   UNL     1      33.855  -7.532 -22.767  0.00  0.00    -0.001 C 
ATOM     28  C   UNL     1      31.867  -6.170 -22.599  0.00  0.00    -0.001 C 
ATOM     29  C   UNL     1      34.082  -7.043 -24.054  0.00  0.00    +0.011 C 
ATOM     30  C   UNL     1      32.093  -5.681 -23.885  0.00  0.00    +0.011 C 
ATOM     31  C   UNL     1      33.200  -6.116 -24.612  0.00  0.00    +0.058 C 
ENDBRANCH  24  26
ENDBRANCH  23  24
ENDBRANCH  22  23
ENDBRANCH  21  22
ENDBRANCH  18  21
ENDBRANCH  17  18
ENDBRANCH   1  17
TORSDOF 10
ENDMDL
