MODEL 1
REMARK VINA RESULT:      -9.8      0.000      0.000
REMARK  Name = 447912
REMARK  9 active torsions:
REMARK  status: ('A' for Active; 'I' for Inactive)
REMARK    1  A    between atoms: C_1  and  C_22
REMARK    2  A    between atoms: C_2  and  N_7
REMARK    3  A    between atoms: N_7  and  S_8
REMARK    4  A    between atoms: N_7  and  C_17
REMARK    5  A    between atoms: S_8  and  C_11
REMARK    6  A    between atoms: C_17  and  C_21
REMARK    7  A    between atoms: C_22  and  C_26
REMARK    8  A    between atoms: C_22  and  C_30
REMARK    9  A    between atoms: C_22  and  O_31
REMARK                            x       y       z     vdW  Elec       q    Type
REMARK                         _______ _______ _______ _____ _____    ______ ____
ROOT
ATOM      1  C   UNL     1      35.380 -19.326 -21.414  0.00  0.00    +0.018 C 
ATOM      2  C   UNL     1      35.132 -21.107 -19.280  0.00  0.00    +0.069 C 
ATOM      3  C   UNL     1      36.520 -19.801 -20.764  0.00  0.00    -0.000 C 
ATOM      4  C   UNL     1      34.116 -19.744 -20.996  0.00  0.00    -0.000 C 
ATOM      5  C   UNL     1      36.395 -20.691 -19.698  0.00  0.00    +0.016 C 
ATOM      6  C   UNL     1      33.992 -20.634 -19.930  0.00  0.00    +0.016 C 
ENDROOT
BRANCH   2   7
ATOM      7  N   UNL     1      35.005 -22.020 -18.189  0.00  0.00    -0.182 N 
BRANCH   7   8
ATOM      8  S   UNL     1      33.560 -22.993 -18.147  0.00  0.00    +0.077 S 
ATOM      9  O   UNL     1      33.783 -24.241 -18.855  0.00  0.00    -0.150 OA
ATOM     10  O   UNL     1      32.414 -22.174 -18.497  0.00  0.00    -0.150 OA
BRANCH   8  11
ATOM     11  C   UNL     1      33.404 -23.395 -16.427  0.00  0.00    +0.125 C 
ATOM     12  C   UNL     1      34.389 -24.152 -15.823  0.00  0.00    +0.020 C 
ATOM     13  C   UNL     1      32.299 -22.944 -15.731  0.00  0.00    +0.020 C 
ATOM     14  C   UNL     1      34.266 -24.468 -14.470  0.00  0.00    +0.001 C 
ATOM     15  C   UNL     1      32.176 -23.261 -14.378  0.00  0.00    +0.001 C 
ATOM     16  C   UNL     1      33.160 -24.023 -13.748  0.00  0.00    +0.000 C 
ENDBRANCH   8  11
ENDBRANCH   7   8
BRANCH   7  17
ATOM     17  C   UNL     1      36.259 -22.674 -17.702  0.00  0.00    +0.219 C 
BRANCH  17  21
ATOM     18  F   UNL     1      37.629 -22.684 -15.792  0.00  0.00    -0.168 F 
ATOM     19  F   UNL     1      37.540 -20.838 -16.947  0.00  0.00    -0.168 F 
ATOM     20  F   UNL     1      35.833 -21.449 -15.727  0.00  0.00    -0.168 F 
ATOM     21  C   UNL     1      36.816 -21.900 -16.534  0.00  0.00    +0.417 C 
ENDBRANCH  17  21
ENDBRANCH   7  17
ENDBRANCH   2   7
BRANCH   1  22
ATOM     22  C   UNL     1      35.513 -18.374 -22.554  0.00  0.00    +0.283 C 
BRANCH  22  26
ATOM     23  F   UNL     1      35.332 -16.628 -20.941  0.00  0.00    -0.167 F 
ATOM     24  F   UNL     1      33.664 -16.859 -22.327  0.00  0.00    -0.167 F 
ATOM     25  F   UNL     1      35.543 -16.012 -23.020  0.00  0.00    -0.167 F 
ATOM     26  C   UNL     1      35.006 -16.956 -22.211  0.00  0.00    +0.431 C 
ENDBRANCH  22  26
BRANCH  22  30
ATOM     27  F   UNL     1      35.319 -20.092 -24.196  0.00  0.00    -0.167 F 
ATOM     28  F   UNL     1      35.030 -18.048 -24.891  0.00  0.00    -0.167 F 
ATOM     29  F   UNL     1      33.495 -19.009 -23.689  0.00  0.00    -0.167 F 
ATOM     30  C   UNL     1      34.830 -18.882 -23.842  0.00  0.00    +0.431 C 
ENDBRANCH  22  30
BRANCH  22  31
ATOM     31  O   UNL     1      36.903 -18.190 -22.922  0.00  0.00    -0.369 OA
ATOM     32  H   UNL     1      36.990 -17.392 -23.465  0.00  0.00    +0.211 HD
ENDBRANCH  22  31
ENDBRANCH   1  22
TORSDOF 9
ENDMDL
MODEL 2
REMARK VINA RESULT:      -9.7      0.036      1.562
REMARK  Name = 447912
REMARK  9 active torsions:
REMARK  status: ('A' for Active; 'I' for Inactive)
REMARK    1  A    between atoms: C_1  and  C_22
REMARK    2  A    between atoms: C_2  and  N_7
REMARK    3  A    between atoms: N_7  and  S_8
REMARK    4  A    between atoms: N_7  and  C_17
REMARK    5  A    between atoms: S_8  and  C_11
REMARK    6  A    between atoms: C_17  and  C_21
REMARK    7  A    between atoms: C_22  and  C_26
REMARK    8  A    between atoms: C_22  and  C_30
REMARK    9  A    between atoms: C_22  and  O_31
REMARK                            x       y       z     vdW  Elec       q    Type
REMARK                         _______ _______ _______ _____ _____    ______ ____
ROOT
ATOM      1  C   UNL     1      35.365 -19.305 -21.409  0.00  0.00    +0.018 C 
ATOM      2  C   UNL     1      35.120 -21.095 -19.283  0.00  0.00    +0.069 C 
ATOM      3  C   UNL     1      34.102 -19.722 -20.990  0.00  0.00    -0.000 C 
ATOM      4  C   UNL     1      36.506 -19.781 -20.763  0.00  0.00    -0.000 C 
ATOM      5  C   UNL     1      33.980 -20.618 -19.927  0.00  0.00    +0.016 C 
ATOM      6  C   UNL     1      36.384 -20.677 -19.700  0.00  0.00    +0.016 C 
ENDROOT
BRANCH   2   7
ATOM      7  N   UNL     1      34.996 -22.010 -18.194  0.00  0.00    -0.182 N 
BRANCH   7   8
ATOM      8  S   UNL     1      33.552 -22.986 -18.152  0.00  0.00    +0.077 S 
ATOM      9  O   UNL     1      33.778 -24.233 -18.859  0.00  0.00    -0.150 OA
ATOM     10  O   UNL     1      32.406 -22.168 -18.504  0.00  0.00    -0.150 OA
BRANCH   8  11
ATOM     11  C   UNL     1      33.395 -23.386 -16.433  0.00  0.00    +0.125 C 
ATOM     12  C   UNL     1      32.304 -22.910 -15.730  0.00  0.00    +0.020 C 
ATOM     13  C   UNL     1      34.367 -24.162 -15.833  0.00  0.00    +0.020 C 
ATOM     14  C   UNL     1      32.181 -23.224 -14.377  0.00  0.00    +0.001 C 
ATOM     15  C   UNL     1      34.244 -24.477 -14.480  0.00  0.00    +0.001 C 
ATOM     16  C   UNL     1      33.151 -24.008 -13.752  0.00  0.00    +0.000 C 
ENDBRANCH   8  11
ENDBRANCH   7   8
BRANCH   7  17
ATOM     17  C   UNL     1      36.252 -22.664 -17.710  0.00  0.00    +0.219 C 
BRANCH  17  21
ATOM     18  F   UNL     1      35.820 -21.429 -15.758  0.00  0.00    -0.168 F 
ATOM     19  F   UNL     1      37.622 -22.655 -15.785  0.00  0.00    -0.168 F 
ATOM     20  F   UNL     1      37.529 -20.820 -16.968  0.00  0.00    -0.168 F 
ATOM     21  C   UNL     1      36.816 -21.887 -16.549  0.00  0.00    +0.417 C 
ENDBRANCH  17  21
ENDBRANCH   7  17
ENDBRANCH   2   7
BRANCH   1  22
ATOM     22  C   UNL     1      35.494 -18.348 -22.546  0.00  0.00    +0.283 C 
BRANCH  22  26
ATOM     23  F   UNL     1      35.303 -16.600 -20.936  0.00  0.00    -0.167 F 
ATOM     24  F   UNL     1      33.624 -16.861 -22.305  0.00  0.00    -0.167 F 
ATOM     25  F   UNL     1      35.482 -15.987 -23.019  0.00  0.00    -0.167 F 
ATOM     26  C   UNL     1      34.968 -16.937 -22.202  0.00  0.00    +0.431 C 
ENDBRANCH  22  26
BRANCH  22  30
ATOM     27  F   UNL     1      33.483 -18.928 -23.686  0.00  0.00    -0.167 F 
ATOM     28  F   UNL     1      35.251 -20.099 -24.181  0.00  0.00    -0.167 F 
ATOM     29  F   UNL     1      35.076 -18.053 -24.892  0.00  0.00    -0.167 F 
ATOM     30  C   UNL     1      34.824 -18.860 -23.840  0.00  0.00    +0.431 C 
ENDBRANCH  22  30
BRANCH  22  31
ATOM     31  O   UNL     1      36.884 -18.147 -22.905  0.00  0.00    -0.369 OA
ATOM     32  H   UNL     1      37.391 -17.911 -22.113  0.00  0.00    +0.211 HD
ENDBRANCH  22  31
ENDBRANCH   1  22
TORSDOF 9
ENDMDL
MODEL 3
REMARK VINA RESULT:      -9.4      6.260     10.918
REMARK  Name = 447912
REMARK  9 active torsions:
REMARK  status: ('A' for Active; 'I' for Inactive)
REMARK    1  A    between atoms: C_1  and  C_22
REMARK    2  A    between atoms: C_2  and  N_7
REMARK    3  A    between atoms: N_7  and  S_8
REMARK    4  A    between atoms: N_7  and  C_17
REMARK    5  A    between atoms: S_8  and  C_11
REMARK    6  A    between atoms: C_17  and  C_21
REMARK    7  A    between atoms: C_22  and  C_26
REMARK    8  A    between atoms: C_22  and  C_30
REMARK    9  A    between atoms: C_22  and  O_31
REMARK                            x       y       z     vdW  Elec       q    Type
REMARK                         _______ _______ _______ _____ _____    ______ ____
ROOT
ATOM      1  C   UNL     1      34.494 -15.997 -22.939  0.00  0.00    +0.018 C 
ATOM      2  C   UNL     1      33.523 -13.381 -22.892  0.00  0.00    +0.069 C 
ATOM      3  C   UNL     1      34.729 -15.184 -21.829  0.00  0.00    -0.000 C 
ATOM      4  C   UNL     1      33.771 -15.501 -24.024  0.00  0.00    -0.000 C 
ATOM      5  C   UNL     1      34.244 -13.876 -21.807  0.00  0.00    +0.016 C 
ATOM      6  C   UNL     1      33.286 -14.194 -24.001  0.00  0.00    +0.016 C 
ENDROOT
BRANCH   2   7
ATOM      7  N   UNL     1      33.025 -12.043 -22.869  0.00  0.00    -0.182 N 
BRANCH   7   8
ATOM      8  S   UNL     1      33.661 -10.950 -24.069  0.00  0.00    +0.077 S 
ATOM      9  O   UNL     1      33.068 -11.236 -25.362  0.00  0.00    -0.150 OA
ATOM     10  O   UNL     1      35.106 -10.887 -23.949  0.00  0.00    -0.150 OA
BRANCH   8  11
ATOM     11  C   UNL     1      33.029  -9.379 -23.546  0.00  0.00    +0.125 C 
ATOM     12  C   UNL     1      31.706  -9.070 -23.798  0.00  0.00    +0.020 C 
ATOM     13  C   UNL     1      33.874  -8.497 -22.900  0.00  0.00    +0.020 C 
ATOM     14  C   UNL     1      31.209  -7.833 -23.387  0.00  0.00    +0.001 C 
ATOM     15  C   UNL     1      33.377  -7.260 -22.489  0.00  0.00    +0.001 C 
ATOM     16  C   UNL     1      32.044  -6.928 -22.732  0.00  0.00    +0.000 C 
ENDBRANCH   8  11
ENDBRANCH   7   8
BRANCH   7  17
ATOM     17  C   UNL     1      31.585 -11.861 -22.503  0.00  0.00    +0.219 C 
BRANCH  17  21
ATOM     18  F   UNL     1      30.182 -11.300 -20.703  0.00  0.00    -0.168 F 
ATOM     19  F   UNL     1      31.925 -12.533 -20.263  0.00  0.00    -0.168 F 
ATOM     20  F   UNL     1      32.173 -10.412 -20.731  0.00  0.00    -0.168 F 
ATOM     21  C   UNL     1      31.472 -11.524 -21.038  0.00  0.00    +0.417 C 
ENDBRANCH  17  21
ENDBRANCH   7  17
ENDBRANCH   2   7
BRANCH   1  22
ATOM     22  C   UNL     1      35.013 -17.394 -22.962  0.00  0.00    +0.283 C 
BRANCH  22  26
ATOM     23  F   UNL     1      35.468 -19.262 -24.371  0.00  0.00    -0.167 F 
ATOM     24  F   UNL     1      35.219 -17.331 -25.354  0.00  0.00    -0.167 F 
ATOM     25  F   UNL     1      33.488 -18.372 -24.549  0.00  0.00    -0.167 F 
ATOM     26  C   UNL     1      34.794 -18.092 -24.323  0.00  0.00    +0.431 C 
ENDBRANCH  22  26
BRANCH  22  30
ATOM     27  F   UNL     1      35.365 -18.460 -20.858  0.00  0.00    -0.167 F 
ATOM     28  F   UNL     1      34.056 -19.490 -22.261  0.00  0.00    -0.167 F 
ATOM     29  F   UNL     1      33.359 -17.697 -21.248  0.00  0.00    -0.167 F 
ATOM     30  C   UNL     1      34.439 -18.267 -21.824  0.00  0.00    +0.431 C 
ENDBRANCH  22  30
BRANCH  22  31
ATOM     31  O   UNL     1      36.448 -17.423 -22.760  0.00  0.00    -0.369 OA
ATOM     32  H   UNL     1      36.648 -17.200 -21.838  0.00  0.00    +0.211 HD
ENDBRANCH  22  31
ENDBRANCH   1  22
TORSDOF 9
ENDMDL
MODEL 4
REMARK VINA RESULT:      -9.3      7.156     10.780
REMARK  Name = 447912
REMARK  9 active torsions:
REMARK  status: ('A' for Active; 'I' for Inactive)
REMARK    1  A    between atoms: C_1  and  C_22
REMARK    2  A    between atoms: C_2  and  N_7
REMARK    3  A    between atoms: N_7  and  S_8
REMARK    4  A    between atoms: N_7  and  C_17
REMARK    5  A    between atoms: S_8  and  C_11
REMARK    6  A    between atoms: C_17  and  C_21
REMARK    7  A    between atoms: C_22  and  C_26
REMARK    8  A    between atoms: C_22  and  C_30
REMARK    9  A    between atoms: C_22  and  O_31
REMARK                            x       y       z     vdW  Elec       q    Type
REMARK                         _______ _______ _______ _____ _____    ______ ____
ROOT
ATOM      1  C   UNL     1      33.101  -9.682 -23.464  0.00  0.00    +0.018 C 
ATOM      2  C   UNL     1      33.308 -12.463 -23.545  0.00  0.00    +0.069 C 
ATOM      3  C   UNL     1      34.096 -10.286 -24.233  0.00  0.00    -0.000 C 
ATOM      4  C   UNL     1      32.208 -10.470 -22.737  0.00  0.00    -0.000 C 
ATOM      5  C   UNL     1      34.200 -11.676 -24.273  0.00  0.00    +0.016 C 
ATOM      6  C   UNL     1      32.312 -11.860 -22.777  0.00  0.00    +0.016 C 
ENDROOT
BRANCH   2   7
ATOM      7  N   UNL     1      33.413 -13.887 -23.587  0.00  0.00    -0.182 N 
BRANCH   7   8
ATOM      8  S   UNL     1      33.859 -14.683 -22.102  0.00  0.00    +0.077 S 
ATOM      9  O   UNL     1      32.693 -14.830 -21.250  0.00  0.00    -0.150 OA
ATOM     10  O   UNL     1      35.058 -14.067 -21.563  0.00  0.00    -0.150 OA
BRANCH   8  11
ATOM     11  C   UNL     1      34.311 -16.309 -22.645  0.00  0.00    +0.125 C 
ATOM     12  C   UNL     1      34.214 -17.364 -21.759  0.00  0.00    +0.020 C 
ATOM     13  C   UNL     1      34.754 -16.483 -23.942  0.00  0.00    +0.020 C 
ATOM     14  C   UNL     1      34.570 -18.643 -22.187  0.00  0.00    +0.001 C 
ATOM     15  C   UNL     1      35.110 -17.762 -24.370  0.00  0.00    +0.001 C 
ATOM     16  C   UNL     1      35.019 -18.842 -23.492  0.00  0.00    +0.000 C 
ENDBRANCH   8  11
ENDBRANCH   7   8
BRANCH   7  17
ATOM     17  C   UNL     1      32.442 -14.614 -24.463  0.00  0.00    +0.219 C 
BRANCH  17  21
ATOM     18  F   UNL     1      32.591 -15.679 -26.553  0.00  0.00    -0.168 F 
ATOM     19  F   UNL     1      32.292 -13.520 -26.552  0.00  0.00    -0.168 F 
ATOM     20  F   UNL     1      34.230 -14.356 -25.986  0.00  0.00    -0.168 F 
ATOM     21  C   UNL     1      32.895 -14.536 -25.898  0.00  0.00    +0.417 C 
ENDBRANCH  17  21
ENDBRANCH   7  17
ENDBRANCH   2   7
BRANCH   1  22
ATOM     22  C   UNL     1      32.991  -8.195 -23.421  0.00  0.00    +0.283 C 
BRANCH  22  26
ATOM     23  F   UNL     1      33.941  -6.221 -24.359  0.00  0.00    -0.167 F 
ATOM     24  F   UNL     1      34.733  -8.125 -25.073  0.00  0.00    -0.167 F 
ATOM     25  F   UNL     1      35.243  -7.413 -23.083  0.00  0.00    -0.167 F 
ATOM     26  C   UNL     1      34.240  -7.487 -23.990  0.00  0.00    +0.431 C 
ENDBRANCH  22  26
BRANCH  22  30
ATOM     27  F   UNL     1      31.407  -7.958 -21.654  0.00  0.00    -0.167 F 
ATOM     28  F   UNL     1      32.804  -6.311 -21.933  0.00  0.00    -0.167 F 
ATOM     29  F   UNL     1      33.498  -8.184 -21.074  0.00  0.00    -0.167 F 
ATOM     30  C   UNL     1      32.677  -7.657 -22.007  0.00  0.00    +0.431 C 
ENDBRANCH  22  30
BRANCH  22  31
ATOM     31  O   UNL     1      31.894  -7.728 -24.245  0.00  0.00    -0.369 OA
ATOM     32  H   UNL     1      31.088  -7.675 -23.709  0.00  0.00    +0.211 HD
ENDBRANCH  22  31
ENDBRANCH   1  22
TORSDOF 9
ENDMDL
MODEL 5
REMARK VINA RESULT:      -9.2      5.219      8.571
REMARK  Name = 447912
REMARK  9 active torsions:
REMARK  status: ('A' for Active; 'I' for Inactive)
REMARK    1  A    between atoms: C_1  and  C_22
REMARK    2  A    between atoms: C_2  and  N_7
REMARK    3  A    between atoms: N_7  and  S_8
REMARK    4  A    between atoms: N_7  and  C_17
REMARK    5  A    between atoms: S_8  and  C_11
REMARK    6  A    between atoms: C_17  and  C_21
REMARK    7  A    between atoms: C_22  and  C_26
REMARK    8  A    between atoms: C_22  and  C_30
REMARK    9  A    between atoms: C_22  and  O_31
REMARK                            x       y       z     vdW  Elec       q    Type
REMARK                         _______ _______ _______ _____ _____    ______ ____
ROOT
ATOM      1  C   UNL     1      36.744 -24.434 -14.173  0.00  0.00    +0.018 C 
ATOM      2  C   UNL     1      34.121 -24.042 -15.038  0.00  0.00    +0.069 C 
ATOM      3  C   UNL     1      36.072 -23.256 -13.850  0.00  0.00    -0.000 C 
ATOM      4  C   UNL     1      36.103 -25.418 -14.927  0.00  0.00    -0.000 C 
ATOM      5  C   UNL     1      34.760 -23.059 -14.283  0.00  0.00    +0.016 C 
ATOM      6  C   UNL     1      34.792 -25.221 -15.360  0.00  0.00    +0.016 C 
ENDROOT
BRANCH   2   7
ATOM      7  N   UNL     1      32.777 -23.842 -15.480  0.00  0.00    -0.182 N 
BRANCH   7   8
ATOM      8  S   UNL     1      31.516 -24.157 -14.319  0.00  0.00    +0.077 S 
ATOM      9  O   UNL     1      31.620 -23.225 -13.211  0.00  0.00    -0.150 OA
ATOM     10  O   UNL     1      31.454 -25.581 -14.046  0.00  0.00    -0.150 OA
BRANCH   8  11
ATOM     11  C   UNL     1      30.043 -23.736 -15.212  0.00  0.00    +0.125 C 
ATOM     12  C   UNL     1      29.531 -24.638 -16.124  0.00  0.00    +0.020 C 
ATOM     13  C   UNL     1      29.443 -22.514 -14.977  0.00  0.00    +0.020 C 
ATOM     14  C   UNL     1      28.373 -24.307 -16.827  0.00  0.00    +0.001 C 
ATOM     15  C   UNL     1      28.284 -22.183 -15.680  0.00  0.00    +0.001 C 
ATOM     16  C   UNL     1      27.749 -23.079 -16.605  0.00  0.00    +0.000 C 
ENDBRANCH   8  11
ENDBRANCH   7   8
BRANCH   7  17
ATOM     17  C   UNL     1      32.537 -22.710 -16.430  0.00  0.00    +0.219 C 
BRANCH  17  21
ATOM     18  F   UNL     1      32.849 -22.165 -18.694  0.00  0.00    -0.168 F 
ATOM     19  F   UNL     1      34.632 -22.588 -17.515  0.00  0.00    -0.168 F 
ATOM     20  F   UNL     1      33.289 -24.213 -18.091  0.00  0.00    -0.168 F 
ATOM     21  C   UNL     1      33.336 -22.925 -17.689  0.00  0.00    +0.417 C 
ENDBRANCH  17  21
ENDBRANCH   7  17
ENDBRANCH   2   7
BRANCH   1  22
ATOM     22  C   UNL     1      38.146 -24.643 -13.711  0.00  0.00    +0.283 C 
BRANCH  22  26
ATOM     23  F   UNL     1      38.912 -23.807 -15.807  0.00  0.00    -0.167 F 
ATOM     24  F   UNL     1      39.072 -25.960 -15.493  0.00  0.00    -0.167 F 
ATOM     25  F   UNL     1      40.432 -24.608 -14.468  0.00  0.00    -0.167 F 
ATOM     26  C   UNL     1      39.151 -24.760 -14.878  0.00  0.00    +0.431 C 
ENDBRANCH  22  26
BRANCH  22  30
ATOM     27  F   UNL     1      37.945 -25.522 -11.503  0.00  0.00    -0.167 F 
ATOM     28  F   UNL     1      39.564 -26.320 -12.722  0.00  0.00    -0.167 F 
ATOM     29  F   UNL     1      37.509 -26.888 -13.147  0.00  0.00    -0.167 F 
ATOM     30  C   UNL     1      38.292 -25.857 -12.766  0.00  0.00    +0.431 C 
ENDBRANCH  22  30
BRANCH  22  31
ATOM     31  O   UNL     1      38.614 -23.513 -12.933  0.00  0.00    -0.369 OA
ATOM     32  H   UNL     1      39.442 -23.749 -12.487  0.00  0.00    +0.211 HD
ENDBRANCH  22  31
ENDBRANCH   1  22
TORSDOF 9
ENDMDL
MODEL 6
REMARK VINA RESULT:      -9.1      5.652      8.922
REMARK  Name = 447912
REMARK  9 active torsions:
REMARK  status: ('A' for Active; 'I' for Inactive)
REMARK    1  A    between atoms: C_1  and  C_22
REMARK    2  A    between atoms: C_2  and  N_7
REMARK    3  A    between atoms: N_7  and  S_8
REMARK    4  A    between atoms: N_7  and  C_17
REMARK    5  A    between atoms: S_8  and  C_11
REMARK    6  A    between atoms: C_17  and  C_21
REMARK    7  A    between atoms: C_22  and  C_26
REMARK    8  A    between atoms: C_22  and  C_30
REMARK    9  A    between atoms: C_22  and  O_31
REMARK                            x       y       z     vdW  Elec       q    Type
REMARK                         _______ _______ _______ _____ _____    ______ ____
ROOT
ATOM      1  C   UNL     1      36.102 -24.751 -13.355  0.00  0.00    +0.018 C 
ATOM      2  C   UNL     1      33.639 -24.180 -14.536  0.00  0.00    +0.069 C 
ATOM      3  C   UNL     1      35.033 -24.319 -12.568  0.00  0.00    -0.000 C 
ATOM      4  C   UNL     1      35.937 -24.899 -14.732  0.00  0.00    -0.000 C 
ATOM      5  C   UNL     1      33.802 -24.033 -13.159  0.00  0.00    +0.016 C 
ATOM      6  C   UNL     1      34.706 -24.613 -15.323  0.00  0.00    +0.016 C 
ENDROOT
BRANCH   2   7
ATOM      7  N   UNL     1      32.379 -23.889 -15.141  0.00  0.00    -0.182 N 
BRANCH   7   8
ATOM      8  S   UNL     1      30.956 -24.384 -14.265  0.00  0.00    +0.077 S 
ATOM      9  O   UNL     1      30.886 -23.680 -12.998  0.00  0.00    -0.150 OA
ATOM     10  O   UNL     1      30.859 -25.832 -14.278  0.00  0.00    -0.150 OA
BRANCH   8  11
ATOM     11  C   UNL     1      29.636 -23.767 -15.274  0.00  0.00    +0.125 C 
ATOM     12  C   UNL     1      29.200 -24.523 -16.345  0.00  0.00    +0.020 C 
ATOM     13  C   UNL     1      29.073 -22.543 -14.967  0.00  0.00    +0.020 C 
ATOM     14  C   UNL     1      28.162 -24.037 -17.139  0.00  0.00    +0.001 C 
ATOM     15  C   UNL     1      28.034 -22.057 -15.761  0.00  0.00    +0.001 C 
ATOM     16  C   UNL     1      27.579 -22.804 -16.847  0.00  0.00    +0.000 C 
ENDBRANCH   8  11
ENDBRANCH   7   8
BRANCH   7  17
ATOM     17  C   UNL     1      32.274 -22.607 -15.906  0.00  0.00    +0.219 C 
BRANCH  17  21
ATOM     18  F   UNL     1      34.031 -22.494 -17.463  0.00  0.00    -0.168 F 
ATOM     19  F   UNL     1      32.594 -24.115 -17.696  0.00  0.00    -0.168 F 
ATOM     20  F   UNL     1      32.022 -22.065 -18.193  0.00  0.00    -0.168 F 
ATOM     21  C   UNL     1      32.728 -22.823 -17.327  0.00  0.00    +0.417 C 
ENDBRANCH  17  21
ENDBRANCH   7  17
ENDBRANCH   2   7
BRANCH   1  22
ATOM     22  C   UNL     1      37.417 -25.056 -12.722  0.00  0.00    +0.283 C 
BRANCH  22  26
ATOM     23  F   UNL     1      37.744 -22.699 -12.581  0.00  0.00    -0.167 F 
ATOM     24  F   UNL     1      39.330 -23.959 -11.770  0.00  0.00    -0.167 F 
ATOM     25  F   UNL     1      37.449 -23.753 -10.697  0.00  0.00    -0.167 F 
ATOM     26  C   UNL     1      37.993 -23.859 -11.933  0.00  0.00    +0.431 C 
ENDBRANCH  22  26
BRANCH  22  30
ATOM     27  F   UNL     1      38.819 -24.592 -14.594  0.00  0.00    -0.167 F 
ATOM     28  F   UNL     1      37.993 -26.603 -14.476  0.00  0.00    -0.167 F 
ATOM     29  F   UNL     1      39.586 -26.006 -13.122  0.00  0.00    -0.167 F 
ATOM     30  C   UNL     1      38.464 -25.572 -13.734  0.00  0.00    +0.431 C 
ENDBRANCH  22  30
BRANCH  22  31
ATOM     31  O   UNL     1      37.294 -26.118 -11.744  0.00  0.00    -0.369 OA
ATOM     32  H   UNL     1      37.187 -26.966 -12.202  0.00  0.00    +0.211 HD
ENDBRANCH  22  31
ENDBRANCH   1  22
TORSDOF 9
ENDMDL
MODEL 7
REMARK VINA RESULT:      -8.9      5.099      7.474
REMARK  Name = 447912
REMARK  9 active torsions:
REMARK  status: ('A' for Active; 'I' for Inactive)
REMARK    1  A    between atoms: C_1  and  C_22
REMARK    2  A    between atoms: C_2  and  N_7
REMARK    3  A    between atoms: N_7  and  S_8
REMARK    4  A    between atoms: N_7  and  C_17
REMARK    5  A    between atoms: S_8  and  C_11
REMARK    6  A    between atoms: C_17  and  C_21
REMARK    7  A    between atoms: C_22  and  C_26
REMARK    8  A    between atoms: C_22  and  C_30
REMARK    9  A    between atoms: C_22  and  O_31
REMARK                            x       y       z     vdW  Elec       q    Type
REMARK                         _______ _______ _______ _____ _____    ______ ____
ROOT
ATOM      1  C   UNL     1      31.249 -23.273 -15.998  0.00  0.00    +0.018 C 
ATOM      2  C   UNL     1      34.035 -23.366 -15.862  0.00  0.00    +0.069 C 
ATOM      3  C   UNL     1      31.884 -23.428 -14.765  0.00  0.00    -0.000 C 
ATOM      4  C   UNL     1      32.009 -23.162 -17.163  0.00  0.00    -0.000 C 
ATOM      5  C   UNL     1      33.276 -23.475 -14.698  0.00  0.00    +0.016 C 
ATOM      6  C   UNL     1      33.402 -23.209 -17.095  0.00  0.00    +0.016 C 
ENDROOT
BRANCH   2   7
ATOM      7  N   UNL     1      35.460 -23.412 -15.793  0.00  0.00    -0.182 N 
BRANCH   7   8
ATOM      8  S   UNL     1      36.163 -24.824 -15.051  0.00  0.00    +0.077 S 
ATOM      9  O   UNL     1      37.493 -25.054 -15.585  0.00  0.00    -0.150 OA
ATOM     10  O   UNL     1      35.197 -25.907 -15.062  0.00  0.00    -0.150 OA
BRANCH   8  11
ATOM     11  C   UNL     1      36.361 -24.325 -13.362  0.00  0.00    +0.125 C 
ATOM     12  C   UNL     1      35.454 -24.770 -12.419  0.00  0.00    +0.020 C 
ATOM     13  C   UNL     1      37.418 -23.500 -13.026  0.00  0.00    +0.020 C 
ATOM     14  C   UNL     1      35.611 -24.377 -11.090  0.00  0.00    +0.001 C 
ATOM     15  C   UNL     1      37.574 -23.107 -11.697  0.00  0.00    +0.001 C 
ATOM     16  C   UNL     1      36.671 -23.545 -10.729  0.00  0.00    +0.000 C 
ENDBRANCH   8  11
ENDBRANCH   7   8
BRANCH   7  17
ATOM     17  C   UNL     1      36.215 -22.823 -16.944  0.00  0.00    +0.219 C 
BRANCH  17  21
ATOM     18  F   UNL     1      37.386 -20.805 -17.227  0.00  0.00    -0.168 F 
ATOM     19  F   UNL     1      36.996 -21.456 -15.183  0.00  0.00    -0.168 F 
ATOM     20  F   UNL     1      38.490 -22.492 -16.396  0.00  0.00    -0.168 F 
ATOM     21  C   UNL     1      37.281 -21.891 -16.429  0.00  0.00    +0.417 C 
ENDBRANCH  17  21
ENDBRANCH   7  17
ENDBRANCH   2   7
BRANCH   1  22
ATOM     22  C   UNL     1      29.761 -23.223 -16.070  0.00  0.00    +0.283 C 
BRANCH  22  26
ATOM     23  F   UNL     1      29.749 -21.203 -14.804  0.00  0.00    -0.167 F 
ATOM     24  F   UNL     1      29.239 -23.034 -13.733  0.00  0.00    -0.167 F 
ATOM     25  F   UNL     1      27.818 -22.158 -15.126  0.00  0.00    -0.167 F 
ATOM     26  C   UNL     1      29.134 -22.402 -14.921  0.00  0.00    +0.431 C 
ENDBRANCH  22  26
BRANCH  22  30
ATOM     27  F   UNL     1      28.198 -24.688 -17.118  0.00  0.00    -0.167 F 
ATOM     28  F   UNL     1      28.481 -24.945 -14.974  0.00  0.00    -0.167 F 
ATOM     29  F   UNL     1      30.031 -25.592 -16.354  0.00  0.00    -0.167 F 
ATOM     30  C   UNL     1      29.116 -24.626 -16.127  0.00  0.00    +0.431 C 
ENDBRANCH  22  30
BRANCH  22  31
ATOM     31  O   UNL     1      29.316 -22.563 -17.281  0.00  0.00    -0.369 OA
ATOM     32  H   UNL     1      28.866 -23.205 -17.851  0.00  0.00    +0.211 HD
ENDBRANCH  22  31
ENDBRANCH   1  22
TORSDOF 9
ENDMDL
MODEL 8
REMARK VINA RESULT:      -8.7      3.161      8.520
REMARK  Name = 447912
REMARK  9 active torsions:
REMARK  status: ('A' for Active; 'I' for Inactive)
REMARK    1  A    between atoms: C_1  and  C_22
REMARK    2  A    between atoms: C_2  and  N_7
REMARK    3  A    between atoms: N_7  and  S_8
REMARK    4  A    between atoms: N_7  and  C_17
REMARK    5  A    between atoms: S_8  and  C_11
REMARK    6  A    between atoms: C_17  and  C_21
REMARK    7  A    between atoms: C_22  and  C_26
REMARK    8  A    between atoms: C_22  and  C_30
REMARK    9  A    between atoms: C_22  and  O_31
REMARK                            x       y       z     vdW  Elec       q    Type
REMARK                         _______ _______ _______ _____ _____    ______ ____
ROOT
ATOM      1  C   UNL     1      34.742 -20.895 -19.879  0.00  0.00    +0.018 C 
ATOM      2  C   UNL     1      34.423 -18.625 -21.470  0.00  0.00    +0.069 C 
ATOM      3  C   UNL     1      35.860 -20.169 -20.293  0.00  0.00    -0.000 C 
ATOM      4  C   UNL     1      33.465 -20.484 -20.261  0.00  0.00    -0.000 C 
ATOM      5  C   UNL     1      35.700 -19.034 -21.088  0.00  0.00    +0.016 C 
ATOM      6  C   UNL     1      33.305 -19.349 -21.057  0.00  0.00    +0.016 C 
ENDROOT
BRANCH   2   7
ATOM      7  N   UNL     1      34.259 -17.463 -22.284  0.00  0.00    -0.182 N 
BRANCH   7   8
ATOM      8  S   UNL     1      33.838 -15.985 -21.462  0.00  0.00    +0.077 S 
ATOM      9  O   UNL     1      34.949 -15.542 -20.641  0.00  0.00    -0.150 OA
ATOM     10  O   UNL     1      32.523 -16.122 -20.864  0.00  0.00    -0.150 OA
BRANCH   8  11
ATOM     11  C   UNL     1      33.683 -14.823 -22.793  0.00  0.00    +0.125 C 
ATOM     12  C   UNL     1      33.915 -13.484 -22.545  0.00  0.00    +0.020 C 
ATOM     13  C   UNL     1      33.331 -15.283 -24.047  0.00  0.00    +0.020 C 
ATOM     14  C   UNL     1      33.793 -12.570 -23.591  0.00  0.00    +0.001 C 
ATOM     15  C   UNL     1      33.209 -14.370 -25.094  0.00  0.00    +0.001 C 
ATOM     16  C   UNL     1      33.440 -13.013 -24.866  0.00  0.00    +0.000 C 
ENDBRANCH   8  11
ENDBRANCH   7   8
BRANCH   7  17
ATOM     17  C   UNL     1      35.167 -17.328 -23.466  0.00  0.00    +0.219 C 
BRANCH  17  21
ATOM     18  F   UNL     1      35.491 -19.457 -24.409  0.00  0.00    -0.168 F 
ATOM     19  F   UNL     1      33.465 -18.654 -24.428  0.00  0.00    -0.168 F 
ATOM     20  F   UNL     1      34.982 -17.830 -25.768  0.00  0.00    -0.168 F 
ATOM     21  C   UNL     1      34.769 -18.321 -24.529  0.00  0.00    +0.417 C 
ENDBRANCH  17  21
ENDBRANCH   7  17
ENDBRANCH   2   7
BRANCH   1  22
ATOM     22  C   UNL     1      34.914 -22.107 -19.029  0.00  0.00    +0.283 C 
BRANCH  22  26
ATOM     23  F   UNL     1      33.220 -23.691 -18.477  0.00  0.00    -0.167 F 
ATOM     24  F   UNL     1      32.640 -21.588 -18.460  0.00  0.00    -0.167 F 
ATOM     25  F   UNL     1      33.889 -22.383 -16.868  0.00  0.00    -0.167 F 
ATOM     26  C   UNL     1      33.654 -22.440 -18.200  0.00  0.00    +0.431 C 
ENDBRANCH  22  26
BRANCH  22  30
ATOM     27  F   UNL     1      37.287 -22.196 -18.808  0.00  0.00    -0.167 F 
ATOM     28  F   UNL     1      36.127 -22.967 -17.134  0.00  0.00    -0.167 F 
ATOM     29  F   UNL     1      36.229 -20.824 -17.483  0.00  0.00    -0.167 F 
ATOM     30  C   UNL     1      36.147 -22.020 -18.102  0.00  0.00    +0.431 C 
ENDBRANCH  22  30
BRANCH  22  31
ATOM     31  O   UNL     1      35.146 -23.286 -19.840  0.00  0.00    -0.369 OA
ATOM     32  H   UNL     1      34.299 -23.722 -20.024  0.00  0.00    +0.211 HD
ENDBRANCH  22  31
ENDBRANCH   1  22
TORSDOF 9
ENDMDL
MODEL 9
REMARK VINA RESULT:      -8.7      0.901      2.397
REMARK  Name = 447912
REMARK  9 active torsions:
REMARK  status: ('A' for Active; 'I' for Inactive)
REMARK    1  A    between atoms: C_1  and  C_22
REMARK    2  A    between atoms: C_2  and  N_7
REMARK    3  A    between atoms: N_7  and  S_8
REMARK    4  A    between atoms: N_7  and  C_17
REMARK    5  A    between atoms: S_8  and  C_11
REMARK    6  A    between atoms: C_17  and  C_21
REMARK    7  A    between atoms: C_22  and  C_26
REMARK    8  A    between atoms: C_22  and  C_30
REMARK    9  A    between atoms: C_22  and  O_31
REMARK                            x       y       z     vdW  Elec       q    Type
REMARK                         _______ _______ _______ _____ _____    ______ ____
ROOT
ATOM      1  C   UNL     1      34.638 -19.293 -21.389  0.00  0.00    +0.018 C 
ATOM      2  C   UNL     1      34.774 -21.109 -19.275  0.00  0.00    +0.069 C 
ATOM      3  C   UNL     1      33.466 -19.754 -20.788  0.00  0.00    -0.000 C 
ATOM      4  C   UNL     1      35.878 -19.738 -20.930  0.00  0.00    -0.000 C 
ATOM      5  C   UNL     1      33.535 -20.663 -19.732  0.00  0.00    +0.016 C 
ATOM      6  C   UNL     1      35.946 -20.646 -19.874  0.00  0.00    +0.016 C 
ENDROOT
BRANCH   2   7
ATOM      7  N   UNL     1      34.845 -22.037 -18.192  0.00  0.00    -0.182 N 
BRANCH   7   8
ATOM      8  S   UNL     1      33.488 -23.113 -17.994  0.00  0.00    +0.077 S 
ATOM      9  O   UNL     1      33.714 -24.337 -18.742  0.00  0.00    -0.150 OA
ATOM     10  O   UNL     1      32.254 -22.377 -18.194  0.00  0.00    -0.150 OA
BRANCH   8  11
ATOM     11  C   UNL     1      33.567 -23.536 -16.274  0.00  0.00    +0.125 C 
ATOM     12  C   UNL     1      32.568 -23.094 -15.428  0.00  0.00    +0.020 C 
ATOM     13  C   UNL     1      34.627 -24.295 -15.818  0.00  0.00    +0.020 C 
ATOM     14  C   UNL     1      32.630 -23.426 -14.075  0.00  0.00    +0.001 C 
ATOM     15  C   UNL     1      34.689 -24.627 -14.465  0.00  0.00    +0.001 C 
ATOM     16  C   UNL     1      33.690 -24.193 -13.593  0.00  0.00    +0.000 C 
ENDBRANCH   8  11
ENDBRANCH   7   8
BRANCH   7  17
ATOM     17  C   UNL     1      36.193 -22.603 -17.871  0.00  0.00    +0.219 C 
BRANCH  17  21
ATOM     18  F   UNL     1      35.897 -21.477 -15.829  0.00  0.00    -0.168 F 
ATOM     19  F   UNL     1      37.787 -22.521 -16.129  0.00  0.00    -0.168 F 
ATOM     20  F   UNL     1      37.377 -20.667 -17.212  0.00  0.00    -0.168 F 
ATOM     21  C   UNL     1      36.824 -21.811 -16.755  0.00  0.00    +0.417 C 
ENDBRANCH  17  21
ENDBRANCH   7  17
ENDBRANCH   2   7
BRANCH   1  22
ATOM     22  C   UNL     1      34.564 -18.322 -22.518  0.00  0.00    +0.283 C 
BRANCH  22  26
ATOM     23  F   UNL     1      35.334 -19.938 -24.093  0.00  0.00    -0.167 F 
ATOM     24  F   UNL     1      36.825 -18.561 -23.291  0.00  0.00    -0.167 F 
ATOM     25  F   UNL     1      35.365 -17.858 -24.741  0.00  0.00    -0.167 F 
ATOM     26  C   UNL     1      35.533 -18.669 -23.670  0.00  0.00    +0.431 C 
ENDBRANCH  22  26
BRANCH  22  30
ATOM     27  F   UNL     1      33.604 -16.196 -22.025  0.00  0.00    -0.167 F 
ATOM     28  F   UNL     1      35.593 -16.180 -22.913  0.00  0.00    -0.167 F 
ATOM     29  F   UNL     1      35.338 -16.788 -20.841  0.00  0.00    -0.167 F 
ATOM     30  C   UNL     1      34.781 -16.860 -22.068  0.00  0.00    +0.431 C 
ENDBRANCH  22  30
BRANCH  22  31
ATOM     31  O   UNL     1      33.249 -18.328 -23.128  0.00  0.00    -0.369 OA
ATOM     32  H   UNL     1      33.322 -18.053 -24.055  0.00  0.00    +0.211 HD
ENDBRANCH  22  31
ENDBRANCH   1  22
TORSDOF 9
ENDMDL
