MODEL 1
REMARK VINA RESULT:      -7.7      0.000      0.000
REMARK  Name = 445463
REMARK  13 active torsions:
REMARK  status: ('A' for Active; 'I' for Inactive)
REMARK    1  A    between atoms: C_2  and  O_7
REMARK    2  A    between atoms: C_3  and  O_13
REMARK    3  A    between atoms: C_4  and  O_9
REMARK    4  A    between atoms: C_5  and  C_22
REMARK    5  A    between atoms: C_6  and  O_11
REMARK    6  A    between atoms: O_13  and  C_14
REMARK    7  A    between atoms: C_14  and  C_15
REMARK    8  A    between atoms: C_15  and  C_16
REMARK    9  A    between atoms: C_16  and  C_17
REMARK   10  A    between atoms: C_17  and  C_18
REMARK   11  A    between atoms: C_18  and  C_19
REMARK   12  A    between atoms: C_19  and  C_20
REMARK   13  A    between atoms: C_22  and  O_23
REMARK                            x       y       z     vdW  Elec       q    Type
REMARK                         _______ _______ _______ _____ _____    ______ ____
ROOT
ATOM      1  O   UNL     1      38.680 -23.746 -15.391  0.00  0.00    -0.326 OA
ATOM      2  C   UNL     1      36.349 -25.242 -14.633  0.00  0.00    +0.172 C 
ATOM      3  C   UNL     1      36.260 -23.942 -15.434  0.00  0.00    +0.200 C 
ATOM      4  C   UNL     1      37.726 -25.888 -14.776  0.00  0.00    +0.169 C 
ATOM      5  C   UNL     1      38.836 -24.865 -14.518  0.00  0.00    +0.176 C 
ATOM      6  C   UNL     1      37.464 -23.038 -15.163  0.00  0.00    +0.263 C 
ENDROOT
BRANCH   2   7
ATOM      7  O   UNL     1      35.374 -26.166 -15.117  0.00  0.00    -0.379 OA
ATOM      8  H   UNL     1      35.741 -26.661 -15.866  0.00  0.00    +0.211 HD
ENDBRANCH   2   7
BRANCH   4   9
ATOM      9  O   UNL     1      37.845 -26.958 -13.844  0.00  0.00    -0.379 OA
ATOM     10  H   UNL     1      38.639 -26.828 -13.302  0.00  0.00    +0.211 HD
ENDBRANCH   4   9
BRANCH   6  11
ATOM     11  O   UNL     1      37.382 -21.922 -16.047  0.00  0.00    -0.358 OA
ATOM     12  H   UNL     1      36.852 -21.222 -15.635  0.00  0.00    +0.213 HD
ENDBRANCH   6  11
BRANCH   3  13
ATOM     13  O   UNL     1      35.077 -23.235 -15.061  0.00  0.00    -0.349 OA
BRANCH  13  14
ATOM     14  C   UNL     1      34.032 -23.435 -16.002  0.00  0.00    +0.142 C 
BRANCH  14  15
ATOM     15  C   UNL     1      34.482 -22.906 -17.356  0.00  0.00    +0.032 C 
BRANCH  15  16
ATOM     16  C   UNL     1      33.294 -22.619 -18.273  0.00  0.00    +0.003 C 
BRANCH  16  17
ATOM     17  C   UNL     1      33.699 -21.717 -19.442  0.00  0.00    +0.000 C 
BRANCH  17  18
ATOM     18  C   UNL     1      35.196 -21.399 -19.474  0.00  0.00    +0.000 C 
BRANCH  18  19
ATOM     19  C   UNL     1      35.574 -20.360 -20.533  0.00  0.00    +0.000 C 
BRANCH  19  20
ATOM     20  C   UNL     1      34.355 -19.548 -20.973  0.00  0.00    +0.000 C 
ATOM     21  C   UNL     1      34.401 -19.233 -22.458  0.00  0.00    +0.000 C 
ENDBRANCH  19  20
ENDBRANCH  18  19
ENDBRANCH  17  18
ENDBRANCH  16  17
ENDBRANCH  15  16
ENDBRANCH  14  15
ENDBRANCH  13  14
ENDBRANCH   3  13
BRANCH   5  22
ATOM     22  C   UNL     1      40.220 -25.456 -14.769  0.00  0.00    +0.169 C 
BRANCH  22  23
ATOM     23  O   UNL     1      40.326 -25.789 -16.141  0.00  0.00    -0.379 OA
ATOM     24  H   UNL     1      39.443 -25.979 -16.496  0.00  0.00    +0.211 HD
ENDBRANCH  22  23
ENDBRANCH   5  22
TORSDOF 13
ENDMDL
MODEL 2
REMARK VINA RESULT:      -7.6      2.754      4.406
REMARK  Name = 445463
REMARK  13 active torsions:
REMARK  status: ('A' for Active; 'I' for Inactive)
REMARK    1  A    between atoms: C_2  and  O_7
REMARK    2  A    between atoms: C_3  and  O_13
REMARK    3  A    between atoms: C_4  and  O_9
REMARK    4  A    between atoms: C_5  and  C_22
REMARK    5  A    between atoms: C_6  and  O_11
REMARK    6  A    between atoms: O_13  and  C_14
REMARK    7  A    between atoms: C_14  and  C_15
REMARK    8  A    between atoms: C_15  and  C_16
REMARK    9  A    between atoms: C_16  and  C_17
REMARK   10  A    between atoms: C_17  and  C_18
REMARK   11  A    between atoms: C_18  and  C_19
REMARK   12  A    between atoms: C_19  and  C_20
REMARK   13  A    between atoms: C_22  and  O_23
REMARK                            x       y       z     vdW  Elec       q    Type
REMARK                         _______ _______ _______ _____ _____    ______ ____
ROOT
ATOM      1  O   UNL     1      38.763 -23.905 -15.387  0.00  0.00    -0.326 OA
ATOM      2  C   UNL     1      36.361 -25.323 -14.703  0.00  0.00    +0.172 C 
ATOM      3  C   UNL     1      36.341 -24.030 -15.519  0.00  0.00    +0.200 C 
ATOM      4  C   UNL     1      37.722 -26.010 -14.787  0.00  0.00    +0.169 C 
ATOM      5  C   UNL     1      38.852 -25.018 -14.497  0.00  0.00    +0.176 C 
ATOM      6  C   UNL     1      37.560 -23.159 -15.212  0.00  0.00    +0.263 C 
ENDROOT
BRANCH   2   7
ATOM      7  O   UNL     1      35.377 -26.223 -15.214  0.00  0.00    -0.379 OA
ATOM      8  H   UNL     1      34.915 -25.809 -15.959  0.00  0.00    +0.211 HD
ENDBRANCH   2   7
BRANCH   4   9
ATOM      9  O   UNL     1      37.774 -27.074 -13.840  0.00  0.00    -0.379 OA
ATOM     10  H   UNL     1      38.576 -26.987 -13.301  0.00  0.00    +0.211 HD
ENDBRANCH   4   9
BRANCH   6  11
ATOM     11  O   UNL     1      37.545 -22.051 -16.110  0.00  0.00    -0.358 OA
ATOM     12  H   UNL     1      37.591 -21.224 -15.604  0.00  0.00    +0.213 HD
ENDBRANCH   6  11
BRANCH   3  13
ATOM     13  O   UNL     1      35.167 -23.284 -15.199  0.00  0.00    -0.349 OA
BRANCH  13  14
ATOM     14  C   UNL     1      34.261 -23.243 -16.292  0.00  0.00    +0.142 C 
BRANCH  14  15
ATOM     15  C   UNL     1      32.841 -23.372 -15.761  0.00  0.00    +0.032 C 
BRANCH  15  16
ATOM     16  C   UNL     1      32.823 -23.639 -14.257  0.00  0.00    +0.003 C 
BRANCH  16  17
ATOM     17  C   UNL     1      31.978 -24.871 -13.921  0.00  0.00    +0.000 C 
BRANCH  17  18
ATOM     18  C   UNL     1      30.480 -24.574 -13.828  0.00  0.00    +0.000 C 
BRANCH  18  19
ATOM     19  C   UNL     1      29.655 -25.259 -14.921  0.00  0.00    +0.000 C 
BRANCH  19  20
ATOM     20  C   UNL     1      29.042 -24.233 -15.876  0.00  0.00    +0.000 C 
ATOM     21  C   UNL     1      29.186 -22.818 -15.342  0.00  0.00    +0.000 C 
ENDBRANCH  19  20
ENDBRANCH  18  19
ENDBRANCH  17  18
ENDBRANCH  16  17
ENDBRANCH  15  16
ENDBRANCH  14  15
ENDBRANCH  13  14
ENDBRANCH   3  13
BRANCH   5  22
ATOM     22  C   UNL     1      40.225 -25.653 -14.690  0.00  0.00    +0.169 C 
BRANCH  22  23
ATOM     23  O   UNL     1      40.410 -25.920 -16.068  0.00  0.00    -0.379 OA
ATOM     24  H   UNL     1      40.982 -25.238 -16.455  0.00  0.00    +0.211 HD
ENDBRANCH  22  23
ENDBRANCH   5  22
TORSDOF 13
ENDMDL
MODEL 3
REMARK VINA RESULT:      -7.5      7.097     11.743
REMARK  Name = 445463
REMARK  13 active torsions:
REMARK  status: ('A' for Active; 'I' for Inactive)
REMARK    1  A    between atoms: C_2  and  O_7
REMARK    2  A    between atoms: C_3  and  O_13
REMARK    3  A    between atoms: C_4  and  O_9
REMARK    4  A    between atoms: C_5  and  C_22
REMARK    5  A    between atoms: C_6  and  O_11
REMARK    6  A    between atoms: O_13  and  C_14
REMARK    7  A    between atoms: C_14  and  C_15
REMARK    8  A    between atoms: C_15  and  C_16
REMARK    9  A    between atoms: C_16  and  C_17
REMARK   10  A    between atoms: C_17  and  C_18
REMARK   11  A    between atoms: C_18  and  C_19
REMARK   12  A    between atoms: C_19  and  C_20
REMARK   13  A    between atoms: C_22  and  O_23
REMARK                            x       y       z     vdW  Elec       q    Type
REMARK                         _______ _______ _______ _____ _____    ______ ____
ROOT
ATOM      1  O   UNL     1      33.975 -15.521 -26.133  0.00  0.00    -0.326 OA
ATOM      2  C   UNL     1      33.867 -15.067 -23.299  0.00  0.00    +0.172 C 
ATOM      3  C   UNL     1      34.591 -16.270 -23.907  0.00  0.00    +0.200 C 
ATOM      4  C   UNL     1      33.723 -13.936 -24.316  0.00  0.00    +0.169 C 
ATOM      5  C   UNL     1      33.155 -14.462 -25.637  0.00  0.00    +0.176 C 
ATOM      6  C   UNL     1      33.996 -16.650 -25.263  0.00  0.00    +0.263 C 
ENDROOT
BRANCH   2   7
ATOM      7  O   UNL     1      34.618 -14.572 -22.189  0.00  0.00    -0.379 OA
ATOM      8  H   UNL     1      34.979 -15.318 -21.684  0.00  0.00    +0.211 HD
ENDBRANCH   2   7
BRANCH   4   9
ATOM      9  O   UNL     1      32.852 -12.938 -23.792  0.00  0.00    -0.379 OA
ATOM     10  H   UNL     1      32.682 -12.268 -24.472  0.00  0.00    +0.211 HD
ENDBRANCH   4   9
BRANCH   6  11
ATOM     11  O   UNL     1      34.809 -17.678 -25.827  0.00  0.00    -0.358 OA
ATOM     12  H   UNL     1      34.360 -18.532 -25.735  0.00  0.00    +0.213 HD
ENDBRANCH   6  11
BRANCH   3  13
ATOM     13  O   UNL     1      34.464 -17.392 -23.032  0.00  0.00    -0.349 OA
BRANCH  13  14
ATOM     14  C   UNL     1      35.702 -17.716 -22.417  0.00  0.00    +0.142 C 
BRANCH  14  15
ATOM     15  C   UNL     1      35.432 -18.574 -21.191  0.00  0.00    +0.032 C 
BRANCH  15  16
ATOM     16  C   UNL     1      34.547 -19.774 -21.524  0.00  0.00    +0.003 C 
BRANCH  16  17
ATOM     17  C   UNL     1      33.258 -19.759 -20.698  0.00  0.00    +0.000 C 
BRANCH  17  18
ATOM     18  C   UNL     1      33.164 -20.911 -19.695  0.00  0.00    +0.000 C 
BRANCH  18  19
ATOM     19  C   UNL     1      34.309 -21.919 -19.817  0.00  0.00    +0.000 C 
BRANCH  19  20
ATOM     20  C   UNL     1      35.154 -21.954 -18.542  0.00  0.00    +0.000 C 
ATOM     21  C   UNL     1      36.564 -21.446 -18.793  0.00  0.00    +0.000 C 
ENDBRANCH  19  20
ENDBRANCH  18  19
ENDBRANCH  17  18
ENDBRANCH  16  17
ENDBRANCH  15  16
ENDBRANCH  14  15
ENDBRANCH  13  14
ENDBRANCH   3  13
BRANCH   5  22
ATOM     22  C   UNL     1      33.111 -13.374 -26.706  0.00  0.00    +0.169 C 
BRANCH  22  23
ATOM     23  O   UNL     1      33.851 -13.815 -27.829  0.00  0.00    -0.379 OA
ATOM     24  H   UNL     1      34.793 -13.849 -27.603  0.00  0.00    +0.211 HD
ENDBRANCH  22  23
ENDBRANCH   5  22
TORSDOF 13
ENDMDL
MODEL 4
REMARK VINA RESULT:      -7.5      1.924      2.418
REMARK  Name = 445463
REMARK  13 active torsions:
REMARK  status: ('A' for Active; 'I' for Inactive)
REMARK    1  A    between atoms: C_2  and  O_7
REMARK    2  A    between atoms: C_3  and  O_13
REMARK    3  A    between atoms: C_4  and  O_9
REMARK    4  A    between atoms: C_5  and  C_22
REMARK    5  A    between atoms: C_6  and  O_11
REMARK    6  A    between atoms: O_13  and  C_14
REMARK    7  A    between atoms: C_14  and  C_15
REMARK    8  A    between atoms: C_15  and  C_16
REMARK    9  A    between atoms: C_16  and  C_17
REMARK   10  A    between atoms: C_17  and  C_18
REMARK   11  A    between atoms: C_18  and  C_19
REMARK   12  A    between atoms: C_19  and  C_20
REMARK   13  A    between atoms: C_22  and  O_23
REMARK                            x       y       z     vdW  Elec       q    Type
REMARK                         _______ _______ _______ _____ _____    ______ ____
ROOT
ATOM      1  O   UNL     1      37.287 -24.072 -14.275  0.00  0.00    -0.326 OA
ATOM      2  C   UNL     1      34.434 -24.083 -13.948  0.00  0.00    +0.172 C 
ATOM      3  C   UNL     1      35.100 -23.806 -15.296  0.00  0.00    +0.200 C 
ATOM      4  C   UNL     1      35.369 -24.854 -13.017  0.00  0.00    +0.169 C 
ATOM      5  C   UNL     1      36.747 -24.189 -12.958  0.00  0.00    +0.176 C 
ATOM      6  C   UNL     1      36.504 -23.227 -15.115  0.00  0.00    +0.263 C 
ENDROOT
BRANCH   2   7
ATOM      7  O   UNL     1      33.261 -24.873 -14.151  0.00  0.00    -0.379 OA
ATOM      8  H   UNL     1      32.577 -24.604 -13.518  0.00  0.00    +0.211 HD
ENDBRANCH   2   7
BRANCH   4   9
ATOM      9  O   UNL     1      34.807 -24.889 -11.708  0.00  0.00    -0.379 OA
ATOM     10  H   UNL     1      35.490 -24.667 -11.057  0.00  0.00    +0.211 HD
ENDBRANCH   4   9
BRANCH   6  11
ATOM     11  O   UNL     1      37.110 -23.133 -16.403  0.00  0.00    -0.358 OA
ATOM     12  H   UNL     1      36.440 -23.289 -17.087  0.00  0.00    +0.213 HD
ENDBRANCH   6  11
BRANCH   3  13
ATOM     13  O   UNL     1      34.318 -22.861 -16.027  0.00  0.00    -0.349 OA
BRANCH  13  14
ATOM     14  C   UNL     1      33.578 -23.489 -17.064  0.00  0.00    +0.142 C 
BRANCH  14  15
ATOM     15  C   UNL     1      33.562 -22.574 -18.280  0.00  0.00    +0.032 C 
BRANCH  15  16
ATOM     16  C   UNL     1      34.976 -22.218 -18.738  0.00  0.00    +0.003 C 
BRANCH  16  17
ATOM     17  C   UNL     1      34.955 -21.109 -19.792  0.00  0.00    +0.000 C 
BRANCH  17  18
ATOM     18  C   UNL     1      33.543 -20.663 -20.180  0.00  0.00    +0.000 C 
BRANCH  18  19
ATOM     19  C   UNL     1      33.523 -19.446 -21.107  0.00  0.00    +0.000 C 
BRANCH  19  20
ATOM     20  C   UNL     1      34.864 -19.271 -21.822  0.00  0.00    +0.000 C 
ATOM     21  C   UNL     1      34.682 -19.149 -23.326  0.00  0.00    +0.000 C 
ENDBRANCH  19  20
ENDBRANCH  18  19
ENDBRANCH  17  18
ENDBRANCH  16  17
ENDBRANCH  15  16
ENDBRANCH  14  15
ENDBRANCH  13  14
ENDBRANCH   3  13
BRANCH   5  22
ATOM     22  C   UNL     1      37.732 -25.005 -12.127  0.00  0.00    +0.169 C 
BRANCH  22  23
ATOM     23  O   UNL     1      37.204 -26.306 -11.949  0.00  0.00    -0.379 OA
ATOM     24  H   UNL     1      36.496 -26.459 -12.594  0.00  0.00    +0.211 HD
ENDBRANCH  22  23
ENDBRANCH   5  22
TORSDOF 13
ENDMDL
MODEL 5
REMARK VINA RESULT:      -7.4      7.287     10.798
REMARK  Name = 445463
REMARK  13 active torsions:
REMARK  status: ('A' for Active; 'I' for Inactive)
REMARK    1  A    between atoms: C_2  and  O_7
REMARK    2  A    between atoms: C_3  and  O_13
REMARK    3  A    between atoms: C_4  and  O_9
REMARK    4  A    between atoms: C_5  and  C_22
REMARK    5  A    between atoms: C_6  and  O_11
REMARK    6  A    between atoms: O_13  and  C_14
REMARK    7  A    between atoms: C_14  and  C_15
REMARK    8  A    between atoms: C_15  and  C_16
REMARK    9  A    between atoms: C_16  and  C_17
REMARK   10  A    between atoms: C_17  and  C_18
REMARK   11  A    between atoms: C_18  and  C_19
REMARK   12  A    between atoms: C_19  and  C_20
REMARK   13  A    between atoms: C_22  and  O_23
REMARK                            x       y       z     vdW  Elec       q    Type
REMARK                         _______ _______ _______ _____ _____    ______ ____
ROOT
ATOM      1  O   UNL     1      35.134 -17.405 -20.683  0.00  0.00    -0.326 OA
ATOM      2  C   UNL     1      34.716 -16.941 -23.486  0.00  0.00    +0.172 C 
ATOM      3  C   UNL     1      35.015 -15.806 -22.507  0.00  0.00    +0.200 C 
ATOM      4  C   UNL     1      35.199 -18.284 -22.941  0.00  0.00    +0.169 C 
ATOM      5  C   UNL     1      34.712 -18.494 -21.505  0.00  0.00    +0.176 C 
ATOM      6  C   UNL     1      34.566 -16.162 -21.089  0.00  0.00    +0.263 C 
ENDROOT
BRANCH   2   7
ATOM      7  O   UNL     1      35.393 -16.694 -24.720  0.00  0.00    -0.379 OA
ATOM      8  H   UNL     1      36.137 -16.091 -24.566  0.00  0.00    +0.211 HD
ENDBRANCH   2   7
BRANCH   4   9
ATOM      9  O   UNL     1      34.702 -19.334 -23.766  0.00  0.00    -0.379 OA
ATOM     10  H   UNL     1      33.872 -19.671 -23.394  0.00  0.00    +0.211 HD
ENDBRANCH   4   9
BRANCH   6  11
ATOM     11  O   UNL     1      35.006 -15.123 -20.215  0.00  0.00    -0.358 OA
ATOM     12  H   UNL     1      35.744 -14.647 -20.625  0.00  0.00    +0.213 HD
ENDBRANCH   6  11
BRANCH   3  13
ATOM     13  O   UNL     1      34.315 -14.630 -22.915  0.00  0.00    -0.349 OA
BRANCH  13  14
ATOM     14  C   UNL     1      32.926 -14.727 -22.637  0.00  0.00    +0.142 C 
BRANCH  14  15
ATOM     15  C   UNL     1      32.375 -13.332 -22.385  0.00  0.00    +0.032 C 
BRANCH  15  16
ATOM     16  C   UNL     1      32.147 -13.074 -20.897  0.00  0.00    +0.003 C 
BRANCH  16  17
ATOM     17  C   UNL     1      31.297 -11.821 -20.673  0.00  0.00    +0.000 C 
BRANCH  17  18
ATOM     18  C   UNL     1      31.597 -11.109 -19.352  0.00  0.00    +0.000 C 
BRANCH  18  19
ATOM     19  C   UNL     1      31.942  -9.628 -19.523  0.00  0.00    +0.000 C 
BRANCH  19  20
ATOM     20  C   UNL     1      31.900  -9.216 -20.995  0.00  0.00    +0.000 C 
ATOM     21  C   UNL     1      32.887  -8.099 -21.291  0.00  0.00    +0.000 C 
ENDBRANCH  19  20
ENDBRANCH  18  19
ENDBRANCH  17  18
ENDBRANCH  16  17
ENDBRANCH  15  16
ENDBRANCH  14  15
ENDBRANCH  13  14
ENDBRANCH   3  13
BRANCH   5  22
ATOM     22  C   UNL     1      35.278 -19.775 -20.899  0.00  0.00    +0.169 C 
BRANCH  22  23
ATOM     23  O   UNL     1      36.404 -19.441 -20.108  0.00  0.00    -0.379 OA
ATOM     24  H   UNL     1      37.178 -19.324 -20.681  0.00  0.00    +0.211 HD
ENDBRANCH  22  23
ENDBRANCH   5  22
TORSDOF 13
ENDMDL
MODEL 6
REMARK VINA RESULT:      -7.4      6.049     10.529
REMARK  Name = 445463
REMARK  13 active torsions:
REMARK  status: ('A' for Active; 'I' for Inactive)
REMARK    1  A    between atoms: C_2  and  O_7
REMARK    2  A    between atoms: C_3  and  O_13
REMARK    3  A    between atoms: C_4  and  O_9
REMARK    4  A    between atoms: C_5  and  C_22
REMARK    5  A    between atoms: C_6  and  O_11
REMARK    6  A    between atoms: O_13  and  C_14
REMARK    7  A    between atoms: C_14  and  C_15
REMARK    8  A    between atoms: C_15  and  C_16
REMARK    9  A    between atoms: C_16  and  C_17
REMARK   10  A    between atoms: C_17  and  C_18
REMARK   11  A    between atoms: C_18  and  C_19
REMARK   12  A    between atoms: C_19  and  C_20
REMARK   13  A    between atoms: C_22  and  O_23
REMARK                            x       y       z     vdW  Elec       q    Type
REMARK                         _______ _______ _______ _____ _____    ______ ____
ROOT
ATOM      1  O   UNL     1      34.128 -14.978 -23.777  0.00  0.00    -0.326 OA
ATOM      2  C   UNL     1      34.261 -15.901 -21.061  0.00  0.00    +0.172 C 
ATOM      3  C   UNL     1      35.117 -16.509 -22.173  0.00  0.00    +0.200 C 
ATOM      4  C   UNL     1      33.800 -14.491 -21.425  0.00  0.00    +0.169 C 
ATOM      5  C   UNL     1      33.191 -14.464 -22.829  0.00  0.00    +0.176 C 
ATOM      6  C   UNL     1      34.451 -16.346 -23.540  0.00  0.00    +0.263 C 
ENDROOT
BRANCH   2   7
ATOM      7  O   UNL     1      35.029 -15.820 -19.860  0.00  0.00    -0.379 OA
ATOM      8  H   UNL     1      35.630 -16.579 -19.808  0.00  0.00    +0.211 HD
ENDBRANCH   2   7
BRANCH   4   9
ATOM      9  O   UNL     1      32.827 -14.053 -20.481  0.00  0.00    -0.379 OA
ATOM     10  H   UNL     1      32.879 -13.089 -20.387  0.00  0.00    +0.211 HD
ENDBRANCH   4   9
BRANCH   6  11
ATOM     11  O   UNL     1      35.368 -16.804 -24.532  0.00  0.00    -0.358 OA
ATOM     12  H   UNL     1      35.454 -16.133 -25.227  0.00  0.00    +0.213 HD
ENDBRANCH   6  11
BRANCH   3  13
ATOM     13  O   UNL     1      35.294 -17.904 -21.926  0.00  0.00    -0.349 OA
BRANCH  13  14
ATOM     14  C   UNL     1      34.061 -18.542 -21.627  0.00  0.00    +0.142 C 
BRANCH  14  15
ATOM     15  C   UNL     1      34.347 -19.914 -21.036  0.00  0.00    +0.032 C 
BRANCH  15  16
ATOM     16  C   UNL     1      33.180 -20.419 -20.188  0.00  0.00    +0.003 C 
BRANCH  16  17
ATOM     17  C   UNL     1      33.571 -21.664 -19.389  0.00  0.00    +0.000 C 
BRANCH  17  18
ATOM     18  C   UNL     1      35.084 -21.836 -19.231  0.00  0.00    +0.000 C 
BRANCH  18  19
ATOM     19  C   UNL     1      35.508 -22.226 -17.813  0.00  0.00    +0.000 C 
BRANCH  19  20
ATOM     20  C   UNL     1      36.892 -21.669 -17.476  0.00  0.00    +0.000 C 
ATOM     21  C   UNL     1      37.341 -22.095 -16.088  0.00  0.00    +0.000 C 
ENDBRANCH  19  20
ENDBRANCH  18  19
ENDBRANCH  17  18
ENDBRANCH  16  17
ENDBRANCH  15  16
ENDBRANCH  14  15
ENDBRANCH  13  14
ENDBRANCH   3  13
BRANCH   5  22
ATOM     22  C   UNL     1      32.830 -13.045 -23.261  0.00  0.00    +0.169 C 
BRANCH  22  23
ATOM     23  O   UNL     1      31.653 -12.652 -22.580  0.00  0.00    -0.379 OA
ATOM     24  H   UNL     1      31.611 -13.103 -21.722  0.00  0.00    +0.211 HD
ENDBRANCH  22  23
ENDBRANCH   5  22
TORSDOF 13
ENDMDL
MODEL 7
REMARK VINA RESULT:      -7.4      1.649      2.467
REMARK  Name = 445463
REMARK  13 active torsions:
REMARK  status: ('A' for Active; 'I' for Inactive)
REMARK    1  A    between atoms: C_2  and  O_7
REMARK    2  A    between atoms: C_3  and  O_13
REMARK    3  A    between atoms: C_4  and  O_9
REMARK    4  A    between atoms: C_5  and  C_22
REMARK    5  A    between atoms: C_6  and  O_11
REMARK    6  A    between atoms: O_13  and  C_14
REMARK    7  A    between atoms: C_14  and  C_15
REMARK    8  A    between atoms: C_15  and  C_16
REMARK    9  A    between atoms: C_16  and  C_17
REMARK   10  A    between atoms: C_17  and  C_18
REMARK   11  A    between atoms: C_18  and  C_19
REMARK   12  A    between atoms: C_19  and  C_20
REMARK   13  A    between atoms: C_22  and  O_23
REMARK                            x       y       z     vdW  Elec       q    Type
REMARK                         _______ _______ _______ _____ _____    ______ ____
ROOT
ATOM      1  O   UNL     1      37.780 -25.961 -14.684  0.00  0.00    -0.326 OA
ATOM      2  C   UNL     1      36.681 -24.044 -12.850  0.00  0.00    +0.172 C 
ATOM      3  C   UNL     1      35.801 -25.002 -13.654  0.00  0.00    +0.200 C 
ATOM      4  C   UNL     1      38.106 -24.579 -12.720  0.00  0.00    +0.169 C 
ATOM      5  C   UNL     1      38.654 -25.004 -14.085  0.00  0.00    +0.176 C 
ATOM      6  C   UNL     1      36.485 -25.428 -14.953  0.00  0.00    +0.263 C 
ENDROOT
BRANCH   2   7
ATOM      7  O   UNL     1      36.143 -23.894 -11.535  0.00  0.00    -0.379 OA
ATOM      8  H   UNL     1      35.886 -22.970 -11.394  0.00  0.00    +0.211 HD
ENDBRANCH   2   7
BRANCH   4   9
ATOM      9  O   UNL     1      38.943 -23.564 -12.172  0.00  0.00    -0.379 OA
ATOM     10  H   UNL     1      38.534 -23.206 -11.369  0.00  0.00    +0.211 HD
ENDBRANCH   4   9
BRANCH   6  11
ATOM     11  O   UNL     1      35.672 -26.424 -15.572  0.00  0.00    -0.358 OA
ATOM     12  H   UNL     1      34.782 -26.397 -15.189  0.00  0.00    +0.213 HD
ENDBRANCH   6  11
BRANCH   3  13
ATOM     13  O   UNL     1      34.574 -24.352 -13.987  0.00  0.00    -0.349 OA
BRANCH  13  14
ATOM     14  C   UNL     1      34.781 -23.284 -14.900  0.00  0.00    +0.142 C 
BRANCH  14  15
ATOM     15  C   UNL     1      33.549 -23.145 -15.782  0.00  0.00    +0.032 C 
BRANCH  15  16
ATOM     16  C   UNL     1      33.872 -23.414 -17.251  0.00  0.00    +0.003 C 
BRANCH  16  17
ATOM     17  C   UNL     1      35.053 -22.564 -17.725  0.00  0.00    +0.000 C 
BRANCH  17  18
ATOM     18  C   UNL     1      34.801 -21.864 -19.063  0.00  0.00    +0.000 C 
BRANCH  18  19
ATOM     19  C   UNL     1      33.317 -21.633 -19.359  0.00  0.00    +0.000 C 
BRANCH  19  20
ATOM     20  C   UNL     1      33.111 -20.372 -20.200  0.00  0.00    +0.000 C 
ATOM     21  C   UNL     1      34.411 -19.907 -20.836  0.00  0.00    +0.000 C 
ENDBRANCH  19  20
ENDBRANCH  18  19
ENDBRANCH  17  18
ENDBRANCH  16  17
ENDBRANCH  15  16
ENDBRANCH  14  15
ENDBRANCH  13  14
ENDBRANCH   3  13
BRANCH   5  22
ATOM     22  C   UNL     1      40.031 -25.649 -13.966  0.00  0.00    +0.169 C 
BRANCH  22  23
ATOM     23  O   UNL     1      41.012 -24.685 -14.305  0.00  0.00    -0.379 OA
ATOM     24  H   UNL     1      41.563 -24.499 -13.529  0.00  0.00    +0.211 HD
ENDBRANCH  22  23
ENDBRANCH   5  22
TORSDOF 13
ENDMDL
MODEL 8
REMARK VINA RESULT:      -7.3      1.870      3.098
REMARK  Name = 445463
REMARK  13 active torsions:
REMARK  status: ('A' for Active; 'I' for Inactive)
REMARK    1  A    between atoms: C_2  and  O_7
REMARK    2  A    between atoms: C_3  and  O_13
REMARK    3  A    between atoms: C_4  and  O_9
REMARK    4  A    between atoms: C_5  and  C_22
REMARK    5  A    between atoms: C_6  and  O_11
REMARK    6  A    between atoms: O_13  and  C_14
REMARK    7  A    between atoms: C_14  and  C_15
REMARK    8  A    between atoms: C_15  and  C_16
REMARK    9  A    between atoms: C_16  and  C_17
REMARK   10  A    between atoms: C_17  and  C_18
REMARK   11  A    between atoms: C_18  and  C_19
REMARK   12  A    between atoms: C_19  and  C_20
REMARK   13  A    between atoms: C_22  and  O_23
REMARK                            x       y       z     vdW  Elec       q    Type
REMARK                         _______ _______ _______ _____ _____    ______ ____
ROOT
ATOM      1  O   UNL     1      35.281 -23.488 -13.150  0.00  0.00    -0.326 OA
ATOM      2  C   UNL     1      37.258 -23.732 -15.218  0.00  0.00    +0.172 C 
ATOM      3  C   UNL     1      35.909 -23.052 -15.454  0.00  0.00    +0.200 C 
ATOM      4  C   UNL     1      37.619 -23.744 -13.734  0.00  0.00    +0.169 C 
ATOM      5  C   UNL     1      36.451 -24.266 -12.894  0.00  0.00    +0.176 C 
ATOM      6  C   UNL     1      34.841 -23.590 -14.502  0.00  0.00    +0.263 C 
ENDROOT
BRANCH   2   7
ATOM      7  O   UNL     1      38.279 -23.018 -15.916  0.00  0.00    -0.379 OA
ATOM      8  H   UNL     1      39.124 -23.484 -15.820  0.00  0.00    +0.211 HD
ENDBRANCH   2   7
BRANCH   4   9
ATOM      9  O   UNL     1      38.756 -24.579 -13.531  0.00  0.00    -0.379 OA
ATOM     10  H   UNL     1      38.468 -25.502 -13.449  0.00  0.00    +0.211 HD
ENDBRANCH   4   9
BRANCH   6  11
ATOM     11  O   UNL     1      33.658 -22.812 -14.684  0.00  0.00    -0.358 OA
ATOM     12  H   UNL     1      33.273 -23.008 -15.551  0.00  0.00    +0.213 HD
ENDBRANCH   6  11
BRANCH   3  13
ATOM     13  O   UNL     1      35.480 -23.301 -16.793  0.00  0.00    -0.349 OA
BRANCH  13  14
ATOM     14  C   UNL     1      35.511 -22.118 -17.579  0.00  0.00    +0.142 C 
BRANCH  14  15
ATOM     15  C   UNL     1      34.970 -22.434 -18.966  0.00  0.00    +0.032 C 
BRANCH  15  16
ATOM     16  C   UNL     1      34.860 -21.178 -19.829  0.00  0.00    +0.003 C 
BRANCH  16  17
ATOM     17  C   UNL     1      33.401 -20.745 -19.995  0.00  0.00    +0.000 C 
BRANCH  17  18
ATOM     18  C   UNL     1      33.228 -19.524 -20.903  0.00  0.00    +0.000 C 
BRANCH  18  19
ATOM     19  C   UNL     1      34.548 -18.993 -21.466  0.00  0.00    +0.000 C 
BRANCH  19  20
ATOM     20  C   UNL     1      34.654 -19.255 -22.969  0.00  0.00    +0.000 C 
ATOM     21  C   UNL     1      35.087 -18.009 -23.723  0.00  0.00    +0.000 C 
ENDBRANCH  19  20
ENDBRANCH  18  19
ENDBRANCH  17  18
ENDBRANCH  16  17
ENDBRANCH  15  16
ENDBRANCH  14  15
ENDBRANCH  13  14
ENDBRANCH   3  13
BRANCH   5  22
ATOM     22  C   UNL     1      36.745 -24.179 -11.399  0.00  0.00    +0.169 C 
BRANCH  22  23
ATOM     23  O   UNL     1      37.558 -23.044 -11.166  0.00  0.00    -0.379 OA
ATOM     24  H   UNL     1      37.445 -22.748 -10.249  0.00  0.00    +0.211 HD
ENDBRANCH  22  23
ENDBRANCH   5  22
TORSDOF 13
ENDMDL
MODEL 9
REMARK VINA RESULT:      -7.3      6.410     10.966
REMARK  Name = 445463
REMARK  13 active torsions:
REMARK  status: ('A' for Active; 'I' for Inactive)
REMARK    1  A    between atoms: C_2  and  O_7
REMARK    2  A    between atoms: C_3  and  O_13
REMARK    3  A    between atoms: C_4  and  O_9
REMARK    4  A    between atoms: C_5  and  C_22
REMARK    5  A    between atoms: C_6  and  O_11
REMARK    6  A    between atoms: O_13  and  C_14
REMARK    7  A    between atoms: C_14  and  C_15
REMARK    8  A    between atoms: C_15  and  C_16
REMARK    9  A    between atoms: C_16  and  C_17
REMARK   10  A    between atoms: C_17  and  C_18
REMARK   11  A    between atoms: C_18  and  C_19
REMARK   12  A    between atoms: C_19  and  C_20
REMARK   13  A    between atoms: C_22  and  O_23
REMARK                            x       y       z     vdW  Elec       q    Type
REMARK                         _______ _______ _______ _____ _____    ______ ____
ROOT
ATOM      1  O   UNL     1      34.118 -14.824 -22.855  0.00  0.00    -0.326 OA
ATOM      2  C   UNL     1      34.479 -16.869 -24.838  0.00  0.00    +0.172 C 
ATOM      3  C   UNL     1      34.550 -17.163 -23.340  0.00  0.00    +0.200 C 
ATOM      4  C   UNL     1      33.690 -15.590 -25.114  0.00  0.00    +0.169 C 
ATOM      5  C   UNL     1      34.186 -14.443 -24.230  0.00  0.00    +0.176 C 
ATOM      6  C   UNL     1      34.970 -15.924 -22.548  0.00  0.00    +0.263 C 
ENDROOT
BRANCH   2   7
ATOM      7  O   UNL     1      33.821 -17.948 -25.504  0.00  0.00    -0.379 OA
ATOM      8  H   UNL     1      33.010 -17.622 -25.925  0.00  0.00    +0.211 HD
ENDBRANCH   2   7
BRANCH   4   9
ATOM      9  O   UNL     1      33.841 -15.228 -26.484  0.00  0.00    -0.379 OA
ATOM     10  H   UNL     1      33.993 -14.273 -26.551  0.00  0.00    +0.211 HD
ENDBRANCH   4   9
BRANCH   6  11
ATOM     11  O   UNL     1      34.874 -16.236 -21.159  0.00  0.00    -0.358 OA
ATOM     12  H   UNL     1      34.269 -15.612 -20.729  0.00  0.00    +0.213 HD
ENDBRANCH   6  11
BRANCH   3  13
ATOM     13  O   UNL     1      35.512 -18.192 -23.103  0.00  0.00    -0.349 OA
BRANCH  13  14
ATOM     14  C   UNL     1      34.886 -19.428 -22.787  0.00  0.00    +0.142 C 
BRANCH  14  15
ATOM     15  C   UNL     1      34.625 -19.478 -21.289  0.00  0.00    +0.032 C 
BRANCH  15  16
ATOM     16  C   UNL     1      33.179 -19.863 -20.980  0.00  0.00    +0.003 C 
BRANCH  16  17
ATOM     17  C   UNL     1      33.097 -20.772 -19.751  0.00  0.00    +0.000 C 
BRANCH  17  18
ATOM     18  C   UNL     1      34.308 -21.695 -19.594  0.00  0.00    +0.000 C 
BRANCH  18  19
ATOM     19  C   UNL     1      34.284 -22.515 -18.302  0.00  0.00    +0.000 C 
BRANCH  19  20
ATOM     20  C   UNL     1      35.583 -22.344 -17.513  0.00  0.00    +0.000 C 
ATOM     21  C   UNL     1      36.609 -21.543 -18.297  0.00  0.00    +0.000 C 
ENDBRANCH  19  20
ENDBRANCH  18  19
ENDBRANCH  17  18
ENDBRANCH  16  17
ENDBRANCH  15  16
ENDBRANCH  14  15
ENDBRANCH  13  14
ENDBRANCH   3  13
BRANCH   5  22
ATOM     22  C   UNL     1      33.337 -13.187 -24.404  0.00  0.00    +0.169 C 
BRANCH  22  23
ATOM     23  O   UNL     1      34.134 -12.058 -24.094  0.00  0.00    -0.379 OA
ATOM     24  H   UNL     1      34.398 -12.095 -23.162  0.00  0.00    +0.211 HD
ENDBRANCH  22  23
ENDBRANCH   5  22
TORSDOF 13
ENDMDL
