MODEL 1
REMARK VINA RESULT:      -4.6      0.000      0.000
REMARK  Name = 3943211
REMARK  1 active torsions:
REMARK  status: ('A' for Active; 'I' for Inactive)
REMARK    1  A    between atoms: C_14  and  N_28
REMARK                            x       y       z     vdW  Elec       q    Type
REMARK                         _______ _______ _______ _____ _____    ______ ____
ROOT
ATOM      1  O   UNL     1      32.321  -5.689 -22.813  0.00  0.00    -0.470 OA
ATOM      2  O   UNL     1      34.051  -6.512 -24.570  0.00  0.00    -0.470 OA
ATOM      3  O   UNL     1      30.611  -3.459 -23.337  0.00  0.00    -0.346 OA
ATOM      4  O   UNL     1      34.330  -5.224 -27.109  0.00  0.00    -0.346 OA
ATOM      5  O   UNL     1      30.722  -2.334 -25.964  0.00  0.00    -0.470 OA
ATOM      6  O   UNL     1      32.457  -3.153 -27.718  0.00  0.00    -0.470 OA
ATOM      7  C   UNL     1      32.583  -7.036 -22.805  0.00  0.00    +0.174 C 
ATOM      8  C   UNL     1      33.520  -7.483 -23.758  0.00  0.00    +0.172 C 
ATOM      9  C   UNL     1      31.364  -5.196 -21.873  0.00  0.00    +0.237 C 
ATOM     10  C   UNL     1      34.996  -6.926 -25.561  0.00  0.00    +0.237 C 
ATOM     11  C   UNL     1      31.239  -3.692 -22.077  0.00  0.00    +0.189 C 
ATOM     12  C   UNL     1      35.436  -5.689 -26.334  0.00  0.00    +0.189 C 
ATOM     13  C   UNL     1      31.991  -7.957 -21.933  0.00  0.00    +0.055 C 
ATOM     14  C   UNL     1      32.327  -9.310 -22.005  0.00  0.00    +0.054 C 
ATOM     15  C   UNL     1      30.462  -2.064 -23.605  0.00  0.00    +0.189 C 
ATOM     16  C   UNL     1      34.663  -4.056 -27.859  0.00  0.00    +0.189 C 
ATOM     17  C   UNL     1      29.795  -1.904 -24.965  0.00  0.00    +0.237 C 
ATOM     18  C   UNL     1      33.435  -3.625 -28.649  0.00  0.00    +0.237 C 
ATOM     19  C   UNL     1      33.849  -8.842 -23.820  0.00  0.00    +0.041 C 
ATOM     20  C   UNL     1      30.318  -2.273 -27.274  0.00  0.00    +0.172 C 
ATOM     21  C   UNL     1      31.258  -2.716 -28.225  0.00  0.00    +0.172 C 
ATOM     22  C   UNL     1      33.252  -9.750 -22.946  0.00  0.00    +0.018 C 
ATOM     23  C   UNL     1      29.068  -1.809 -27.701  0.00  0.00    +0.040 C 
ATOM     24  C   UNL     1      30.932  -2.686 -29.585  0.00  0.00    +0.040 C 
ATOM     25  C   UNL     1      28.754  -1.786 -29.060  0.00  0.00    +0.003 C 
ATOM     26  C   UNL     1      29.682  -2.223 -29.999  0.00  0.00    +0.003 C 
ENDROOT
BRANCH  14  28
ATOM     27  O   UNL     1      32.573  -9.596 -19.018  0.00  0.00    -0.275 OA
ATOM     28  N   UNL     1      31.735 -10.222 -21.131  0.00  0.00    -0.284 N 
ATOM     29  C   UNL     1      31.887 -10.311 -19.741  0.00  0.00    +0.227 C 
ATOM     30  C   UNL     1      31.074 -11.441 -19.160  0.00  0.00    +0.095 C 
ATOM     31  H   UNL     1      31.136 -10.886 -21.542  0.00  0.00    +0.155 HD
ENDBRANCH  14  28
TORSDOF 1
ENDMDL
MODEL 2
REMARK VINA RESULT:      -3.5      3.533      8.894
REMARK  Name = 3943211
REMARK  1 active torsions:
REMARK  status: ('A' for Active; 'I' for Inactive)
REMARK    1  A    between atoms: C_14  and  N_28
REMARK                            x       y       z     vdW  Elec       q    Type
REMARK                         _______ _______ _______ _____ _____    ______ ____
ROOT
ATOM      1  O   UNL     1      33.660  -7.542 -23.033  0.00  0.00    -0.470 OA
ATOM      2  O   UNL     1      32.343  -8.820 -21.191  0.00  0.00    -0.470 OA
ATOM      3  O   UNL     1      34.952  -8.926 -25.174  0.00  0.00    -0.346 OA
ATOM      4  O   UNL     1      32.129 -11.671 -21.216  0.00  0.00    -0.346 OA
ATOM      5  O   UNL     1      34.527 -11.750 -25.330  0.00  0.00    -0.470 OA
ATOM      6  O   UNL     1      33.217 -13.029 -23.484  0.00  0.00    -0.470 OA
ATOM      7  C   UNL     1      32.586  -6.875 -22.498  0.00  0.00    +0.174 C 
ATOM      8  C   UNL     1      31.871  -7.568 -21.500  0.00  0.00    +0.172 C 
ATOM      9  C   UNL     1      34.402  -6.880 -24.060  0.00  0.00    +0.237 C 
ATOM     10  C   UNL     1      31.638  -9.562 -20.193  0.00  0.00    +0.237 C 
ATOM     11  C   UNL     1      35.527  -7.810 -24.496  0.00  0.00    +0.189 C 
ATOM     12  C   UNL     1      32.337 -10.906 -20.028  0.00  0.00    +0.189 C 
ATOM     13  C   UNL     1      32.176  -5.591 -22.876  0.00  0.00    +0.055 C 
ATOM     14  C   UNL     1      31.068  -4.999 -22.268  0.00  0.00    +0.054 C 
ATOM     15  C   UNL     1      35.949  -9.851 -25.612  0.00  0.00    +0.189 C 
ATOM     16  C   UNL     1      32.765 -12.947 -21.141  0.00  0.00    +0.189 C 
ATOM     17  C   UNL     1      35.254 -11.011 -26.314  0.00  0.00    +0.237 C 
ATOM     18  C   UNL     1      32.500 -13.695 -22.441  0.00  0.00    +0.237 C 
ATOM     19  C   UNL     1      30.762  -6.963 -20.898  0.00  0.00    +0.041 C 
ATOM     20  C   UNL     1      33.820 -12.848 -25.754  0.00  0.00    +0.172 C 
ATOM     21  C   UNL     1      33.111 -13.541 -24.754  0.00  0.00    +0.172 C 
ATOM     22  C   UNL     1      30.363  -5.684 -21.283  0.00  0.00    +0.018 C 
ATOM     23  C   UNL     1      33.770 -13.299 -27.077  0.00  0.00    +0.040 C 
ATOM     24  C   UNL     1      32.365 -14.674 -25.095  0.00  0.00    +0.040 C 
ATOM     25  C   UNL     1      33.022 -14.430 -27.405  0.00  0.00    +0.003 C 
ATOM     26  C   UNL     1      32.321 -15.115 -26.418  0.00  0.00    +0.003 C 
ENDROOT
BRANCH  14  28
ATOM     27  O   UNL     1      30.493  -3.859 -24.995  0.00  0.00    -0.275 OA
ATOM     28  N   UNL     1      30.667  -3.718 -22.648  0.00  0.00    -0.284 N 
ATOM     29  C   UNL     1      30.413  -3.238 -23.940  0.00  0.00    +0.227 C 
ATOM     30  C   UNL     1      30.000  -1.788 -23.927  0.00  0.00    +0.095 C 
ATOM     31  H   UNL     1      30.548  -3.070 -21.917  0.00  0.00    +0.155 HD
ENDBRANCH  14  28
TORSDOF 1
ENDMDL
MODEL 3
REMARK VINA RESULT:      -3.0      2.907      9.095
REMARK  Name = 3943211
REMARK  1 active torsions:
REMARK  status: ('A' for Active; 'I' for Inactive)
REMARK    1  A    between atoms: C_14  and  N_28
REMARK                            x       y       z     vdW  Elec       q    Type
REMARK                         _______ _______ _______ _____ _____    ______ ____
ROOT
ATOM      1  O   UNL     1      33.635  -5.713 -25.040  0.00  0.00    -0.470 OA
ATOM      2  O   UNL     1      32.113  -5.417 -22.953  0.00  0.00    -0.470 OA
ATOM      3  O   UNL     1      34.914  -8.205 -25.611  0.00  0.00    -0.346 OA
ATOM      4  O   UNL     1      31.652  -7.569 -21.126  0.00  0.00    -0.346 OA
ATOM      5  O   UNL     1      34.253 -10.414 -23.921  0.00  0.00    -0.470 OA
ATOM      6  O   UNL     1      32.738 -10.117 -21.830  0.00  0.00    -0.470 OA
ATOM      7  C   UNL     1      32.596  -4.827 -25.181  0.00  0.00    +0.174 C 
ATOM      8  C   UNL     1      31.771  -4.667 -24.050  0.00  0.00    +0.172 C 
ATOM      9  C   UNL     1      34.487  -5.916 -26.170  0.00  0.00    +0.237 C 
ATOM     10  C   UNL     1      31.293  -5.295 -21.788  0.00  0.00    +0.237 C 
ATOM     11  C   UNL     1      35.548  -6.936 -25.778  0.00  0.00    +0.189 C 
ATOM     12  C   UNL     1      31.862  -6.216 -20.716  0.00  0.00    +0.189 C 
ATOM     13  C   UNL     1      32.322  -4.100 -26.345  0.00  0.00    +0.055 C 
ATOM     14  C   UNL     1      31.238  -3.221 -26.387  0.00  0.00    +0.054 C 
ATOM     15  C   UNL     1      35.849  -9.218 -25.236  0.00  0.00    +0.189 C 
ATOM     16  C   UNL     1      32.169  -8.496 -20.171  0.00  0.00    +0.189 C 
ATOM     17  C   UNL     1      35.093 -10.531 -25.072  0.00  0.00    +0.237 C 
ATOM     18  C   UNL     1      31.910  -9.907 -20.682  0.00  0.00    +0.237 C 
ATOM     19  C   UNL     1      30.687  -3.782 -24.104  0.00  0.00    +0.041 C 
ATOM     20  C   UNL     1      33.477 -11.497 -23.590  0.00  0.00    +0.172 C 
ATOM     21  C   UNL     1      32.656 -11.336 -22.456  0.00  0.00    +0.172 C 
ATOM     22  C   UNL     1      30.424  -3.064 -25.270  0.00  0.00    +0.018 C 
ATOM     23  C   UNL     1      33.459 -12.708 -24.291  0.00  0.00    +0.040 C 
ATOM     24  C   UNL     1      31.833 -12.390 -22.044  0.00  0.00    +0.040 C 
ATOM     25  C   UNL     1      32.633 -13.750 -23.870  0.00  0.00    +0.003 C 
ATOM     26  C   UNL     1      31.823 -13.592 -22.751  0.00  0.00    +0.003 C 
ENDROOT
BRANCH  14  28
ATOM     27  O   UNL     1      31.788  -3.886 -29.271  0.00  0.00    -0.275 OA
ATOM     28  N   UNL     1      30.972  -2.498 -27.549  0.00  0.00    -0.284 N 
ATOM     29  C   UNL     1      31.252  -2.857 -28.875  0.00  0.00    +0.227 C 
ATOM     30  C   UNL     1      30.806  -1.795 -29.848  0.00  0.00    +0.095 C 
ATOM     31  H   UNL     1      30.533  -1.626 -27.423  0.00  0.00    +0.155 HD
ENDBRANCH  14  28
TORSDOF 1
ENDMDL
MODEL 4
REMARK VINA RESULT:      -2.9      5.797      9.623
REMARK  Name = 3943211
REMARK  1 active torsions:
REMARK  status: ('A' for Active; 'I' for Inactive)
REMARK    1  A    between atoms: C_14  and  N_28
REMARK                            x       y       z     vdW  Elec       q    Type
REMARK                         _______ _______ _______ _____ _____    ______ ____
ROOT
ATOM      1  O   UNL     1      33.554 -15.278 -23.536  0.00  0.00    -0.470 OA
ATOM      2  O   UNL     1      32.679 -14.370 -21.262  0.00  0.00    -0.470 OA
ATOM      3  O   UNL     1      33.973 -13.546 -25.771  0.00  0.00    -0.346 OA
ATOM      4  O   UNL     1      32.090 -11.596 -20.890  0.00  0.00    -0.346 OA
ATOM      5  O   UNL     1      33.619 -10.745 -25.318  0.00  0.00    -0.470 OA
ATOM      6  O   UNL     1      32.738  -9.837 -23.047  0.00  0.00    -0.470 OA
ATOM      7  C   UNL     1      33.999 -15.940 -22.419  0.00  0.00    +0.174 C 
ATOM      8  C   UNL     1      33.526 -15.448 -21.186  0.00  0.00    +0.172 C 
ATOM      9  C   UNL     1      34.023 -15.736 -24.806  0.00  0.00    +0.237 C 
ATOM     10  C   UNL     1      32.188 -13.831 -20.032  0.00  0.00    +0.237 C 
ATOM     11  C   UNL     1      33.405 -14.850 -25.880  0.00  0.00    +0.189 C 
ATOM     12  C   UNL     1      31.282 -12.652 -20.367  0.00  0.00    +0.189 C 
ATOM     13  C   UNL     1      34.867 -17.039 -22.437  0.00  0.00    +0.055 C 
ATOM     14  C   UNL     1      35.261 -17.644 -21.243  0.00  0.00    +0.054 C 
ATOM     15  C   UNL     1      33.437 -12.651 -26.746  0.00  0.00    +0.189 C 
ATOM     16  C   UNL     1      31.308 -10.454 -21.237  0.00  0.00    +0.189 C 
ATOM     17  C   UNL     1      34.087 -11.287 -26.556  0.00  0.00    +0.237 C 
ATOM     18  C   UNL     1      32.240  -9.381 -21.787  0.00  0.00    +0.237 C 
ATOM     19  C   UNL     1      33.928 -16.064 -19.995  0.00  0.00    +0.041 C 
ATOM     20  C   UNL     1      34.086  -9.508 -24.950  0.00  0.00    +0.172 C 
ATOM     21  C   UNL     1      33.608  -9.015 -23.720  0.00  0.00    +0.172 C 
ATOM     22  C   UNL     1      34.793 -17.157 -20.027  0.00  0.00    +0.018 C 
ATOM     23  C   UNL     1      34.979  -8.737 -25.704  0.00  0.00    +0.040 C 
ATOM     24  C   UNL     1      34.031  -7.761 -23.266  0.00  0.00    +0.040 C 
ATOM     25  C   UNL     1      35.393  -7.488 -25.240  0.00  0.00    +0.003 C 
ATOM     26  C   UNL     1      34.921  -7.002 -24.026  0.00  0.00    +0.003 C 
ENDROOT
BRANCH  14  28
ATOM     27  O   UNL     1      35.041 -20.335 -19.912  0.00  0.00    -0.275 OA
ATOM     28  N   UNL     1      36.123 -18.740 -21.269  0.00  0.00    -0.284 N 
ATOM     29  C   UNL     1      35.971 -19.976 -20.626  0.00  0.00    +0.227 C 
ATOM     30  C   UNL     1      37.130 -20.899 -20.906  0.00  0.00    +0.095 C 
ATOM     31  H   UNL     1      36.941 -18.632 -21.806  0.00  0.00    +0.155 HD
ENDBRANCH  14  28
TORSDOF 1
ENDMDL
MODEL 5
REMARK VINA RESULT:      -2.8      1.547      1.671
REMARK  Name = 3943211
REMARK  1 active torsions:
REMARK  status: ('A' for Active; 'I' for Inactive)
REMARK    1  A    between atoms: C_14  and  N_28
REMARK                            x       y       z     vdW  Elec       q    Type
REMARK                         _______ _______ _______ _____ _____    ______ ____
ROOT
ATOM      1  O   UNL     1      32.780  -6.346 -23.313  0.00  0.00    -0.470 OA
ATOM      2  O   UNL     1      34.642  -6.673 -25.098  0.00  0.00    -0.470 OA
ATOM      3  O   UNL     1      30.859  -4.240 -23.531  0.00  0.00    -0.346 OA
ATOM      4  O   UNL     1      34.860  -4.940 -27.362  0.00  0.00    -0.346 OA
ATOM      5  O   UNL     1      30.931  -2.668 -25.918  0.00  0.00    -0.470 OA
ATOM      6  O   UNL     1      32.797  -2.990 -27.700  0.00  0.00    -0.470 OA
ATOM      7  C   UNL     1      33.184  -7.641 -23.521  0.00  0.00    +0.174 C 
ATOM      8  C   UNL     1      34.193  -7.819 -24.489  0.00  0.00    +0.172 C 
ATOM      9  C   UNL     1      31.748  -6.123 -22.349  0.00  0.00    +0.237 C 
ATOM     10  C   UNL     1      35.656  -6.811 -26.096  0.00  0.00    +0.237 C 
ATOM     11  C   UNL     1      31.469  -4.626 -22.300  0.00  0.00    +0.189 C 
ATOM     12  C   UNL     1      35.985  -5.420 -26.625  0.00  0.00    +0.189 C 
ATOM     13  C   UNL     1      32.667  -8.754 -22.849  0.00  0.00    +0.055 C 
ATOM     14  C   UNL     1      33.147 -10.033 -23.135  0.00  0.00    +0.054 C 
ATOM     15  C   UNL     1      30.571  -2.842 -23.564  0.00  0.00    +0.189 C 
ATOM     16  C   UNL     1      35.090  -3.631 -27.884  0.00  0.00    +0.189 C 
ATOM     17  C   UNL     1      29.933  -2.514 -24.907  0.00  0.00    +0.237 C 
ATOM     18  C   UNL     1      33.848  -3.192 -28.649  0.00  0.00    +0.237 C 
ATOM     19  C   UNL     1      34.666  -9.106 -24.767  0.00  0.00    +0.041 C 
ATOM     20  C   UNL     1      30.563  -2.419 -27.217  0.00  0.00    +0.172 C 
ATOM     21  C   UNL     1      31.575  -2.593 -28.183  0.00  0.00    +0.172 C 
ATOM     22  C   UNL     1      34.142 -10.208 -24.090  0.00  0.00    +0.018 C 
ATOM     23  C   UNL     1      29.285  -2.015 -27.619  0.00  0.00    +0.040 C 
ATOM     24  C   UNL     1      31.289  -2.359 -29.532  0.00  0.00    +0.040 C 
ATOM     25  C   UNL     1      29.013  -1.786 -28.968  0.00  0.00    +0.003 C 
ATOM     26  C   UNL     1      30.011  -1.957 -29.922  0.00  0.00    +0.003 C 
ENDROOT
BRANCH  14  28
ATOM     27  O   UNL     1      33.385 -12.975 -23.729  0.00  0.00    -0.275 OA
ATOM     28  N   UNL     1      32.629 -11.138 -22.459  0.00  0.00    -0.284 N 
ATOM     29  C   UNL     1      32.770 -12.494 -22.782  0.00  0.00    +0.227 C 
ATOM     30  C   UNL     1      32.054 -13.383 -21.796  0.00  0.00    +0.095 C 
ATOM     31  H   UNL     1      32.097 -10.941 -21.655  0.00  0.00    +0.155 HD
ENDBRANCH  14  28
TORSDOF 1
ENDMDL
MODEL 6
REMARK VINA RESULT:      -2.5      5.636     11.332
REMARK  Name = 3943211
REMARK  1 active torsions:
REMARK  status: ('A' for Active; 'I' for Inactive)
REMARK    1  A    between atoms: C_14  and  N_28
REMARK                            x       y       z     vdW  Elec       q    Type
REMARK                         _______ _______ _______ _____ _____    ______ ____
ROOT
ATOM      1  O   UNL     1      32.125 -11.950 -22.352  0.00  0.00    -0.470 OA
ATOM      2  O   UNL     1      32.942 -12.144 -24.813  0.00  0.00    -0.470 OA
ATOM      3  O   UNL     1      32.290 -14.161 -20.548  0.00  0.00    -0.346 OA
ATOM      4  O   UNL     1      34.040 -14.580 -25.833  0.00  0.00    -0.346 OA
ATOM      5  O   UNL     1      33.612 -16.510 -21.501  0.00  0.00    -0.470 OA
ATOM      6  O   UNL     1      34.423 -16.707 -23.963  0.00  0.00    -0.470 OA
ATOM      7  C   UNL     1      32.631 -10.800 -22.904  0.00  0.00    +0.174 C 
ATOM      8  C   UNL     1      33.074 -10.904 -24.238  0.00  0.00    +0.172 C 
ATOM      9  C   UNL     1      31.678 -11.890 -20.996  0.00  0.00    +0.237 C 
ATOM     10  C   UNL     1      33.394 -12.297 -26.161  0.00  0.00    +0.237 C 
ATOM     11  C   UNL     1      31.173 -13.274 -20.609  0.00  0.00    +0.189 C 
ATOM     12  C   UNL     1      33.152 -13.743 -26.575  0.00  0.00    +0.189 C 
ATOM     13  C   UNL     1      32.726  -9.572 -22.239  0.00  0.00    +0.055 C 
ATOM     14  C   UNL     1      33.256  -8.458 -22.891  0.00  0.00    +0.054 C 
ATOM     15  C   UNL     1      31.895 -15.487 -20.194  0.00  0.00    +0.189 C 
ATOM     16  C   UNL     1      33.867 -15.958 -26.161  0.00  0.00    +0.189 C 
ATOM     17  C   UNL     1      33.138 -16.366 -20.160  0.00  0.00    +0.237 C 
ATOM     18  C   UNL     1      34.843 -16.779 -25.328  0.00  0.00    +0.237 C 
ATOM     19  C   UNL     1      33.604  -9.780 -24.881  0.00  0.00    +0.041 C 
ATOM     20  C   UNL     1      34.737 -17.273 -21.698  0.00  0.00    +0.172 C 
ATOM     21  C   UNL     1      35.176 -17.380 -23.032  0.00  0.00    +0.172 C 
ATOM     22  C   UNL     1      33.694  -8.562 -24.207  0.00  0.00    +0.018 C 
ATOM     23  C   UNL     1      35.444 -17.926 -20.682  0.00  0.00    +0.040 C 
ATOM     24  C   UNL     1      36.313 -18.139 -23.326  0.00  0.00    +0.040 C 
ATOM     25  C   UNL     1      36.577 -18.680 -20.988  0.00  0.00    +0.003 C 
ATOM     26  C   UNL     1      37.011 -18.786 -22.306  0.00  0.00    +0.003 C 
ENDROOT
BRANCH  14  28
ATOM     27  O   UNL     1      31.098  -6.574 -21.966  0.00  0.00    -0.275 OA
ATOM     28  N   UNL     1      33.346  -7.237 -22.223  0.00  0.00    -0.284 N 
ATOM     29  C   UNL     1      32.302  -6.395 -21.815  0.00  0.00    +0.227 C 
ATOM     30  C   UNL     1      32.818  -5.160 -21.119  0.00  0.00    +0.095 C 
ATOM     31  H   UNL     1      34.256  -6.927 -22.012  0.00  0.00    +0.155 HD
ENDBRANCH  14  28
TORSDOF 1
ENDMDL
MODEL 7
REMARK VINA RESULT:      -2.1      1.922      2.416
REMARK  Name = 3943211
REMARK  1 active torsions:
REMARK  status: ('A' for Active; 'I' for Inactive)
REMARK    1  A    between atoms: C_14  and  N_28
REMARK                            x       y       z     vdW  Elec       q    Type
REMARK                         _______ _______ _______ _____ _____    ______ ____
ROOT
ATOM      1  O   UNL     1      32.919  -7.508 -22.640  0.00  0.00    -0.470 OA
ATOM      2  O   UNL     1      34.489  -7.559 -24.712  0.00  0.00    -0.470 OA
ATOM      3  O   UNL     1      31.136  -5.324 -22.174  0.00  0.00    -0.346 OA
ATOM      4  O   UNL     1      34.509  -5.430 -26.621  0.00  0.00    -0.346 OA
ATOM      5  O   UNL     1      30.984  -3.323 -24.211  0.00  0.00    -0.470 OA
ATOM      6  O   UNL     1      32.558  -3.369 -26.279  0.00  0.00    -0.470 OA
ATOM      7  C   UNL     1      33.200  -8.754 -23.144  0.00  0.00    +0.174 C 
ATOM      8  C   UNL     1      34.050  -8.782 -24.268  0.00  0.00    +0.172 C 
ATOM      9  C   UNL     1      32.048  -7.435 -21.510  0.00  0.00    +0.237 C 
ATOM     10  C   UNL     1      35.342  -7.542 -25.859  0.00  0.00    +0.237 C 
ATOM     11  C   UNL     1      31.882  -5.966 -21.141  0.00  0.00    +0.189 C 
ATOM     12  C   UNL     1      35.690  -6.090 -26.163  0.00  0.00    +0.189 C 
ATOM     13  C   UNL     1      32.706  -9.955 -22.621  0.00  0.00    +0.055 C 
ATOM     14  C   UNL     1      33.052 -11.172 -23.208  0.00  0.00    +0.054 C 
ATOM     15  C   UNL     1      30.943  -3.935 -21.903  0.00  0.00    +0.189 C 
ATOM     16  C   UNL     1      34.754  -4.055 -26.920  0.00  0.00    +0.189 C 
ATOM     17  C   UNL     1      30.148  -3.326 -23.051  0.00  0.00    +0.237 C 
ATOM     18  C   UNL     1      33.451  -3.426 -27.395  0.00  0.00    +0.237 C 
ATOM     19  C   UNL     1      34.390 -10.010 -24.847  0.00  0.00    +0.041 C 
ATOM     20  C   UNL     1      30.458  -2.811 -25.371  0.00  0.00    +0.172 C 
ATOM     21  C   UNL     1      31.311  -2.836 -26.492  0.00  0.00    +0.172 C 
ATOM     22  C   UNL     1      33.891 -11.199 -24.318  0.00  0.00    +0.018 C 
ATOM     23  C   UNL     1      29.167  -2.285 -25.496  0.00  0.00    +0.040 C 
ATOM     24  C   UNL     1      30.858  -2.333 -27.716  0.00  0.00    +0.040 C 
ATOM     25  C   UNL     1      28.727  -1.787 -26.722  0.00  0.00    +0.003 C 
ATOM     26  C   UNL     1      29.569  -1.811 -27.829  0.00  0.00    +0.003 C 
ENDROOT
BRANCH  14  28
ATOM     27  O   UNL     1      34.428 -13.801 -22.698  0.00  0.00    -0.275 OA
ATOM     28  N   UNL     1      32.558 -12.366 -22.681  0.00  0.00    -0.284 N 
ATOM     29  C   UNL     1      33.247 -13.567 -22.465  0.00  0.00    +0.227 C 
ATOM     30  C   UNL     1      32.351 -14.627 -21.875  0.00  0.00    +0.095 C 
ATOM     31  H   UNL     1      31.606 -12.364 -22.429  0.00  0.00    +0.155 HD
ENDBRANCH  14  28
TORSDOF 1
ENDMDL
MODEL 8
REMARK VINA RESULT:      -1.6      6.581     12.377
REMARK  Name = 3943211
REMARK  1 active torsions:
REMARK  status: ('A' for Active; 'I' for Inactive)
REMARK    1  A    between atoms: C_14  and  N_28
REMARK                            x       y       z     vdW  Elec       q    Type
REMARK                         _______ _______ _______ _____ _____    ______ ____
ROOT
ATOM      1  O   UNL     1      32.936 -12.801 -23.235  0.00  0.00    -0.470 OA
ATOM      2  O   UNL     1      33.247 -13.862 -25.588  0.00  0.00    -0.470 OA
ATOM      3  O   UNL     1      33.088 -14.379 -20.856  0.00  0.00    -0.346 OA
ATOM      4  O   UNL     1      33.752 -16.659 -25.909  0.00  0.00    -0.346 OA
ATOM      5  O   UNL     1      33.836 -17.121 -21.170  0.00  0.00    -0.470 OA
ATOM      6  O   UNL     1      34.141 -18.184 -23.523  0.00  0.00    -0.470 OA
ATOM      7  C   UNL     1      33.502 -11.988 -24.184  0.00  0.00    +0.174 C 
ATOM      8  C   UNL     1      33.671 -12.563 -25.460  0.00  0.00    +0.172 C 
ATOM      9  C   UNL     1      32.760 -12.261 -21.923  0.00  0.00    +0.237 C 
ATOM     10  C   UNL     1      33.415 -14.488 -26.863  0.00  0.00    +0.237 C 
ATOM     11  C   UNL     1      32.128 -13.341 -21.054  0.00  0.00    +0.189 C 
ATOM     12  C   UNL     1      32.882 -15.911 -26.759  0.00  0.00    +0.189 C 
ATOM     13  C   UNL     1      33.905 -10.666 -23.963  0.00  0.00    +0.055 C 
ATOM     14  C   UNL     1      34.471  -9.921 -24.998  0.00  0.00    +0.054 C 
ATOM     15  C   UNL     1      32.565 -15.437 -20.051  0.00  0.00    +0.189 C 
ATOM     16  C   UNL     1      33.311 -18.008 -25.755  0.00  0.00    +0.189 C 
ATOM     17  C   UNL     1      33.644 -16.502 -19.896  0.00  0.00    +0.237 C 
ATOM     18  C   UNL     1      34.287 -18.732 -24.836  0.00  0.00    +0.237 C 
ATOM     19  C   UNL     1      34.240 -11.805 -26.490  0.00  0.00    +0.041 C 
ATOM     20  C   UNL     1      34.774 -18.119 -21.255  0.00  0.00    +0.172 C 
ATOM     21  C   UNL     1      34.939 -18.696 -22.530  0.00  0.00    +0.172 C 
ATOM     22  C   UNL     1      34.638 -10.489 -26.257  0.00  0.00    +0.018 C 
ATOM     23  C   UNL     1      35.547 -18.580 -20.183  0.00  0.00    +0.040 C 
ATOM     24  C   UNL     1      35.873 -19.722 -22.709  0.00  0.00    +0.040 C 
ATOM     25  C   UNL     1      36.475 -19.603 -20.374  0.00  0.00    +0.003 C 
ATOM     26  C   UNL     1      36.638 -20.172 -21.633  0.00  0.00    +0.003 C 
ENDROOT
BRANCH  14  28
ATOM     27  O   UNL     1      32.890  -7.538 -24.055  0.00  0.00    -0.275 OA
ATOM     28  N   UNL     1      34.868  -8.603 -24.771  0.00  0.00    -0.284 N 
ATOM     29  C   UNL     1      34.085  -7.527 -24.330  0.00  0.00    +0.227 C 
ATOM     30  C   UNL     1      34.893  -6.259 -24.211  0.00  0.00    +0.095 C 
ATOM     31  H   UNL     1      35.817  -8.403 -24.942  0.00  0.00    +0.155 HD
ENDBRANCH  14  28
TORSDOF 1
ENDMDL
