MODEL 1
REMARK VINA RESULT:     -10.2      0.000      0.000
REMARK  Name = 60021
REMARK  4 active torsions:
REMARK  status: ('A' for Active; 'I' for Inactive)
REMARK    1  A    between atoms: N_3  and  C_24
REMARK    2  A    between atoms: C_4  and  N_13
REMARK    3  A    between atoms: C_12  and  C_31
REMARK    4  A    between atoms: C_31  and  O_32
REMARK                            x       y       z     vdW  Elec       q    Type
REMARK                         _______ _______ _______ _____ _____    ______ ____
ROOT
ATOM      1  F   UNL     1      32.305 -15.286 -20.047  0.00  0.00    -0.203 F 
ATOM      2  O   UNL     1      30.906 -10.469 -20.235  0.00  0.00    -0.286 OA
ATOM      3  N   UNL     1      33.291 -11.003 -23.530  0.00  0.00    -0.262 N 
ATOM      4  C   UNL     1      33.384 -14.444 -21.986  0.00  0.00    +0.077 C 
ATOM      5  C   UNL     1      33.636 -13.379 -22.856  0.00  0.00    +0.032 C 
ATOM      6  C   UNL     1      33.050 -12.115 -22.653  0.00  0.00    +0.060 C 
ATOM      7  C   UNL     1      32.552 -14.269 -20.886  0.00  0.00    +0.153 C 
ATOM      8  C   UNL     1      32.232 -11.955 -21.512  0.00  0.00    +0.055 C 
ATOM      9  C   UNL     1      31.980 -13.024 -20.642  0.00  0.00    +0.035 C 
ATOM     10  C   UNL     1      31.642 -10.631 -21.200  0.00  0.00    +0.204 C 
ATOM     11  C   UNL     1      32.761  -9.768 -23.164  0.00  0.00    +0.079 C 
ATOM     12  C   UNL     1      31.989  -9.509 -22.102  0.00  0.00    +0.129 C 
ENDROOT
BRANCH   4  13
ATOM     13  N   UNL     1      33.973 -15.691 -22.226  0.00  0.00    -0.310 N 
ATOM     14  N   UNL     1      35.358 -18.113 -22.816  0.00  0.00    +0.387 N 
ATOM     15  C   UNL     1      34.300 -17.635 -23.713  0.00  0.00    -0.042 C 
ATOM     16  C   UNL     1      34.160 -16.108 -23.623  0.00  0.00    +0.069 C 
ATOM     17  C   UNL     1      34.935 -16.237 -21.264  0.00  0.00    +0.068 C 
ATOM     18  C   UNL     1      35.056 -17.751 -21.432  0.00  0.00    -0.060 C 
ATOM     19  C   UNL     1      34.624 -18.063 -25.143  0.00  0.00    -0.022 C 
ATOM     20  H   UNL     1      36.246 -17.688 -23.088  0.00  0.00    -0.084 HD
ATOM     21  H   UNL     1      35.420 -19.129 -22.888  0.00  0.00    -0.084 HD
ENDBRANCH   4  13
BRANCH   3  24
ATOM     22  F   UNL     1      35.465  -9.345 -24.129  0.00  0.00    -0.203 F 
ATOM     23  F   UNL     1      36.031 -11.373 -28.366  0.00  0.00    -0.204 F 
ATOM     24  C   UNL     1      33.997 -11.097 -24.775  0.00  0.00    +0.083 C 
ATOM     25  C   UNL     1      35.079 -10.251 -25.038  0.00  0.00    +0.156 C 
ATOM     26  C   UNL     1      33.608 -12.036 -25.734  0.00  0.00    +0.020 C 
ATOM     27  C   UNL     1      35.766 -10.344 -26.249  0.00  0.00    +0.061 C 
ATOM     28  C   UNL     1      34.295 -12.130 -26.945  0.00  0.00    +0.031 C 
ATOM     29  C   UNL     1      35.373 -11.284 -27.202  0.00  0.00    +0.142 C 
ENDBRANCH   3  24
BRANCH  12  31
ATOM     30  O   UNL     1      30.879  -7.502 -22.727  0.00  0.00    -0.245 OA
ATOM     31  C   UNL     1      31.515  -8.139 -21.905  0.00  0.00    +0.342 C 
BRANCH  31  32
ATOM     32  O   UNL     1      31.889  -7.700 -20.684  0.00  0.00    -0.477 OA
ATOM     33  H   UNL     1      31.587  -6.868 -20.373  0.00  0.00    +0.295 HD
ENDBRANCH  31  32
ENDBRANCH  12  31
TORSDOF 4
ENDMDL
MODEL 2
REMARK VINA RESULT:     -10.1     10.536     14.716
REMARK  Name = 60021
REMARK  4 active torsions:
REMARK  status: ('A' for Active; 'I' for Inactive)
REMARK    1  A    between atoms: N_3  and  C_24
REMARK    2  A    between atoms: C_4  and  N_13
REMARK    3  A    between atoms: C_12  and  C_31
REMARK    4  A    between atoms: C_31  and  O_32
REMARK                            x       y       z     vdW  Elec       q    Type
REMARK                         _______ _______ _______ _____ _____    ______ ____
ROOT
ATOM      1  F   UNL     1      37.758 -21.974 -17.384  0.00  0.00    -0.203 F 
ATOM      2  O   UNL     1      37.762 -23.731 -12.681  0.00  0.00    -0.286 OA
ATOM      3  N   UNL     1      33.818 -23.760 -13.814  0.00  0.00    -0.262 N 
ATOM      4  C   UNL     1      35.467 -22.376 -16.914  0.00  0.00    +0.077 C 
ATOM      5  C   UNL     1      34.480 -22.817 -16.026  0.00  0.00    +0.032 C 
ATOM      6  C   UNL     1      34.812 -23.301 -14.746  0.00  0.00    +0.060 C 
ATOM      7  C   UNL     1      36.805 -22.395 -16.538  0.00  0.00    +0.153 C 
ATOM      8  C   UNL     1      36.175 -23.282 -14.379  0.00  0.00    +0.055 C 
ATOM      9  C   UNL     1      37.163 -22.841 -15.269  0.00  0.00    +0.035 C 
ATOM     10  C   UNL     1      36.585 -23.710 -13.019  0.00  0.00    +0.204 C 
ATOM     11  C   UNL     1      34.247 -24.098 -12.532  0.00  0.00    +0.079 C 
ATOM     12  C   UNL     1      35.507 -24.101 -12.082  0.00  0.00    +0.129 C 
ENDROOT
BRANCH   4  13
ATOM     13  N   UNL     1      35.103 -21.916 -18.183  0.00  0.00    -0.310 N 
ATOM     14  N   UNL     1      34.508 -21.145 -20.864  0.00  0.00    +0.387 N 
ATOM     15  C   UNL     1      35.501 -20.395 -20.087  0.00  0.00    -0.042 C 
ATOM     16  C   UNL     1      36.141 -21.289 -19.015  0.00  0.00    +0.069 C 
ATOM     17  C   UNL     1      34.018 -22.579 -18.913  0.00  0.00    +0.068 C 
ATOM     18  C   UNL     1      33.453 -21.652 -19.988  0.00  0.00    -0.060 C 
ATOM     19  C   UNL     1      36.566 -19.845 -21.034  0.00  0.00    -0.022 C 
ATOM     20  H   UNL     1      34.967 -21.930 -21.327  0.00  0.00    -0.084 HD
ATOM     21  H   UNL     1      34.092 -20.524 -21.559  0.00  0.00    -0.084 HD
ENDBRANCH   4  13
BRANCH   3  24
ATOM     22  F   UNL     1      32.092 -21.587 -14.178  0.00  0.00    -0.203 F 
ATOM     23  F   UNL     1      28.435 -24.455 -15.066  0.00  0.00    -0.204 F 
ATOM     24  C   UNL     1      32.433 -23.937 -14.136  0.00  0.00    +0.083 C 
ATOM     25  C   UNL     1      31.600 -22.827 -14.310  0.00  0.00    +0.156 C 
ATOM     26  C   UNL     1      31.903 -25.224 -14.278  0.00  0.00    +0.020 C 
ATOM     27  C   UNL     1      30.252 -23.001 -14.624  0.00  0.00    +0.061 C 
ATOM     28  C   UNL     1      30.555 -25.398 -14.592  0.00  0.00    +0.031 C 
ATOM     29  C   UNL     1      29.730 -24.287 -14.765  0.00  0.00    +0.142 C 
ENDBRANCH   3  24
BRANCH  12  31
ATOM     30  O   UNL     1      35.145 -25.400 -10.124  0.00  0.00    -0.245 OA
ATOM     31  C   UNL     1      35.749 -24.511 -10.698  0.00  0.00    +0.342 C 
BRANCH  31  32
ATOM     32  O   UNL     1      36.736 -23.757 -10.167  0.00  0.00    -0.477 OA
ATOM     33  H   UNL     1      37.473 -23.513 -10.693  0.00  0.00    +0.295 HD
ENDBRANCH  31  32
ENDBRANCH  12  31
TORSDOF 4
ENDMDL
MODEL 3
REMARK VINA RESULT:      -9.4      0.604      1.314
REMARK  Name = 60021
REMARK  4 active torsions:
REMARK  status: ('A' for Active; 'I' for Inactive)
REMARK    1  A    between atoms: N_3  and  C_24
REMARK    2  A    between atoms: C_4  and  N_13
REMARK    3  A    between atoms: C_12  and  C_31
REMARK    4  A    between atoms: C_31  and  O_32
REMARK                            x       y       z     vdW  Elec       q    Type
REMARK                         _______ _______ _______ _____ _____    ______ ____
ROOT
ATOM      1  F   UNL     1      32.511 -15.867 -20.480  0.00  0.00    -0.203 F 
ATOM      2  O   UNL     1      31.006 -11.085 -20.216  0.00  0.00    -0.286 OA
ATOM      3  N   UNL     1      33.373 -11.263 -23.563  0.00  0.00    -0.262 N 
ATOM      4  C   UNL     1      33.554 -14.828 -22.341  0.00  0.00    +0.077 C 
ATOM      5  C   UNL     1      33.775 -13.682 -23.111  0.00  0.00    +0.032 C 
ATOM      6  C   UNL     1      33.163 -12.456 -22.789  0.00  0.00    +0.060 C 
ATOM      7  C   UNL     1      32.728 -14.772 -21.224  0.00  0.00    +0.153 C 
ATOM      8  C   UNL     1      32.353 -12.419 -21.634  0.00  0.00    +0.055 C 
ATOM      9  C   UNL     1      32.131 -13.568 -20.863  0.00  0.00    +0.035 C 
ATOM     10  C   UNL     1      31.737 -11.142 -21.197  0.00  0.00    +0.204 C 
ATOM     11  C   UNL     1      32.819 -10.078 -23.082  0.00  0.00    +0.079 C 
ATOM     12  C   UNL     1      32.051  -9.935 -21.995  0.00  0.00    +0.129 C 
ENDROOT
BRANCH   4  13
ATOM     13  N   UNL     1      34.167 -16.034 -22.698  0.00  0.00    -0.310 N 
ATOM     14  N   UNL     1      35.220 -18.604 -23.342  0.00  0.00    +0.387 N 
ATOM     15  C   UNL     1      35.628 -17.933 -22.103  0.00  0.00    -0.042 C 
ATOM     16  C   UNL     1      34.535 -16.966 -21.623  0.00  0.00    +0.069 C 
ATOM     17  C   UNL     1      33.864 -16.645 -23.996  0.00  0.00    +0.068 C 
ATOM     18  C   UNL     1      34.969 -17.622 -24.395  0.00  0.00    -0.060 C 
ATOM     19  C   UNL     1      35.922 -18.986 -21.037  0.00  0.00    -0.022 C 
ATOM     20  H   UNL     1      34.367 -19.138 -23.170  0.00  0.00    -0.084 HD
ATOM     21  H   UNL     1      35.969 -19.229 -23.643  0.00  0.00    -0.084 HD
ENDBRANCH   4  13
BRANCH   3  24
ATOM     22  F   UNL     1      35.451  -9.453 -24.051  0.00  0.00    -0.203 F 
ATOM     23  F   UNL     1      36.077 -11.129 -28.431  0.00  0.00    -0.204 F 
ATOM     24  C   UNL     1      34.069 -11.227 -24.816  0.00  0.00    +0.083 C 
ATOM     25  C   UNL     1      35.103 -10.308 -25.023  0.00  0.00    +0.156 C 
ATOM     26  C   UNL     1      33.719 -12.112 -25.840  0.00  0.00    +0.020 C 
ATOM     27  C   UNL     1      35.781 -10.275 -26.242  0.00  0.00    +0.061 C 
ATOM     28  C   UNL     1      34.397 -12.079 -27.059  0.00  0.00    +0.031 C 
ATOM     29  C   UNL     1      35.428 -11.161 -27.260  0.00  0.00    +0.142 C 
ENDBRANCH   3  24
BRANCH  12  31
ATOM     30  O   UNL     1      31.135  -7.798 -22.490  0.00  0.00    -0.245 OA
ATOM     31  C   UNL     1      31.549  -8.599 -21.671  0.00  0.00    +0.342 C 
BRANCH  31  32
ATOM     32  O   UNL     1      31.618  -8.400 -20.337  0.00  0.00    -0.477 OA
ATOM     33  H   UNL     1      31.619  -9.134 -19.754  0.00  0.00    +0.295 HD
ENDBRANCH  31  32
ENDBRANCH  12  31
TORSDOF 4
ENDMDL
MODEL 4
REMARK VINA RESULT:      -9.2     11.406     14.187
REMARK  Name = 60021
REMARK  4 active torsions:
REMARK  status: ('A' for Active; 'I' for Inactive)
REMARK    1  A    between atoms: N_3  and  C_24
REMARK    2  A    between atoms: C_4  and  N_13
REMARK    3  A    between atoms: C_12  and  C_31
REMARK    4  A    between atoms: C_31  and  O_32
REMARK                            x       y       z     vdW  Elec       q    Type
REMARK                         _______ _______ _______ _____ _____    ______ ____
ROOT
ATOM      1  F   UNL     1      31.001 -24.653 -12.810  0.00  0.00    -0.203 F 
ATOM      2  O   UNL     1      35.975 -25.194 -12.403  0.00  0.00    -0.286 OA
ATOM      3  N   UNL     1      35.405 -23.396 -16.047  0.00  0.00    -0.262 N 
ATOM      4  C   UNL     1      31.848 -23.769 -14.842  0.00  0.00    +0.077 C 
ATOM      5  C   UNL     1      32.943 -23.456 -15.655  0.00  0.00    +0.032 C 
ATOM      6  C   UNL     1      34.262 -23.707 -15.232  0.00  0.00    +0.060 C 
ATOM      7  C   UNL     1      32.045 -24.351 -13.596  0.00  0.00    +0.153 C 
ATOM      8  C   UNL     1      34.433 -24.326 -13.975  0.00  0.00    +0.055 C 
ATOM      9  C   UNL     1      33.336 -24.637 -13.161  0.00  0.00    +0.035 C 
ATOM     10  C   UNL     1      35.793 -24.683 -13.500  0.00  0.00    +0.204 C 
ATOM     11  C   UNL     1      36.654 -23.802 -15.583  0.00  0.00    +0.079 C 
ATOM     12  C   UNL     1      36.921 -24.404 -14.417  0.00  0.00    +0.129 C 
ENDROOT
BRANCH   4  13
ATOM     13  N   UNL     1      30.551 -23.492 -15.289  0.00  0.00    -0.310 N 
ATOM     14  N   UNL     1      27.828 -23.085 -16.032  0.00  0.00    +0.387 N 
ATOM     15  C   UNL     1      28.668 -24.011 -16.800  0.00  0.00    -0.042 C 
ATOM     16  C   UNL     1      29.792 -24.581 -15.921  0.00  0.00    +0.069 C 
ATOM     17  C   UNL     1      29.751 -22.470 -14.607  0.00  0.00    +0.068 C 
ATOM     18  C   UNL     1      28.630 -21.975 -15.519  0.00  0.00    -0.060 C 
ATOM     19  C   UNL     1      27.796 -25.135 -17.354  0.00  0.00    -0.022 C 
ATOM     20  H   UNL     1      27.406 -23.585 -15.248  0.00  0.00    -0.084 HD
ATOM     21  H   UNL     1      27.100 -22.714 -16.643  0.00  0.00    -0.084 HD
ENDBRANCH   4  13
BRANCH   3  24
ATOM     22  F   UNL     1      37.539 -21.818 -16.933  0.00  0.00    -0.203 F 
ATOM     23  F   UNL     1      35.162 -20.528 -20.815  0.00  0.00    -0.204 F 
ATOM     24  C   UNL     1      35.343 -22.657 -17.273  0.00  0.00    +0.083 C 
ATOM     25  C   UNL     1      36.430 -21.879 -17.684  0.00  0.00    +0.156 C 
ATOM     26  C   UNL     1      34.195 -22.710 -18.069  0.00  0.00    +0.020 C 
ATOM     27  C   UNL     1      36.370 -21.161 -18.879  0.00  0.00    +0.061 C 
ATOM     28  C   UNL     1      34.134 -21.992 -19.264  0.00  0.00    +0.031 C 
ATOM     29  C   UNL     1      35.221 -21.218 -19.668  0.00  0.00    +0.142 C 
ENDBRANCH   3  24
BRANCH  12  31
ATOM     30  O   UNL     1      39.031 -25.428 -14.804  0.00  0.00    -0.245 OA
ATOM     31  C   UNL     1      38.313 -24.732 -14.108  0.00  0.00    +0.342 C 
BRANCH  31  32
ATOM     32  O   UNL     1      38.669 -24.149 -12.943  0.00  0.00    -0.477 OA
ATOM     33  H   UNL     1      38.901 -23.241 -12.927  0.00  0.00    +0.295 HD
ENDBRANCH  31  32
ENDBRANCH  12  31
TORSDOF 4
ENDMDL
MODEL 5
REMARK VINA RESULT:      -9.0     10.700     13.677
REMARK  Name = 60021
REMARK  4 active torsions:
REMARK  status: ('A' for Active; 'I' for Inactive)
REMARK    1  A    between atoms: N_3  and  C_24
REMARK    2  A    between atoms: C_4  and  N_13
REMARK    3  A    between atoms: C_12  and  C_31
REMARK    4  A    between atoms: C_31  and  O_32
REMARK                            x       y       z     vdW  Elec       q    Type
REMARK                         _______ _______ _______ _____ _____    ______ ____
ROOT
ATOM      1  F   UNL     1      34.606 -25.199 -11.775  0.00  0.00    -0.203 F 
ATOM      2  O   UNL     1      30.295 -24.374 -14.211  0.00  0.00    -0.286 OA
ATOM      3  N   UNL     1      33.203 -22.840 -16.666  0.00  0.00    -0.262 N 
ATOM      4  C   UNL     1      35.267 -24.084 -13.762  0.00  0.00    +0.077 C 
ATOM      5  C   UNL     1      34.923 -23.491 -14.981  0.00  0.00    +0.032 C 
ATOM      6  C   UNL     1      33.586 -23.442 -15.418  0.00  0.00    +0.060 C 
ATOM      7  C   UNL     1      34.283 -24.629 -12.946  0.00  0.00    +0.153 C 
ATOM      8  C   UNL     1      32.602 -23.977 -14.557  0.00  0.00    +0.055 C 
ATOM      9  C   UNL     1      32.949 -24.572 -13.336  0.00  0.00    +0.035 C 
ATOM     10  C   UNL     1      31.167 -23.894 -14.924  0.00  0.00    +0.204 C 
ATOM     11  C   UNL     1      31.841 -22.736 -16.939  0.00  0.00    +0.079 C 
ATOM     12  C   UNL     1      30.834 -23.196 -16.186  0.00  0.00    +0.129 C 
ENDROOT
BRANCH   4  13
ATOM     13  N   UNL     1      36.608 -24.127 -13.366  0.00  0.00    -0.310 N 
ATOM     14  N   UNL     1      39.388 -24.054 -12.733  0.00  0.00    +0.387 N 
ATOM     15  C   UNL     1      38.853 -25.134 -13.570  0.00  0.00    -0.042 C 
ATOM     16  C   UNL     1      37.591 -24.672 -14.313  0.00  0.00    +0.069 C 
ATOM     17  C   UNL     1      37.120 -23.127 -12.423  0.00  0.00    +0.068 C 
ATOM     18  C   UNL     1      38.394 -23.632 -11.749  0.00  0.00    -0.060 C 
ATOM     19  C   UNL     1      39.928 -25.580 -14.560  0.00  0.00    -0.022 C 
ATOM     20  H   UNL     1      39.633 -23.260 -13.326  0.00  0.00    -0.084 HD
ATOM     21  H   UNL     1      40.217 -24.394 -12.244  0.00  0.00    -0.084 HD
ENDBRANCH   4  13
BRANCH   3  24
ATOM     22  F   UNL     1      32.362 -21.960 -19.186  0.00  0.00    -0.203 F 
ATOM     23  F   UNL     1      36.814 -21.081 -20.525  0.00  0.00    -0.204 F 
ATOM     24  C   UNL     1      34.131 -22.388 -17.660  0.00  0.00    +0.083 C 
ATOM     25  C   UNL     1      33.674 -21.955 -18.909  0.00  0.00    +0.156 C 
ATOM     26  C   UNL     1      35.503 -22.375 -17.387  0.00  0.00    +0.020 C 
ATOM     27  C   UNL     1      34.578 -21.514 -19.875  0.00  0.00    +0.061 C 
ATOM     28  C   UNL     1      36.407 -21.934 -18.354  0.00  0.00    +0.031 C 
ATOM     29  C   UNL     1      35.945 -21.504 -19.597  0.00  0.00    +0.142 C 
ENDBRANCH   3  24
BRANCH  12  31
ATOM     30  O   UNL     1      28.993 -21.927 -16.994  0.00  0.00    -0.245 OA
ATOM     31  C   UNL     1      29.465 -23.001 -16.664  0.00  0.00    +0.342 C 
BRANCH  31  32
ATOM     32  O   UNL     1      28.817 -24.186 -16.681  0.00  0.00    -0.477 OA
ATOM     33  H   UNL     1      27.907 -24.225 -16.460  0.00  0.00    +0.295 HD
ENDBRANCH  31  32
ENDBRANCH  12  31
TORSDOF 4
ENDMDL
MODEL 6
REMARK VINA RESULT:      -8.8      4.124      7.865
REMARK  Name = 60021
REMARK  4 active torsions:
REMARK  status: ('A' for Active; 'I' for Inactive)
REMARK    1  A    between atoms: N_3  and  C_24
REMARK    2  A    between atoms: C_4  and  N_13
REMARK    3  A    between atoms: C_12  and  C_31
REMARK    4  A    between atoms: C_31  and  O_32
REMARK                            x       y       z     vdW  Elec       q    Type
REMARK                         _______ _______ _______ _____ _____    ______ ____
ROOT
ATOM      1  F   UNL     1      31.258  -3.882 -22.534  0.00  0.00    -0.203 F 
ATOM      2  O   UNL     1      31.328  -7.753 -19.340  0.00  0.00    -0.286 OA
ATOM      3  N   UNL     1      32.926  -9.229 -22.819  0.00  0.00    -0.262 N 
ATOM      4  C   UNL     1      32.171  -5.666 -23.805  0.00  0.00    +0.077 C 
ATOM      5  C   UNL     1      32.585  -6.999 -23.883  0.00  0.00    +0.032 C 
ATOM      6  C   UNL     1      32.507  -7.854 -22.768  0.00  0.00    +0.060 C 
ATOM      7  C   UNL     1      31.657  -5.160 -22.617  0.00  0.00    +0.153 C 
ATOM      8  C   UNL     1      31.955  -7.325 -21.581  0.00  0.00    +0.055 C 
ATOM      9  C   UNL     1      31.541  -5.988 -21.504  0.00  0.00    +0.035 C 
ATOM     10  C   UNL     1      31.778  -8.192 -20.390  0.00  0.00    +0.204 C 
ATOM     11  C   UNL     1      32.687 -10.016 -21.694  0.00  0.00    +0.079 C 
ATOM     12  C   UNL     1      32.159  -9.615 -20.531  0.00  0.00    +0.129 C 
ENDROOT
BRANCH   4  13
ATOM     13  N   UNL     1      32.276  -4.840 -24.930  0.00  0.00    -0.310 N 
ATOM     14  N   UNL     1      32.402  -3.341 -27.353  0.00  0.00    +0.387 N 
ATOM     15  C   UNL     1      33.605  -4.004 -26.835  0.00  0.00    -0.042 C 
ATOM     16  C   UNL     1      33.228  -5.224 -25.982  0.00  0.00    +0.069 C 
ATOM     17  C   UNL     1      31.111  -4.069 -25.376  0.00  0.00    +0.068 C 
ATOM     18  C   UNL     1      31.551  -2.896 -26.250  0.00  0.00    -0.060 C 
ATOM     19  C   UNL     1      34.490  -4.420 -28.008  0.00  0.00    -0.022 C 
ATOM     20  H   UNL     1      31.881  -3.997 -27.936  0.00  0.00    -0.084 HD
ATOM     21  H   UNL     1      32.682  -2.529 -27.904  0.00  0.00    -0.084 HD
ENDBRANCH   4  13
BRANCH   3  24
ATOM     22  F   UNL     1      35.397  -8.268 -23.715  0.00  0.00    -0.203 F 
ATOM     23  F   UNL     1      35.591 -11.537 -27.131  0.00  0.00    -0.204 F 
ATOM     24  C   UNL     1      33.612  -9.821 -23.929  0.00  0.00    +0.083 C 
ATOM     25  C   UNL     1      34.846  -9.314 -24.348  0.00  0.00    +0.156 C 
ATOM     26  C   UNL     1      33.052 -10.913 -24.600  0.00  0.00    +0.020 C 
ATOM     27  C   UNL     1      35.514  -9.893 -25.428  0.00  0.00    +0.061 C 
ATOM     28  C   UNL     1      33.720 -11.491 -25.679  0.00  0.00    +0.031 C 
ATOM     29  C   UNL     1      34.951 -10.982 -26.093  0.00  0.00    +0.142 C 
ENDBRANCH   3  24
BRANCH  12  31
ATOM     30  O   UNL     1      31.619 -11.744 -19.621  0.00  0.00    -0.245 OA
ATOM     31  C   UNL     1      32.010 -10.601 -19.460  0.00  0.00    +0.342 C 
BRANCH  31  32
ATOM     32  O   UNL     1      32.370 -10.049 -18.282  0.00  0.00    -0.477 OA
ATOM     33  H   UNL     1      32.096  -9.178 -18.069  0.00  0.00    +0.295 HD
ENDBRANCH  31  32
ENDBRANCH  12  31
TORSDOF 4
ENDMDL
MODEL 7
REMARK VINA RESULT:      -8.7      9.394     13.968
REMARK  Name = 60021
REMARK  4 active torsions:
REMARK  status: ('A' for Active; 'I' for Inactive)
REMARK    1  A    between atoms: N_3  and  C_24
REMARK    2  A    between atoms: C_4  and  N_13
REMARK    3  A    between atoms: C_12  and  C_31
REMARK    4  A    between atoms: C_31  and  O_32
REMARK                            x       y       z     vdW  Elec       q    Type
REMARK                         _______ _______ _______ _____ _____    ______ ____
ROOT
ATOM      1  F   UNL     1      37.494 -21.327 -19.129  0.00  0.00    -0.203 F 
ATOM      2  O   UNL     1      38.301 -23.796 -14.834  0.00  0.00    -0.286 OA
ATOM      3  N   UNL     1      34.224 -23.404 -15.074  0.00  0.00    -0.262 N 
ATOM      4  C   UNL     1      35.322 -21.656 -18.233  0.00  0.00    +0.077 C 
ATOM      5  C   UNL     1      34.502 -22.169 -17.223  0.00  0.00    +0.032 C 
ATOM      6  C   UNL     1      35.043 -22.866 -16.126  0.00  0.00    +0.060 C 
ATOM      7  C   UNL     1      36.701 -21.816 -18.164  0.00  0.00    +0.153 C 
ATOM      8  C   UNL     1      36.448 -22.990 -16.065  0.00  0.00    +0.055 C 
ATOM      9  C   UNL     1      37.269 -22.476 -17.079  0.00  0.00    +0.035 C 
ATOM     10  C   UNL     1      37.088 -23.650 -14.901  0.00  0.00    +0.204 C 
ATOM     11  C   UNL     1      34.874 -23.964 -13.976  0.00  0.00    +0.079 C 
ATOM     12  C   UNL     1      36.194 -24.116 -13.816  0.00  0.00    +0.129 C 
ENDROOT
BRANCH   4  13
ATOM     13  N   UNL     1      34.748 -20.981 -19.316  0.00  0.00    -0.310 N 
ATOM     14  N   UNL     1      33.672 -19.776 -21.666  0.00  0.00    +0.387 N 
ATOM     15  C   UNL     1      34.929 -19.278 -21.094  0.00  0.00    -0.042 C 
ATOM     16  C   UNL     1      35.649 -20.388 -20.315  0.00  0.00    +0.069 C 
ATOM     17  C   UNL     1      33.429 -21.388 -19.810  0.00  0.00    +0.068 C 
ATOM     18  C   UNL     1      32.785 -20.255 -20.607  0.00  0.00    -0.060 C 
ATOM     19  C   UNL     1      35.815 -18.748 -22.220  0.00  0.00    -0.022 C 
ATOM     20  H   UNL     1      33.876 -20.544 -22.307  0.00  0.00    -0.084 HD
ATOM     21  H   UNL     1      33.211 -19.015 -22.166  0.00  0.00    -0.084 HD
ENDBRANCH   4  13
BRANCH   3  24
ATOM     22  F   UNL     1      32.815 -24.072 -17.398  0.00  0.00    -0.203 F 
ATOM     23  F   UNL     1      28.658 -23.557 -15.197  0.00  0.00    -0.204 F 
ATOM     24  C   UNL     1      32.792 -23.443 -15.107  0.00  0.00    +0.083 C 
ATOM     25  C   UNL     1      32.122 -23.781 -16.287  0.00  0.00    +0.156 C 
ATOM     26  C   UNL     1      32.054 -23.143 -13.958  0.00  0.00    +0.020 C 
ATOM     27  C   UNL     1      30.728 -23.821 -16.318  0.00  0.00    +0.061 C 
ATOM     28  C   UNL     1      30.659 -23.183 -13.989  0.00  0.00    +0.031 C 
ATOM     29  C   UNL     1      29.996 -23.521 -15.168  0.00  0.00    +0.142 C 
ENDBRANCH   3  24
BRANCH  12  31
ATOM     30  O   UNL     1      37.162 -24.153 -11.645  0.00  0.00    -0.245 OA
ATOM     31  C   UNL     1      36.677 -24.751 -12.589  0.00  0.00    +0.342 C 
BRANCH  31  32
ATOM     32  O   UNL     1      36.501 -26.088 -12.671  0.00  0.00    -0.477 OA
ATOM     33  H   UNL     1      35.909 -26.444 -13.305  0.00  0.00    +0.295 HD
ENDBRANCH  31  32
ENDBRANCH  12  31
TORSDOF 4
ENDMDL
MODEL 8
REMARK VINA RESULT:      -8.7     10.145     13.919
REMARK  Name = 60021
REMARK  4 active torsions:
REMARK  status: ('A' for Active; 'I' for Inactive)
REMARK    1  A    between atoms: N_3  and  C_24
REMARK    2  A    between atoms: C_4  and  N_13
REMARK    3  A    between atoms: C_12  and  C_31
REMARK    4  A    between atoms: C_31  and  O_32
REMARK                            x       y       z     vdW  Elec       q    Type
REMARK                         _______ _______ _______ _____ _____    ______ ____
ROOT
ATOM      1  F   UNL     1      38.841 -22.841 -15.784  0.00  0.00    -0.203 F 
ATOM      2  O   UNL     1      36.225 -20.815 -19.559  0.00  0.00    -0.286 OA
ATOM      3  N   UNL     1      33.428 -22.727 -17.245  0.00  0.00    -0.262 N 
ATOM      4  C   UNL     1      36.602 -23.498 -15.355  0.00  0.00    +0.077 C 
ATOM      5  C   UNL     1      35.251 -23.476 -15.717  0.00  0.00    +0.032 C 
ATOM      6  C   UNL     1      34.810 -22.767 -16.850  0.00  0.00    +0.060 C 
ATOM      7  C   UNL     1      37.544 -22.825 -16.125  0.00  0.00    +0.153 C 
ATOM      8  C   UNL     1      35.790 -22.116 -17.631  0.00  0.00    +0.055 C 
ATOM      9  C   UNL     1      37.143 -22.138 -17.267  0.00  0.00    +0.035 C 
ATOM     10  C   UNL     1      35.402 -21.412 -18.878  0.00  0.00    +0.204 C 
ATOM     11  C   UNL     1      33.122 -22.102 -18.452  0.00  0.00    +0.079 C 
ATOM     12  C   UNL     1      33.975 -21.471 -19.268  0.00  0.00    +0.129 C 
ENDROOT
BRANCH   4  13
ATOM     13  N   UNL     1      37.004 -24.200 -14.214  0.00  0.00    -0.310 N 
ATOM     14  N   UNL     1      37.625 -25.771 -11.916  0.00  0.00    +0.387 N 
ATOM     15  C   UNL     1      36.952 -24.477 -11.761  0.00  0.00    -0.042 C 
ATOM     16  C   UNL     1      36.147 -24.128 -13.022  0.00  0.00    +0.069 C 
ATOM     17  C   UNL     1      37.794 -25.427 -14.357  0.00  0.00    +0.068 C 
ATOM     18  C   UNL     1      38.537 -25.737 -13.059  0.00  0.00    -0.060 C 
ATOM     19  C   UNL     1      36.039 -24.531 -10.538  0.00  0.00    -0.022 C 
ATOM     20  H   UNL     1      36.925 -26.498 -12.066  0.00  0.00    -0.084 HD
ATOM     21  H   UNL     1      38.160 -25.970 -11.070  0.00  0.00    -0.084 HD
ENDBRANCH   4  13
BRANCH   3  24
ATOM     22  F   UNL     1      30.786 -21.882 -17.614  0.00  0.00    -0.203 F 
ATOM     23  F   UNL     1      29.239 -24.741 -14.176  0.00  0.00    -0.204 F 
ATOM     24  C   UNL     1      32.349 -23.244 -16.455  0.00  0.00    +0.083 C 
ATOM     25  C   UNL     1      31.041 -22.798 -16.669  0.00  0.00    +0.156 C 
ATOM     26  C   UNL     1      32.598 -24.200 -15.465  0.00  0.00    +0.020 C 
ATOM     27  C   UNL     1      29.992 -23.303 -15.901  0.00  0.00    +0.061 C 
ATOM     28  C   UNL     1      31.549 -24.705 -14.697  0.00  0.00    +0.031 C 
ATOM     29  C   UNL     1      30.246 -24.257 -14.915  0.00  0.00    +0.142 C 
ENDBRANCH   3  24
BRANCH  12  31
ATOM     30  O   UNL     1      32.276 -20.895 -20.828  0.00  0.00    -0.245 OA
ATOM     31  C   UNL     1      33.445 -20.858 -20.487  0.00  0.00    +0.342 C 
BRANCH  31  32
ATOM     32  O   UNL     1      34.446 -20.253 -21.163  0.00  0.00    -0.477 OA
ATOM     33  H   UNL     1      35.216 -19.974 -20.707  0.00  0.00    +0.295 HD
ENDBRANCH  31  32
ENDBRANCH  12  31
TORSDOF 4
ENDMDL
MODEL 9
REMARK VINA RESULT:      -8.6     11.577     14.223
REMARK  Name = 60021
REMARK  4 active torsions:
REMARK  status: ('A' for Active; 'I' for Inactive)
REMARK    1  A    between atoms: N_3  and  C_24
REMARK    2  A    between atoms: C_4  and  N_13
REMARK    3  A    between atoms: C_12  and  C_31
REMARK    4  A    between atoms: C_31  and  O_32
REMARK                            x       y       z     vdW  Elec       q    Type
REMARK                         _______ _______ _______ _____ _____    ______ ____
ROOT
ATOM      1  F   UNL     1      29.938 -24.436 -13.107  0.00  0.00    -0.203 F 
ATOM      2  O   UNL     1      34.787 -24.800 -11.860  0.00  0.00    -0.286 OA
ATOM      3  N   UNL     1      34.792 -23.393 -15.714  0.00  0.00    -0.262 N 
ATOM      4  C   UNL     1      31.092 -23.737 -15.058  0.00  0.00    +0.077 C 
ATOM      5  C   UNL     1      32.300 -23.479 -15.715  0.00  0.00    +0.032 C 
ATOM      6  C   UNL     1      33.536 -23.651 -15.064  0.00  0.00    +0.060 C 
ATOM      7  C   UNL     1      31.093 -24.186 -13.743  0.00  0.00    +0.153 C 
ATOM      8  C   UNL     1      33.510 -24.136 -13.738  0.00  0.00    +0.055 C 
ATOM      9  C   UNL     1      32.299 -24.393 -13.081  0.00  0.00    +0.035 C 
ATOM     10  C   UNL     1      34.779 -24.407 -13.019  0.00  0.00    +0.204 C 
ATOM     11  C   UNL     1      35.955 -23.717 -15.018  0.00  0.00    +0.079 C 
ATOM     12  C   UNL     1      36.037 -24.192 -13.769  0.00  0.00    +0.129 C 
ENDROOT
BRANCH   4  13
ATOM     13  N   UNL     1      29.882 -23.542 -15.731  0.00  0.00    -0.310 N 
ATOM     14  N   UNL     1      27.490 -22.920 -17.154  0.00  0.00    +0.387 N 
ATOM     15  C   UNL     1      27.519 -22.825 -15.690  0.00  0.00    -0.042 C 
ATOM     16  C   UNL     1      28.945 -22.545 -15.193  0.00  0.00    +0.069 C 
ATOM     17  C   UNL     1      29.811 -23.765 -17.179  0.00  0.00    +0.068 C 
ATOM     18  C   UNL     1      28.365 -23.997 -17.612  0.00  0.00    -0.060 C 
ATOM     19  C   UNL     1      26.566 -21.719 -15.241  0.00  0.00    -0.022 C 
ATOM     20  H   UNL     1      27.806 -22.036 -17.555  0.00  0.00    -0.084 HD
ATOM     21  H   UNL     1      26.534 -23.118 -17.454  0.00  0.00    -0.084 HD
ENDBRANCH   4  13
BRANCH   3  24
ATOM     22  F   UNL     1      37.113 -22.029 -16.481  0.00  0.00    -0.203 F 
ATOM     23  F   UNL     1      35.290 -21.024 -20.730  0.00  0.00    -0.204 F 
ATOM     24  C   UNL     1      34.922 -22.782 -17.004  0.00  0.00    +0.083 C 
ATOM     25  C   UNL     1      36.097 -22.109 -17.352  0.00  0.00    +0.156 C 
ATOM     26  C   UNL     1      33.872 -22.856 -17.925  0.00  0.00    +0.020 C 
ATOM     27  C   UNL     1      36.222 -21.516 -18.609  0.00  0.00    +0.061 C 
ATOM     28  C   UNL     1      33.997 -22.264 -19.182  0.00  0.00    +0.031 C 
ATOM     29  C   UNL     1      35.171 -21.594 -19.524  0.00  0.00    +0.142 C 
ENDBRANCH   3  24
BRANCH  12  31
ATOM     30  O   UNL     1      38.319 -23.701 -13.321  0.00  0.00    -0.245 OA
ATOM     31  C   UNL     1      37.365 -24.450 -13.210  0.00  0.00    +0.342 C 
BRANCH  31  32
ATOM     32  O   UNL     1      37.362 -25.633 -12.560  0.00  0.00    -0.477 OA
ATOM     33  H   UNL     1      37.063 -25.680 -11.673  0.00  0.00    +0.295 HD
ENDBRANCH  31  32
ENDBRANCH  12  31
TORSDOF 4
ENDMDL
