MODEL 1
REMARK VINA RESULT:      -8.1      0.000      0.000
REMARK  Name = 6472
REMARK  8 active torsions:
REMARK  status: ('A' for Active; 'I' for Inactive)
REMARK    1  A    between atoms: C_1  and  C_6
REMARK    2  A    between atoms: C_1  and  C_13
REMARK    3  A    between atoms: C_13  and  O_14
REMARK    4  A    between atoms: O_14  and  C_15
REMARK    5  A    between atoms: C_15  and  C_16
REMARK    6  A    between atoms: C_16  and  N_17
REMARK    7  A    between atoms: N_17  and  C_19
REMARK    8  A    between atoms: N_17  and  C_21
REMARK                            x       y       z     vdW  Elec       q    Type
REMARK                         _______ _______ _______ _____ _____    ______ ____
ROOT
ATOM      1  C   UNL     1      34.851 -18.988 -21.612  0.00  0.00    +0.108 C 
ATOM      2  C   UNL     1      34.263 -19.338 -22.993  0.00  0.00    +0.015 C 
ATOM      3  C   UNL     1      36.286 -18.581 -22.000  0.00  0.00    +0.015 C 
ATOM      4  C   UNL     1      34.866 -18.327 -23.966  0.00  0.00    +0.001 C 
ATOM      5  C   UNL     1      36.160 -17.839 -23.327  0.00  0.00    +0.001 C 
ENDROOT
BRANCH   1   6
ATOM      6  C   UNL     1      34.773 -20.118 -20.594  0.00  0.00    -0.013 C 
ATOM      7  C   UNL     1      35.942 -20.645 -20.043  0.00  0.00    -0.004 C 
ATOM      8  C   UNL     1      33.532 -20.629 -20.211  0.00  0.00    -0.004 C 
ATOM      9  C   UNL     1      35.870 -21.680 -19.112  0.00  0.00    -0.000 C 
ATOM     10  C   UNL     1      33.460 -21.664 -19.279  0.00  0.00    -0.000 C 
ATOM     11  C   UNL     1      34.629 -22.190 -18.729  0.00  0.00    -0.000 C 
ENDBRANCH   1   6
BRANCH   1  13
ATOM     12  O   UNL     1      32.905 -17.678 -21.018  0.00  0.00    -0.250 OA
ATOM     13  C   UNL     1      34.123 -17.793 -21.038  0.00  0.00    +0.320 C 
BRANCH  13  14
ATOM     14  O   UNL     1      35.030 -16.891 -20.565  0.00  0.00    -0.451 OA
BRANCH  14  15
ATOM     15  C   UNL     1      34.586 -15.531 -20.534  0.00  0.00    +0.186 C 
BRANCH  15  16
ATOM     16  C   UNL     1      34.585 -14.984 -21.952  0.00  0.00    -0.029 C 
BRANCH  16  17
ATOM     17  N   UNL     1      33.223 -14.775 -22.422  0.00  0.00    +0.389 N 
ATOM     18  H   UNL     1      32.795 -15.690 -22.562  0.00  0.00    -0.080 HD
BRANCH  17  19
ATOM     19  C   UNL     1      33.220 -14.057 -23.699  0.00  0.00    -0.077 C 
ATOM     20  C   UNL     1      33.456 -15.007 -24.862  0.00  0.00    -0.025 C 
ENDBRANCH  17  19
BRANCH  17  21
ATOM     21  C   UNL     1      32.438 -14.040 -21.426  0.00  0.00    -0.077 C 
ATOM     22  C   UNL     1      32.005 -12.685 -21.962  0.00  0.00    -0.025 C 
ENDBRANCH  17  21
ENDBRANCH  16  17
ENDBRANCH  15  16
ENDBRANCH  14  15
ENDBRANCH  13  14
ENDBRANCH   1  13
TORSDOF 8
ENDMDL
MODEL 2
REMARK VINA RESULT:      -8.0      5.668      9.466
REMARK  Name = 6472
REMARK  8 active torsions:
REMARK  status: ('A' for Active; 'I' for Inactive)
REMARK    1  A    between atoms: C_1  and  C_6
REMARK    2  A    between atoms: C_1  and  C_13
REMARK    3  A    between atoms: C_13  and  O_14
REMARK    4  A    between atoms: O_14  and  C_15
REMARK    5  A    between atoms: C_15  and  C_16
REMARK    6  A    between atoms: C_16  and  N_17
REMARK    7  A    between atoms: N_17  and  C_19
REMARK    8  A    between atoms: N_17  and  C_21
REMARK                            x       y       z     vdW  Elec       q    Type
REMARK                         _______ _______ _______ _____ _____    ______ ____
ROOT
ATOM      1  C   UNL     1      32.187  -8.194 -22.523  0.00  0.00    +0.108 C 
ATOM      2  C   UNL     1      32.206  -6.748 -21.989  0.00  0.00    +0.015 C 
ATOM      3  C   UNL     1      31.103  -8.087 -23.613  0.00  0.00    +0.015 C 
ATOM      4  C   UNL     1      31.995  -5.854 -23.208  0.00  0.00    +0.001 C 
ATOM      5  C   UNL     1      31.293  -6.714 -24.252  0.00  0.00    +0.001 C 
ENDROOT
BRANCH   1   6
ATOM      6  C   UNL     1      31.907  -9.250 -21.463  0.00  0.00    -0.013 C 
ATOM      7  C   UNL     1      32.261  -9.016 -20.133  0.00  0.00    -0.004 C 
ATOM      8  C   UNL     1      31.297 -10.454 -21.820  0.00  0.00    -0.004 C 
ATOM      9  C   UNL     1      32.004  -9.985 -19.163  0.00  0.00    -0.000 C 
ATOM     10  C   UNL     1      31.041 -11.422 -20.849  0.00  0.00    -0.000 C 
ATOM     11  C   UNL     1      31.394 -11.187 -19.520  0.00  0.00    -0.000 C 
ENDBRANCH   1   6
BRANCH   1  13
ATOM     12  O   UNL     1      34.579  -8.003 -22.832  0.00  0.00    -0.250 OA
ATOM     13  C   UNL     1      33.519  -8.516 -23.163  0.00  0.00    +0.320 C 
BRANCH  13  14
ATOM     14  O   UNL     1      33.340  -9.446 -24.144  0.00  0.00    -0.451 OA
BRANCH  14  15
ATOM     15  C   UNL     1      34.233 -10.563 -24.101  0.00  0.00    +0.186 C 
BRANCH  15  16
ATOM     16  C   UNL     1      33.880 -11.514 -25.234  0.00  0.00    -0.029 C 
BRANCH  16  17
ATOM     17  N   UNL     1      33.918 -12.896 -24.777  0.00  0.00    +0.389 N 
ATOM     18  H   UNL     1      34.890 -13.203 -24.785  0.00  0.00    -0.080 HD
BRANCH  17  19
ATOM     19  C   UNL     1      33.146 -13.760 -25.672  0.00  0.00    -0.077 C 
ATOM     20  C   UNL     1      33.242 -13.282 -27.112  0.00  0.00    -0.025 C 
ENDBRANCH  17  19
BRANCH  17  21
ATOM     21  C   UNL     1      33.407 -13.002 -23.407  0.00  0.00    -0.077 C 
ATOM     22  C   UNL     1      34.101 -14.122 -22.649  0.00  0.00    -0.025 C 
ENDBRANCH  17  21
ENDBRANCH  16  17
ENDBRANCH  15  16
ENDBRANCH  14  15
ENDBRANCH  13  14
ENDBRANCH   1  13
TORSDOF 8
ENDMDL
MODEL 3
REMARK VINA RESULT:      -8.0      5.773      9.498
REMARK  Name = 6472
REMARK  8 active torsions:
REMARK  status: ('A' for Active; 'I' for Inactive)
REMARK    1  A    between atoms: C_1  and  C_6
REMARK    2  A    between atoms: C_1  and  C_13
REMARK    3  A    between atoms: C_13  and  O_14
REMARK    4  A    between atoms: O_14  and  C_15
REMARK    5  A    between atoms: C_15  and  C_16
REMARK    6  A    between atoms: C_16  and  N_17
REMARK    7  A    between atoms: N_17  and  C_19
REMARK    8  A    between atoms: N_17  and  C_21
REMARK                            x       y       z     vdW  Elec       q    Type
REMARK                         _______ _______ _______ _____ _____    ______ ____
ROOT
ATOM      1  C   UNL     1      32.224  -8.289 -22.574  0.00  0.00    +0.108 C 
ATOM      2  C   UNL     1      32.330  -6.834 -22.077  0.00  0.00    +0.015 C 
ATOM      3  C   UNL     1      31.117  -8.152 -23.638  0.00  0.00    +0.015 C 
ATOM      4  C   UNL     1      32.132  -5.959 -23.312  0.00  0.00    +0.001 C 
ATOM      5  C   UNL     1      31.358  -6.806 -24.315  0.00  0.00    +0.001 C 
ENDROOT
BRANCH   1   6
ATOM      6  C   UNL     1      31.920  -9.304 -21.481  0.00  0.00    -0.013 C 
ATOM      7  C   UNL     1      31.300 -10.512 -21.801  0.00  0.00    -0.004 C 
ATOM      8  C   UNL     1      32.261  -9.026 -20.156  0.00  0.00    -0.004 C 
ATOM      9  C   UNL     1      31.022 -11.441 -20.798  0.00  0.00    -0.000 C 
ATOM     10  C   UNL     1      31.983  -9.955 -19.153  0.00  0.00    -0.000 C 
ATOM     11  C   UNL     1      31.364 -11.163 -19.475  0.00  0.00    -0.000 C 
ENDBRANCH   1   6
BRANCH   1  13
ATOM     12  O   UNL     1      34.604  -8.185 -22.993  0.00  0.00    -0.250 OA
ATOM     13  C   UNL     1      33.519  -8.693 -23.240  0.00  0.00    +0.320 C 
BRANCH  13  14
ATOM     14  O   UNL     1      33.277  -9.690 -24.139  0.00  0.00    -0.451 OA
BRANCH  14  15
ATOM     15  C   UNL     1      34.158 -10.815 -24.061  0.00  0.00    +0.186 C 
BRANCH  15  16
ATOM     16  C   UNL     1      33.853 -11.755 -25.216  0.00  0.00    -0.029 C 
BRANCH  16  17
ATOM     17  N   UNL     1      33.206 -12.967 -24.736  0.00  0.00    +0.389 N 
ATOM     18  H   UNL     1      32.269 -12.719 -24.419  0.00  0.00    -0.080 HD
BRANCH  17  19
ATOM     19  C   UNL     1      33.946 -13.538 -23.609  0.00  0.00    -0.077 C 
ATOM     20  C   UNL     1      33.000 -14.110 -22.566  0.00  0.00    -0.025 C 
ENDBRANCH  17  19
BRANCH  17  21
ATOM     21  C   UNL     1      33.088 -13.953 -25.814  0.00  0.00    -0.077 C 
ATOM     22  C   UNL     1      33.340 -13.315 -27.170  0.00  0.00    -0.025 C 
ENDBRANCH  17  21
ENDBRANCH  16  17
ENDBRANCH  15  16
ENDBRANCH  14  15
ENDBRANCH  13  14
ENDBRANCH   1  13
TORSDOF 8
ENDMDL
MODEL 4
REMARK VINA RESULT:      -8.0      0.444      1.889
REMARK  Name = 6472
REMARK  8 active torsions:
REMARK  status: ('A' for Active; 'I' for Inactive)
REMARK    1  A    between atoms: C_1  and  C_6
REMARK    2  A    between atoms: C_1  and  C_13
REMARK    3  A    between atoms: C_13  and  O_14
REMARK    4  A    between atoms: O_14  and  C_15
REMARK    5  A    between atoms: C_15  and  C_16
REMARK    6  A    between atoms: C_16  and  N_17
REMARK    7  A    between atoms: N_17  and  C_19
REMARK    8  A    between atoms: N_17  and  C_21
REMARK                            x       y       z     vdW  Elec       q    Type
REMARK                         _______ _______ _______ _____ _____    ______ ____
ROOT
ATOM      1  C   UNL     1      34.856 -18.991 -21.597  0.00  0.00    +0.108 C 
ATOM      2  C   UNL     1      34.292 -19.340 -22.988  0.00  0.00    +0.015 C 
ATOM      3  C   UNL     1      36.299 -18.590 -21.960  0.00  0.00    +0.015 C 
ATOM      4  C   UNL     1      34.915 -18.334 -23.951  0.00  0.00    +0.001 C 
ATOM      5  C   UNL     1      36.200 -17.849 -23.290  0.00  0.00    +0.001 C 
ENDROOT
BRANCH   1   6
ATOM      6  C   UNL     1      34.756 -20.119 -20.579  0.00  0.00    -0.013 C 
ATOM      7  C   UNL     1      33.508 -20.622 -20.212  0.00  0.00    -0.004 C 
ATOM      8  C   UNL     1      35.916 -20.652 -20.011  0.00  0.00    -0.004 C 
ATOM      9  C   UNL     1      33.418 -21.655 -19.280  0.00  0.00    -0.000 C 
ATOM     10  C   UNL     1      35.825 -21.684 -19.078  0.00  0.00    -0.000 C 
ATOM     11  C   UNL     1      34.576 -22.187 -18.712  0.00  0.00    -0.000 C 
ENDBRANCH   1   6
BRANCH   1  13
ATOM     12  O   UNL     1      32.905 -17.674 -21.036  0.00  0.00    -0.250 OA
ATOM     13  C   UNL     1      34.123 -17.792 -21.038  0.00  0.00    +0.320 C 
BRANCH  13  14
ATOM     14  O   UNL     1      35.025 -16.891 -20.554  0.00  0.00    -0.451 OA
BRANCH  14  15
ATOM     15  C   UNL     1      34.543 -15.551 -20.422  0.00  0.00    +0.186 C 
BRANCH  15  16
ATOM     16  C   UNL     1      34.670 -14.850 -21.765  0.00  0.00    -0.029 C 
BRANCH  16  17
ATOM     17  N   UNL     1      33.544 -13.955 -21.986  0.00  0.00    +0.389 N 
ATOM     18  H   UNL     1      33.914 -13.018 -22.149  0.00  0.00    -0.080 HD
BRANCH  17  19
ATOM     19  C   UNL     1      32.673 -13.916 -20.809  0.00  0.00    -0.077 C 
ATOM     20  C   UNL     1      31.950 -12.583 -20.706  0.00  0.00    -0.025 C 
ENDBRANCH  17  19
BRANCH  17  21
ATOM     21  C   UNL     1      32.780 -14.366 -23.167  0.00  0.00    -0.077 C 
ATOM     22  C   UNL     1      33.685 -14.996 -24.213  0.00  0.00    -0.025 C 
ENDBRANCH  17  21
ENDBRANCH  16  17
ENDBRANCH  15  16
ENDBRANCH  14  15
ENDBRANCH  13  14
ENDBRANCH   1  13
TORSDOF 8
ENDMDL
MODEL 5
REMARK VINA RESULT:      -7.5      4.555      9.180
REMARK  Name = 6472
REMARK  8 active torsions:
REMARK  status: ('A' for Active; 'I' for Inactive)
REMARK    1  A    between atoms: C_1  and  C_6
REMARK    2  A    between atoms: C_1  and  C_13
REMARK    3  A    between atoms: C_13  and  O_14
REMARK    4  A    between atoms: O_14  and  C_15
REMARK    5  A    between atoms: C_15  and  C_16
REMARK    6  A    between atoms: C_16  and  N_17
REMARK    7  A    between atoms: N_17  and  C_19
REMARK    8  A    between atoms: N_17  and  C_21
REMARK                            x       y       z     vdW  Elec       q    Type
REMARK                         _______ _______ _______ _____ _____    ______ ____
ROOT
ATOM      1  C   UNL     1      32.354  -8.549 -22.652  0.00  0.00    +0.108 C 
ATOM      2  C   UNL     1      32.811  -7.119 -22.305  0.00  0.00    +0.015 C 
ATOM      3  C   UNL     1      31.189  -8.256 -23.617  0.00  0.00    +0.015 C 
ATOM      4  C   UNL     1      32.663  -6.314 -23.594  0.00  0.00    +0.001 C 
ATOM      5  C   UNL     1      31.626  -7.046 -24.437  0.00  0.00    +0.001 C 
ENDROOT
BRANCH   1   6
ATOM      6  C   UNL     1      31.969  -9.394 -21.445  0.00  0.00    -0.013 C 
ATOM      7  C   UNL     1      31.163 -10.521 -21.607  0.00  0.00    -0.004 C 
ATOM      8  C   UNL     1      32.423  -9.040 -20.172  0.00  0.00    -0.004 C 
ATOM      9  C   UNL     1      30.812 -11.293 -20.501  0.00  0.00    -0.000 C 
ATOM     10  C   UNL     1      32.071  -9.813 -19.066  0.00  0.00    -0.000 C 
ATOM     11  C   UNL     1      31.265 -10.940 -19.230  0.00  0.00    -0.000 C 
ENDBRANCH   1   6
BRANCH   1  13
ATOM     12  O   UNL     1      34.616  -8.881 -23.441  0.00  0.00    -0.250 OA
ATOM     13  C   UNL     1      33.457  -9.269 -23.393  0.00  0.00    +0.320 C 
BRANCH  13  14
ATOM     14  O   UNL     1      32.953 -10.391 -23.983  0.00  0.00    -0.451 OA
BRANCH  14  15
ATOM     15  C   UNL     1      33.807 -11.538 -23.954  0.00  0.00    +0.186 C 
BRANCH  15  16
ATOM     16  C   UNL     1      32.952 -12.780 -23.764  0.00  0.00    -0.029 C 
BRANCH  16  17
ATOM     17  N   UNL     1      33.624 -13.742 -22.902  0.00  0.00    +0.389 N 
ATOM     18  H   UNL     1      34.220 -13.223 -22.257  0.00  0.00    -0.080 HD
BRANCH  17  19
ATOM     19  C   UNL     1      34.464 -14.646 -23.691  0.00  0.00    -0.077 C 
ATOM     20  C   UNL     1      34.287 -16.087 -23.244  0.00  0.00    -0.025 C 
ENDBRANCH  17  19
BRANCH  17  21
ATOM     21  C   UNL     1      32.649 -14.509 -22.122  0.00  0.00    -0.077 C 
ATOM     22  C   UNL     1      32.847 -14.291 -20.631  0.00  0.00    -0.025 C 
ENDBRANCH  17  21
ENDBRANCH  16  17
ENDBRANCH  15  16
ENDBRANCH  14  15
ENDBRANCH  13  14
ENDBRANCH   1  13
TORSDOF 8
ENDMDL
MODEL 6
REMARK VINA RESULT:      -7.4      6.138     11.558
REMARK  Name = 6472
REMARK  8 active torsions:
REMARK  status: ('A' for Active; 'I' for Inactive)
REMARK    1  A    between atoms: C_1  and  C_6
REMARK    2  A    between atoms: C_1  and  C_13
REMARK    3  A    between atoms: C_13  and  O_14
REMARK    4  A    between atoms: O_14  and  C_15
REMARK    5  A    between atoms: C_15  and  C_16
REMARK    6  A    between atoms: C_16  and  N_17
REMARK    7  A    between atoms: N_17  and  C_19
REMARK    8  A    between atoms: N_17  and  C_21
REMARK                            x       y       z     vdW  Elec       q    Type
REMARK                         _______ _______ _______ _____ _____    ______ ____
ROOT
ATOM      1  C   UNL     1      32.582  -6.977 -23.101  0.00  0.00    +0.108 C 
ATOM      2  C   UNL     1      31.794  -6.074 -22.133  0.00  0.00    +0.015 C 
ATOM      3  C   UNL     1      33.725  -7.458 -22.185  0.00  0.00    +0.015 C 
ATOM      4  C   UNL     1      31.860  -6.767 -20.775  0.00  0.00    +0.001 C 
ATOM      5  C   UNL     1      33.095  -7.658 -20.810  0.00  0.00    +0.001 C 
ENDROOT
BRANCH   1   6
ATOM      6  C   UNL     1      33.049  -6.278 -24.371  0.00  0.00    -0.013 C 
ATOM      7  C   UNL     1      34.315  -6.546 -24.892  0.00  0.00    -0.004 C 
ATOM      8  C   UNL     1      32.210  -5.366 -25.015  0.00  0.00    -0.004 C 
ATOM      9  C   UNL     1      34.741  -5.904 -26.055  0.00  0.00    -0.000 C 
ATOM     10  C   UNL     1      32.637  -4.724 -26.177  0.00  0.00    -0.000 C 
ATOM     11  C   UNL     1      33.903  -4.994 -26.698  0.00  0.00    -0.000 C 
ENDBRANCH   1   6
BRANCH   1  13
ATOM     12  O   UNL     1      30.505  -8.129 -23.560  0.00  0.00    -0.250 OA
ATOM     13  C   UNL     1      31.727  -8.156 -23.506  0.00  0.00    +0.320 C 
BRANCH  13  14
ATOM     14  O   UNL     1      32.527  -9.224 -23.788  0.00  0.00    -0.451 OA
BRANCH  14  15
ATOM     15  C   UNL     1      32.247 -10.415 -23.046  0.00  0.00    +0.186 C 
BRANCH  15  16
ATOM     16  C   UNL     1      33.212 -11.504 -23.486  0.00  0.00    -0.029 C 
BRANCH  16  17
ATOM     17  N   UNL     1      32.679 -12.822 -23.173  0.00  0.00    +0.389 N 
ATOM     18  H   UNL     1      31.969 -13.048 -23.869  0.00  0.00    -0.080 HD
BRANCH  17  19
ATOM     19  C   UNL     1      32.053 -12.826 -21.848  0.00  0.00    -0.077 C 
ATOM     20  C   UNL     1      32.701 -13.857 -20.940  0.00  0.00    -0.025 C 
ENDBRANCH  17  19
BRANCH  17  21
ATOM     21  C   UNL     1      33.735 -13.836 -23.236  0.00  0.00    -0.077 C 
ATOM     22  C   UNL     1      33.518 -14.781 -24.406  0.00  0.00    -0.025 C 
ENDBRANCH  17  21
ENDBRANCH  16  17
ENDBRANCH  15  16
ENDBRANCH  14  15
ENDBRANCH  13  14
ENDBRANCH   1  13
TORSDOF 8
ENDMDL
MODEL 7
REMARK VINA RESULT:      -7.3      1.937      3.775
REMARK  Name = 6472
REMARK  8 active torsions:
REMARK  status: ('A' for Active; 'I' for Inactive)
REMARK    1  A    between atoms: C_1  and  C_6
REMARK    2  A    between atoms: C_1  and  C_13
REMARK    3  A    between atoms: C_13  and  O_14
REMARK    4  A    between atoms: O_14  and  C_15
REMARK    5  A    between atoms: C_15  and  C_16
REMARK    6  A    between atoms: C_16  and  N_17
REMARK    7  A    between atoms: N_17  and  C_19
REMARK    8  A    between atoms: N_17  and  C_21
REMARK                            x       y       z     vdW  Elec       q    Type
REMARK                         _______ _______ _______ _____ _____    ______ ____
ROOT
ATOM      1  C   UNL     1      34.081 -16.421 -21.449  0.00  0.00    +0.108 C 
ATOM      2  C   UNL     1      34.677 -15.404 -20.456  0.00  0.00    +0.015 C 
ATOM      3  C   UNL     1      32.578 -16.103 -21.325  0.00  0.00    +0.015 C 
ATOM      4  C   UNL     1      33.832 -14.141 -20.601  0.00  0.00    +0.001 C 
ATOM      5  C   UNL     1      32.488 -14.589 -21.163  0.00  0.00    +0.001 C 
ENDROOT
BRANCH   1   6
ATOM      6  C   UNL     1      34.442 -17.870 -21.154  0.00  0.00    -0.013 C 
ATOM      7  C   UNL     1      35.781 -18.255 -21.071  0.00  0.00    -0.004 C 
ATOM      8  C   UNL     1      33.433 -18.817 -20.965  0.00  0.00    -0.004 C 
ATOM      9  C   UNL     1      36.109 -19.583 -20.801  0.00  0.00    -0.000 C 
ATOM     10  C   UNL     1      33.762 -20.145 -20.695  0.00  0.00    -0.000 C 
ATOM     11  C   UNL     1      35.101 -20.528 -20.612  0.00  0.00    -0.000 C 
ENDBRANCH   1   6
BRANCH   1  13
ATOM     12  O   UNL     1      35.708 -15.811 -23.133  0.00  0.00    -0.250 OA
ATOM     13  C   UNL     1      34.554 -16.098 -22.849  0.00  0.00    +0.320 C 
BRANCH  13  14
ATOM     14  O   UNL     1      33.502 -16.178 -23.714  0.00  0.00    -0.451 OA
BRANCH  14  15
ATOM     15  C   UNL     1      33.698 -15.541 -24.980  0.00  0.00    +0.186 C 
BRANCH  15  16
ATOM     16  C   UNL     1      32.910 -14.242 -25.001  0.00  0.00    -0.029 C 
BRANCH  16  17
ATOM     17  N   UNL     1      33.807 -13.095 -24.952  0.00  0.00    +0.389 N 
ATOM     18  H   UNL     1      34.758 -13.445 -24.837  0.00  0.00    -0.080 HD
BRANCH  17  19
ATOM     19  C   UNL     1      33.484 -12.233 -23.813  0.00  0.00    -0.077 C 
ATOM     20  C   UNL     1      33.860 -10.788 -24.096  0.00  0.00    -0.025 C 
ENDBRANCH  17  19
BRANCH  17  21
ATOM     21  C   UNL     1      33.738 -12.331 -26.200  0.00  0.00    -0.077 C 
ATOM     22  C   UNL     1      33.028 -13.120 -27.288  0.00  0.00    -0.025 C 
ENDBRANCH  17  21
ENDBRANCH  16  17
ENDBRANCH  15  16
ENDBRANCH  14  15
ENDBRANCH  13  14
ENDBRANCH   1  13
TORSDOF 8
ENDMDL
MODEL 8
REMARK VINA RESULT:      -7.3      8.746     10.966
REMARK  Name = 6472
REMARK  8 active torsions:
REMARK  status: ('A' for Active; 'I' for Inactive)
REMARK    1  A    between atoms: C_1  and  C_6
REMARK    2  A    between atoms: C_1  and  C_13
REMARK    3  A    between atoms: C_13  and  O_14
REMARK    4  A    between atoms: O_14  and  C_15
REMARK    5  A    between atoms: C_15  and  C_16
REMARK    6  A    between atoms: C_16  and  N_17
REMARK    7  A    between atoms: N_17  and  C_19
REMARK    8  A    between atoms: N_17  and  C_21
REMARK                            x       y       z     vdW  Elec       q    Type
REMARK                         _______ _______ _______ _____ _____    ______ ____
ROOT
ATOM      1  C   UNL     1      32.765  -8.576 -22.590  0.00  0.00    +0.108 C 
ATOM      2  C   UNL     1      33.398  -9.370 -23.749  0.00  0.00    +0.015 C 
ATOM      3  C   UNL     1      33.973  -7.746 -22.111  0.00  0.00    +0.015 C 
ATOM      4  C   UNL     1      34.375  -8.409 -24.423  0.00  0.00    +0.001 C 
ATOM      5  C   UNL     1      34.739  -7.365 -23.375  0.00  0.00    +0.001 C 
ENDROOT
BRANCH   1   6
ATOM      6  C   UNL     1      32.133  -9.442 -21.509  0.00  0.00    -0.013 C 
ATOM      7  C   UNL     1      32.297  -9.113 -20.163  0.00  0.00    -0.004 C 
ATOM      8  C   UNL     1      31.387 -10.568 -21.864  0.00  0.00    -0.004 C 
ATOM      9  C   UNL     1      31.717  -9.907 -19.175  0.00  0.00    -0.000 C 
ATOM     10  C   UNL     1      30.808 -11.363 -20.875  0.00  0.00    -0.000 C 
ATOM     11  C   UNL     1      30.973 -11.032 -19.530  0.00  0.00    -0.000 C 
ENDBRANCH   1   6
BRANCH   1  13
ATOM     12  O   UNL     1      31.097  -7.839 -24.180  0.00  0.00    -0.250 OA
ATOM     13  C   UNL     1      31.698  -7.651 -23.131  0.00  0.00    +0.320 C 
BRANCH  13  14
ATOM     14  O   UNL     1      31.528  -6.602 -22.276  0.00  0.00    -0.451 OA
BRANCH  14  15
ATOM     15  C   UNL     1      30.705  -5.539 -22.764  0.00  0.00    +0.186 C 
BRANCH  15  16
ATOM     16  C   UNL     1      31.596  -4.474 -23.383  0.00  0.00    -0.029 C 
BRANCH  16  17
ATOM     17  N   UNL     1      30.897  -3.774 -24.451  0.00  0.00    +0.389 N 
ATOM     18  H   UNL     1      29.963  -4.176 -24.532  0.00  0.00    -0.080 HD
BRANCH  17  19
ATOM     19  C   UNL     1      31.593  -3.947 -25.727  0.00  0.00    -0.077 C 
ATOM     20  C   UNL     1      32.677  -5.007 -25.621  0.00  0.00    -0.025 C 
ENDBRANCH  17  19
BRANCH  17  21
ATOM     21  C   UNL     1      30.765  -2.349 -24.136  0.00  0.00    -0.077 C 
ATOM     22  C   UNL     1      31.865  -1.893 -23.191  0.00  0.00    -0.025 C 
ENDBRANCH  17  21
ENDBRANCH  16  17
ENDBRANCH  15  16
ENDBRANCH  14  15
ENDBRANCH  13  14
ENDBRANCH   1  13
TORSDOF 8
ENDMDL
MODEL 9
REMARK VINA RESULT:      -7.3      5.785     11.144
REMARK  Name = 6472
REMARK  8 active torsions:
REMARK  status: ('A' for Active; 'I' for Inactive)
REMARK    1  A    between atoms: C_1  and  C_6
REMARK    2  A    between atoms: C_1  and  C_13
REMARK    3  A    between atoms: C_13  and  O_14
REMARK    4  A    between atoms: O_14  and  C_15
REMARK    5  A    between atoms: C_15  and  C_16
REMARK    6  A    between atoms: C_16  and  N_17
REMARK    7  A    between atoms: N_17  and  C_19
REMARK    8  A    between atoms: N_17  and  C_21
REMARK                            x       y       z     vdW  Elec       q    Type
REMARK                         _______ _______ _______ _____ _____    ______ ____
ROOT
ATOM      1  C   UNL     1      32.665  -7.734 -22.971  0.00  0.00    +0.108 C 
ATOM      2  C   UNL     1      31.457  -8.676 -22.799  0.00  0.00    +0.015 C 
ATOM      3  C   UNL     1      32.889  -7.280 -21.515  0.00  0.00    +0.015 C 
ATOM      4  C   UNL     1      31.680  -9.397 -21.473  0.00  0.00    +0.001 C 
ATOM      5  C   UNL     1      32.603  -8.505 -20.651  0.00  0.00    +0.001 C 
ENDROOT
BRANCH   1   6
ATOM      6  C   UNL     1      32.437  -6.595 -23.955  0.00  0.00    -0.013 C 
ATOM      7  C   UNL     1      33.412  -6.284 -24.903  0.00  0.00    -0.004 C 
ATOM      8  C   UNL     1      31.251  -5.859 -23.908  0.00  0.00    -0.004 C 
ATOM      9  C   UNL     1      33.201  -5.240 -25.804  0.00  0.00    -0.000 C 
ATOM     10  C   UNL     1      31.042  -4.815 -24.808  0.00  0.00    -0.000 C 
ATOM     11  C   UNL     1      32.016  -4.505 -25.757  0.00  0.00    -0.000 C 
ENDBRANCH   1   6
BRANCH   1  13
ATOM     12  O   UNL     1      35.024  -8.193 -23.252  0.00  0.00    -0.250 OA
ATOM     13  C   UNL     1      33.863  -8.527 -23.444  0.00  0.00    +0.320 C 
BRANCH  13  14
ATOM     14  O   UNL     1      33.439  -9.642 -24.104  0.00  0.00    -0.451 OA
BRANCH  14  15
ATOM     15  C   UNL     1      34.453 -10.610 -24.391  0.00  0.00    +0.186 C 
BRANCH  15  16
ATOM     16  C   UNL     1      33.789 -11.951 -24.654  0.00  0.00    -0.029 C 
BRANCH  16  17
ATOM     17  N   UNL     1      33.766 -12.761 -23.444  0.00  0.00    +0.389 N 
ATOM     18  H   UNL     1      34.465 -12.388 -22.803  0.00  0.00    -0.080 HD
BRANCH  17  19
ATOM     19  C   UNL     1      34.104 -14.154 -23.746  0.00  0.00    -0.077 C 
ATOM     20  C   UNL     1      33.320 -14.660 -24.945  0.00  0.00    -0.025 C 
ENDBRANCH  17  19
BRANCH  17  21
ATOM     21  C   UNL     1      32.453 -12.688 -22.798  0.00  0.00    -0.077 C 
ATOM     22  C   UNL     1      32.434 -13.487 -21.505  0.00  0.00    -0.025 C 
ENDBRANCH  17  21
ENDBRANCH  16  17
ENDBRANCH  15  16
ENDBRANCH  14  15
ENDBRANCH  13  14
ENDBRANCH   1  13
TORSDOF 8
ENDMDL
