MODEL 1
REMARK VINA RESULT:      -5.1      0.000      0.000
REMARK  Name = 7970
REMARK  0 active torsions:
REMARK  status: ('A' for Active; 'I' for Inactive)
REMARK                            x       y       z     vdW  Elec       q    Type
REMARK                         _______ _______ _______ _____ _____    ______ ____
ROOT
ATOM      1  N   UNL     1      32.890 -21.736 -19.481  0.00  0.00    -0.243 NA
ATOM      2  C   UNL     1      34.292 -20.099 -20.574  0.00  0.00    -0.003 C 
ATOM      3  C   UNL     1      35.429 -20.757 -20.118  0.00  0.00    -0.001 C 
ATOM      4  C   UNL     1      34.400 -18.868 -21.403  0.00  0.00    +0.033 C 
ATOM      5  C   UNL     1      33.058 -20.625 -20.231  0.00  0.00    +0.095 C 
ATOM      6  C   UNL     1      35.299 -21.905 -19.344  0.00  0.00    +0.020 C 
ATOM      7  C   UNL     1      34.018 -22.350 -19.056  0.00  0.00    +0.099 C 
ENDROOT
TORSDOF 0
ENDMDL
MODEL 2
REMARK VINA RESULT:      -5.1      0.900      2.488
REMARK  Name = 7970
REMARK  0 active torsions:
REMARK  status: ('A' for Active; 'I' for Inactive)
REMARK                            x       y       z     vdW  Elec       q    Type
REMARK                         _______ _______ _______ _____ _____    ______ ____
ROOT
ATOM      1  N   UNL     1      32.730 -20.932 -19.838  0.00  0.00    -0.243 NA
ATOM      2  C   UNL     1      35.146 -20.891 -19.896  0.00  0.00    -0.003 C 
ATOM      3  C   UNL     1      35.114 -19.835 -20.799  0.00  0.00    -0.001 C 
ATOM      4  C   UNL     1      36.438 -21.457 -19.424  0.00  0.00    +0.033 C 
ATOM      5  C   UNL     1      33.937 -21.399 -19.450  0.00  0.00    +0.095 C 
ATOM      6  C   UNL     1      33.891 -19.326 -21.223  0.00  0.00    +0.020 C 
ATOM      7  C   UNL     1      32.738 -19.905 -20.718  0.00  0.00    +0.099 C 
ENDROOT
TORSDOF 0
ENDMDL
MODEL 3
REMARK VINA RESULT:      -5.0      1.525      3.266
REMARK  Name = 7970
REMARK  0 active torsions:
REMARK  status: ('A' for Active; 'I' for Inactive)
REMARK                            x       y       z     vdW  Elec       q    Type
REMARK                         _______ _______ _______ _____ _____    ______ ____
ROOT
ATOM      1  N   UNL     1      35.786 -19.831 -20.550  0.00  0.00    -0.243 NA
ATOM      2  C   UNL     1      34.165 -21.367 -19.624  0.00  0.00    -0.003 C 
ATOM      3  C   UNL     1      33.130 -20.615 -20.169  0.00  0.00    -0.001 C 
ATOM      4  C   UNL     1      33.886 -22.595 -18.831  0.00  0.00    +0.033 C 
ATOM      5  C   UNL     1      35.463 -20.936 -19.842  0.00  0.00    +0.095 C 
ATOM      6  C   UNL     1      33.421 -19.471 -20.904  0.00  0.00    +0.020 C 
ATOM      7  C   UNL     1      34.753 -19.125 -21.065  0.00  0.00    +0.099 C 
ENDROOT
TORSDOF 0
ENDMDL
MODEL 4
REMARK VINA RESULT:      -5.0      1.729      2.262
REMARK  Name = 7970
REMARK  0 active torsions:
REMARK  status: ('A' for Active; 'I' for Inactive)
REMARK                            x       y       z     vdW  Elec       q    Type
REMARK                         _______ _______ _______ _____ _____    ______ ____
ROOT
ATOM      1  N   UNL     1      36.420 -20.158 -20.192  0.00  0.00    -0.243 NA
ATOM      2  C   UNL     1      34.020 -20.432 -20.297  0.00  0.00    -0.003 C 
ATOM      3  C   UNL     1      34.101 -21.531 -19.450  0.00  0.00    -0.001 C 
ATOM      4  C   UNL     1      32.710 -19.965 -20.824  0.00  0.00    +0.033 C 
ATOM      5  C   UNL     1      35.198 -19.786 -20.635  0.00  0.00    +0.095 C 
ATOM      6  C   UNL     1      35.340 -21.946 -18.973  0.00  0.00    +0.020 C 
ATOM      7  C   UNL     1      36.459 -21.232 -19.370  0.00  0.00    +0.099 C 
ENDROOT
TORSDOF 0
ENDMDL
MODEL 5
REMARK VINA RESULT:      -4.8      1.694      2.885
REMARK  Name = 7970
REMARK  0 active torsions:
REMARK  status: ('A' for Active; 'I' for Inactive)
REMARK                            x       y       z     vdW  Elec       q    Type
REMARK                         _______ _______ _______ _____ _____    ______ ____
ROOT
ATOM      1  N   UNL     1      34.183 -18.939 -21.384  0.00  0.00    -0.243 NA
ATOM      2  C   UNL     1      35.311 -20.687 -20.154  0.00  0.00    -0.003 C 
ATOM      3  C   UNL     1      34.086 -21.182 -19.720  0.00  0.00    -0.001 C 
ATOM      4  C   UNL     1      36.587 -21.334 -19.745  0.00  0.00    +0.033 C 
ATOM      5  C   UNL     1      35.305 -19.573 -20.977  0.00  0.00    +0.095 C 
ATOM      6  C   UNL     1      32.909 -20.556 -20.117  0.00  0.00    +0.020 C 
ATOM      7  C   UNL     1      33.011 -19.448 -20.942  0.00  0.00    +0.099 C 
ENDROOT
TORSDOF 0
ENDMDL
MODEL 6
REMARK VINA RESULT:      -4.7      1.224      2.680
REMARK  Name = 7970
REMARK  0 active torsions:
REMARK  status: ('A' for Active; 'I' for Inactive)
REMARK                            x       y       z     vdW  Elec       q    Type
REMARK                         _______ _______ _______ _____ _____    ______ ____
ROOT
ATOM      1  N   UNL     1      33.781 -19.764 -20.916  0.00  0.00    -0.243 NA
ATOM      2  C   UNL     1      34.016 -21.574 -19.331  0.00  0.00    -0.003 C 
ATOM      3  C   UNL     1      35.400 -21.501 -19.441  0.00  0.00    -0.001 C 
ATOM      4  C   UNL     1      33.370 -22.570 -18.434  0.00  0.00    +0.033 C 
ATOM      5  C   UNL     1      33.259 -20.691 -20.083  0.00  0.00    +0.095 C 
ATOM      6  C   UNL     1      35.977 -20.560 -20.288  0.00  0.00    +0.020 C 
ATOM      7  C   UNL     1      35.131 -19.722 -20.997  0.00  0.00    +0.099 C 
ENDROOT
TORSDOF 0
ENDMDL
MODEL 7
REMARK VINA RESULT:      -4.7      3.995      5.501
REMARK  Name = 7970
REMARK  0 active torsions:
REMARK  status: ('A' for Active; 'I' for Inactive)
REMARK                            x       y       z     vdW  Elec       q    Type
REMARK                         _______ _______ _______ _____ _____    ______ ____
ROOT
ATOM      1  N   UNL     1      34.912 -16.285 -24.021  0.00  0.00    -0.243 NA
ATOM      2  C   UNL     1      35.273 -18.212 -22.607  0.00  0.00    -0.003 C 
ATOM      3  C   UNL     1      34.875 -19.053 -23.640  0.00  0.00    -0.001 C 
ATOM      4  C   UNL     1      35.685 -18.760 -21.287  0.00  0.00    +0.033 C 
ATOM      5  C   UNL     1      35.274 -16.847 -22.847  0.00  0.00    +0.095 C 
ATOM      6  C   UNL     1      34.494 -18.512 -24.863  0.00  0.00    +0.020 C 
ATOM      7  C   UNL     1      34.530 -17.134 -25.002  0.00  0.00    +0.099 C 
ENDROOT
TORSDOF 0
ENDMDL
MODEL 8
REMARK VINA RESULT:      -4.6      9.467     10.069
REMARK  Name = 7970
REMARK  0 active torsions:
REMARK  status: ('A' for Active; 'I' for Inactive)
REMARK                            x       y       z     vdW  Elec       q    Type
REMARK                         _______ _______ _______ _____ _____    ______ ____
ROOT
ATOM      1  N   UNL     1      42.050 -16.976 -16.865  0.00  0.00    -0.243 NA
ATOM      2  C   UNL     1      41.275 -14.877 -15.950  0.00  0.00    -0.003 C 
ATOM      3  C   UNL     1      41.373 -14.286 -17.205  0.00  0.00    -0.001 C 
ATOM      4  C   UNL     1      40.813 -14.099 -14.770  0.00  0.00    +0.033 C 
ATOM      5  C   UNL     1      41.623 -16.213 -15.835  0.00  0.00    +0.095 C 
ATOM      6  C   UNL     1      41.809 -15.038 -18.291  0.00  0.00    +0.020 C 
ATOM      7  C   UNL     1      42.132 -16.367 -18.070  0.00  0.00    +0.099 C 
ENDROOT
TORSDOF 0
ENDMDL
MODEL 9
REMARK VINA RESULT:      -4.6      5.093      6.742
REMARK  Name = 7970
REMARK  0 active torsions:
REMARK  status: ('A' for Active; 'I' for Inactive)
REMARK                            x       y       z     vdW  Elec       q    Type
REMARK                         _______ _______ _______ _____ _____    ______ ____
ROOT
ATOM      1  N   UNL     1      33.930 -16.515 -25.899  0.00  0.00    -0.243 NA
ATOM      2  C   UNL     1      34.932 -17.305 -23.846  0.00  0.00    -0.003 C 
ATOM      3  C   UNL     1      34.606 -16.108 -23.218  0.00  0.00    -0.001 C 
ATOM      4  C   UNL     1      35.643 -18.386 -23.113  0.00  0.00    +0.033 C 
ATOM      5  C   UNL     1      34.576 -17.457 -25.176  0.00  0.00    +0.095 C 
ATOM      6  C   UNL     1      33.942 -15.114 -23.928  0.00  0.00    +0.020 C 
ATOM      7  C   UNL     1      33.629 -15.364 -25.255  0.00  0.00    +0.099 C 
ENDROOT
TORSDOF 0
ENDMDL
