MODEL 1
REMARK VINA RESULT:      -9.1      0.000      0.000
REMARK  Name = 15818
REMARK  2 active torsions:
REMARK  status: ('A' for Active; 'I' for Inactive)
REMARK    1  A    between atoms: C_11  and  O_20
REMARK    2  A    between atoms: C_19  and  O_22
REMARK                            x       y       z     vdW  Elec       q    Type
REMARK                         _______ _______ _______ _____ _____    ______ ____
ROOT
ATOM      1  C   UNL     1      34.414 -24.529 -14.632  0.00  0.00    +0.000 C 
ATOM      2  C   UNL     1      33.874 -23.310 -15.451  0.00  0.00    +0.000 C 
ATOM      3  C   UNL     1      32.450 -23.630 -15.919  0.00  0.00    +0.002 C 
ATOM      4  C   UNL     1      35.898 -24.305 -14.156  0.00  0.00    +0.000 C 
ATOM      5  C   UNL     1      31.484 -23.896 -14.748  0.00  0.00    +0.025 C 
ATOM      6  C   UNL     1      36.756 -24.012 -15.429  0.00  0.00    +0.002 C 
ATOM      7  C   UNL     1      33.434 -24.953 -13.504  0.00  0.00    +0.000 C 
ATOM      8  C   UNL     1      31.984 -25.133 -13.989  0.00  0.00    +0.002 C 
ATOM      9  C   UNL     1      34.795 -22.981 -16.634  0.00  0.00    +0.000 C 
ATOM     10  C   UNL     1      31.702 -22.614 -16.776  0.00  0.00    +0.003 C 
ATOM     11  C   UNL     1      30.183 -24.113 -15.546  0.00  0.00    +0.110 C 
ATOM     12  C   UNL     1      36.249 -22.792 -16.207  0.00  0.00    +0.000 C 
ATOM     13  C   UNL     1      36.461 -25.595 -13.495  0.00  0.00    +0.002 C 
ATOM     14  C   UNL     1      30.224 -23.022 -16.636  0.00  0.00    +0.029 C 
ATOM     15  C   UNL     1      38.259 -23.896 -15.124  0.00  0.00    +0.029 C 
ATOM     16  C   UNL     1      35.976 -23.153 -13.123  0.00  0.00    +0.000 C 
ATOM     17  C   UNL     1      31.330 -22.713 -13.759  0.00  0.00    +0.002 C 
ATOM     18  C   UNL     1      37.966 -25.530 -13.202  0.00  0.00    +0.029 C 
ATOM     19  C   UNL     1      38.791 -25.152 -14.431  0.00  0.00    +0.111 C 
ENDROOT
BRANCH  11  20
ATOM     20  O   UNL     1      29.006 -24.047 -14.764  0.00  0.00    -0.384 OA
ATOM     21  H   UNL     1      29.173 -23.506 -13.976  0.00  0.00    +0.210 HD
ENDBRANCH  11  20
BRANCH  19  22
ATOM     22  O   UNL     1      38.768 -26.251 -15.341  0.00  0.00    -0.384 OA
ATOM     23  H   UNL     1      38.746 -27.082 -14.843  0.00  0.00    +0.210 HD
ENDBRANCH  19  22
TORSDOF 2
ENDMDL
MODEL 2
REMARK VINA RESULT:      -8.2     11.019     13.352
REMARK  Name = 15818
REMARK  2 active torsions:
REMARK  status: ('A' for Active; 'I' for Inactive)
REMARK    1  A    between atoms: C_11  and  O_20
REMARK    2  A    between atoms: C_19  and  O_22
REMARK                            x       y       z     vdW  Elec       q    Type
REMARK                         _______ _______ _______ _____ _____    ______ ____
ROOT
ATOM      1  C   UNL     1      34.403 -14.876 -23.242  0.00  0.00    +0.000 C 
ATOM      2  C   UNL     1      33.988 -16.234 -23.899  0.00  0.00    +0.000 C 
ATOM      3  C   UNL     1      34.838 -17.352 -23.283  0.00  0.00    +0.002 C 
ATOM      4  C   UNL     1      33.613 -13.661 -23.858  0.00  0.00    +0.000 C 
ATOM      5  C   UNL     1      34.650 -17.471 -21.758  0.00  0.00    +0.025 C 
ATOM      6  C   UNL     1      33.860 -13.680 -25.401  0.00  0.00    +0.002 C 
ATOM      7  C   UNL     1      34.369 -14.945 -21.691  0.00  0.00    +0.000 C 
ATOM      8  C   UNL     1      35.120 -16.160 -21.115  0.00  0.00    +0.002 C 
ATOM      9  C   UNL     1      34.143 -16.185 -25.425  0.00  0.00    +0.000 C 
ATOM     10  C   UNL     1      34.658 -18.784 -23.779  0.00  0.00    +0.003 C 
ATOM     11  C   UNL     1      35.565 -18.683 -21.491  0.00  0.00    +0.110 C 
ATOM     12  C   UNL     1      33.415 -14.997 -26.048  0.00  0.00    +0.000 C 
ATOM     13  C   UNL     1      34.164 -12.315 -23.308  0.00  0.00    +0.002 C 
ATOM     14  C   UNL     1      35.262 -19.647 -22.657  0.00  0.00    +0.029 C 
ATOM     15  C   UNL     1      33.246 -12.467 -26.120  0.00  0.00    +0.029 C 
ATOM     16  C   UNL     1      32.106 -13.752 -23.508  0.00  0.00    +0.000 C 
ATOM     17  C   UNL     1      33.197 -17.772 -21.310  0.00  0.00    +0.002 C 
ATOM     18  C   UNL     1      33.597 -11.081 -24.021  0.00  0.00    +0.029 C 
ATOM     19  C   UNL     1      33.759 -11.148 -25.538  0.00  0.00    +0.111 C 
ENDROOT
BRANCH  11  20
ATOM     20  O   UNL     1      35.368 -19.290 -20.228  0.00  0.00    -0.384 OA
ATOM     21  H   UNL     1      34.451 -19.597 -20.157  0.00  0.00    +0.210 HD
ENDBRANCH  11  20
BRANCH  19  22
ATOM     22  O   UNL     1      35.143 -10.992 -25.848  0.00  0.00    -0.384 OA
ATOM     23  H   UNL     1      35.539 -10.348 -25.241  0.00  0.00    +0.210 HD
ENDBRANCH  19  22
TORSDOF 2
ENDMDL
MODEL 3
REMARK VINA RESULT:      -8.1      3.457      6.121
REMARK  Name = 15818
REMARK  2 active torsions:
REMARK  status: ('A' for Active; 'I' for Inactive)
REMARK    1  A    between atoms: C_11  and  O_20
REMARK    2  A    between atoms: C_19  and  O_22
REMARK                            x       y       z     vdW  Elec       q    Type
REMARK                         _______ _______ _______ _____ _____    ______ ____
ROOT
ATOM      1  C   UNL     1      34.386 -22.152 -17.403  0.00  0.00    +0.000 C 
ATOM      2  C   UNL     1      35.799 -22.672 -16.980  0.00  0.00    +0.000 C 
ATOM      3  C   UNL     1      35.831 -22.806 -15.453  0.00  0.00    +0.002 C 
ATOM      4  C   UNL     1      34.284 -21.933 -18.960  0.00  0.00    +0.000 C 
ATOM      5  C   UNL     1      34.770 -23.789 -14.920  0.00  0.00    +0.025 C 
ATOM      6  C   UNL     1      35.430 -20.953 -19.368  0.00  0.00    +0.002 C 
ATOM      7  C   UNL     1      33.244 -23.012 -16.799  0.00  0.00    +0.000 C 
ATOM      8  C   UNL     1      33.384 -23.238 -15.282  0.00  0.00    +0.002 C 
ATOM      9  C   UNL     1      36.911 -21.742 -17.486  0.00  0.00    +0.000 C 
ATOM     10  C   UNL     1      37.117 -23.263 -14.772  0.00  0.00    +0.003 C 
ATOM     11  C   UNL     1      35.113 -23.730 -13.418  0.00  0.00    +0.110 C 
ATOM     12  C   UNL     1      36.816 -21.484 -18.987  0.00  0.00    +0.000 C 
ATOM     13  C   UNL     1      32.932 -21.259 -19.330  0.00  0.00    +0.002 C 
ATOM     14  C   UNL     1      36.655 -23.742 -13.383  0.00  0.00    +0.029 C 
ATOM     15  C   UNL     1      35.372 -20.549 -20.851  0.00  0.00    +0.029 C 
ATOM     16  C   UNL     1      34.378 -23.285 -19.711  0.00  0.00    +0.000 C 
ATOM     17  C   UNL     1      34.906 -25.236 -15.457  0.00  0.00    +0.002 C 
ATOM     18  C   UNL     1      32.847 -20.815 -20.796  0.00  0.00    +0.029 C 
ATOM     19  C   UNL     1      34.020 -19.931 -21.214  0.00  0.00    +0.111 C 
ENDROOT
BRANCH  11  20
ATOM     20  O   UNL     1      34.551 -24.780 -12.654  0.00  0.00    -0.384 OA
ATOM     21  H   UNL     1      35.063 -24.896 -11.838  0.00  0.00    +0.210 HD
ENDBRANCH  11  20
BRANCH  19  22
ATOM     22  O   UNL     1      33.881 -18.666 -20.569  0.00  0.00    -0.384 OA
ATOM     23  H   UNL     1      33.419 -18.052 -21.160  0.00  0.00    +0.210 HD
ENDBRANCH  19  22
TORSDOF 2
ENDMDL
MODEL 4
REMARK VINA RESULT:      -7.5      1.548      6.337
REMARK  Name = 15818
REMARK  2 active torsions:
REMARK  status: ('A' for Active; 'I' for Inactive)
REMARK    1  A    between atoms: C_11  and  O_20
REMARK    2  A    between atoms: C_19  and  O_22
REMARK                            x       y       z     vdW  Elec       q    Type
REMARK                         _______ _______ _______ _____ _____    ______ ____
ROOT
ATOM      1  C   UNL     1      32.828 -23.485 -14.737  0.00  0.00    +0.000 C 
ATOM      2  C   UNL     1      33.814 -23.454 -15.952  0.00  0.00    +0.000 C 
ATOM      3  C   UNL     1      35.186 -22.988 -15.452  0.00  0.00    +0.002 C 
ATOM      4  C   UNL     1      31.374 -23.903 -15.173  0.00  0.00    +0.000 C 
ATOM      5  C   UNL     1      35.774 -23.918 -14.372  0.00  0.00    +0.025 C 
ATOM      6  C   UNL     1      30.918 -22.908 -16.288  0.00  0.00    +0.002 C 
ATOM      7  C   UNL     1      33.400 -24.297 -13.544  0.00  0.00    +0.000 C 
ATOM      8  C   UNL     1      34.835 -23.892 -13.159  0.00  0.00    +0.002 C 
ATOM      9  C   UNL     1      33.287 -22.550 -17.074  0.00  0.00    +0.000 C 
ATOM     10  C   UNL     1      36.329 -22.834 -16.452  0.00  0.00    +0.003 C 
ATOM     11  C   UNL     1      37.128 -23.215 -14.153  0.00  0.00    +0.110 C 
ATOM     12  C   UNL     1      31.864 -22.910 -17.494  0.00  0.00    +0.000 C 
ATOM     13  C   UNL     1      30.384 -23.761 -13.981  0.00  0.00    +0.002 C 
ATOM     14  C   UNL     1      37.595 -22.846 -15.576  0.00  0.00    +0.029 C 
ATOM     15  C   UNL     1      29.458 -23.123 -16.721  0.00  0.00    +0.029 C 
ATOM     16  C   UNL     1      31.347 -25.375 -15.658  0.00  0.00    +0.000 C 
ATOM     17  C   UNL     1      35.984 -25.383 -14.829  0.00  0.00    +0.002 C 
ATOM     18  C   UNL     1      28.913 -23.940 -14.380  0.00  0.00    +0.029 C 
ATOM     19  C   UNL     1      28.498 -23.029 -15.533  0.00  0.00    +0.111 C 
ENDROOT
BRANCH  11  20
ATOM     20  O   UNL     1      38.082 -23.999 -13.461  0.00  0.00    -0.384 OA
ATOM     21  H   UNL     1      38.093 -24.895 -13.833  0.00  0.00    +0.210 HD
ENDBRANCH  11  20
BRANCH  19  22
ATOM     22  O   UNL     1      28.459 -21.686 -15.052  0.00  0.00    -0.384 OA
ATOM     23  H   UNL     1      27.885 -21.640 -14.271  0.00  0.00    +0.210 HD
ENDBRANCH  19  22
TORSDOF 2
ENDMDL
MODEL 5
REMARK VINA RESULT:      -7.3     13.542     15.645
REMARK  Name = 15818
REMARK  2 active torsions:
REMARK  status: ('A' for Active; 'I' for Inactive)
REMARK    1  A    between atoms: C_11  and  O_20
REMARK    2  A    between atoms: C_19  and  O_22
REMARK                            x       y       z     vdW  Elec       q    Type
REMARK                         _______ _______ _______ _____ _____    ______ ____
ROOT
ATOM      1  C   UNL     1      33.373 -11.420 -22.685  0.00  0.00    +0.000 C 
ATOM      2  C   UNL     1      32.223 -10.576 -22.042  0.00  0.00    +0.000 C 
ATOM      3  C   UNL     1      32.657  -9.106 -22.012  0.00  0.00    +0.002 C 
ATOM      4  C   UNL     1      33.030 -12.957 -22.707  0.00  0.00    +0.000 C 
ATOM      5  C   UNL     1      32.948  -8.542 -23.416  0.00  0.00    +0.025 C 
ATOM      6  C   UNL     1      32.723 -13.386 -21.236  0.00  0.00    +0.002 C 
ATOM      7  C   UNL     1      33.823 -10.843 -24.054  0.00  0.00    +0.000 C 
ATOM      8  C   UNL     1      34.120  -9.332 -24.014  0.00  0.00    +0.002 C 
ATOM      9  C   UNL     1      31.873 -11.089 -20.638  0.00  0.00    +0.000 C 
ATOM     10  C   UNL     1      31.725  -8.067 -21.395  0.00  0.00    +0.003 C 
ATOM     11  C   UNL     1      33.282  -7.087 -23.033  0.00  0.00    +0.110 C 
ATOM     12  C   UNL     1      31.569 -12.585 -20.623  0.00  0.00    +0.000 C 
ATOM     13  C   UNL     1      34.254 -13.784 -23.194  0.00  0.00    +0.002 C 
ATOM     14  C   UNL     1      32.230  -6.728 -21.963  0.00  0.00    +0.029 C 
ATOM     15  C   UNL     1      32.493 -14.900 -21.090  0.00  0.00    +0.029 C 
ATOM     16  C   UNL     1      31.839 -13.241 -23.658  0.00  0.00    +0.000 C 
ATOM     17  C   UNL     1      31.745  -8.590 -24.391  0.00  0.00    +0.002 C 
ATOM     18  C   UNL     1      34.075 -15.299 -23.036  0.00  0.00    +0.029 C 
ATOM     19  C   UNL     1      33.684 -15.703 -21.617  0.00  0.00    +0.111 C 
ENDROOT
BRANCH  11  20
ATOM     20  O   UNL     1      33.271  -6.184 -24.122  0.00  0.00    -0.384 OA
ATOM     21  H   UNL     1      34.168  -6.100 -24.481  0.00  0.00    +0.210 HD
ENDBRANCH  11  20
BRANCH  19  22
ATOM     22  O   UNL     1      34.813 -15.503 -20.767  0.00  0.00    -0.384 OA
ATOM     23  H   UNL     1      34.575 -15.732 -19.855  0.00  0.00    +0.210 HD
ENDBRANCH  19  22
TORSDOF 2
ENDMDL
MODEL 6
REMARK VINA RESULT:      -7.2     19.589     21.722
REMARK  Name = 15818
REMARK  2 active torsions:
REMARK  status: ('A' for Active; 'I' for Inactive)
REMARK    1  A    between atoms: C_11  and  O_20
REMARK    2  A    between atoms: C_19  and  O_22
REMARK                            x       y       z     vdW  Elec       q    Type
REMARK                         _______ _______ _______ _____ _____    ______ ____
ROOT
ATOM      1  C   UNL     1      33.083  -5.582 -24.365  0.00  0.00    +0.000 C 
ATOM      2  C   UNL     1      32.083  -4.468 -24.819  0.00  0.00    +0.000 C 
ATOM      3  C   UNL     1      32.836  -3.469 -25.705  0.00  0.00    +0.002 C 
ATOM      4  C   UNL     1      32.401  -6.625 -23.403  0.00  0.00    +0.000 C 
ATOM      5  C   UNL     1      33.439  -4.125 -26.963  0.00  0.00    +0.025 C 
ATOM      6  C   UNL     1      31.806  -5.828 -22.198  0.00  0.00    +0.002 C 
ATOM      7  C   UNL     1      33.837  -6.213 -25.567  0.00  0.00    +0.000 C 
ATOM      8  C   UNL     1      34.466  -5.171 -26.510  0.00  0.00    +0.002 C 
ATOM      9  C   UNL     1      31.436  -3.773 -23.613  0.00  0.00    +0.000 C 
ATOM     10  C   UNL     1      32.095  -2.254 -26.255  0.00  0.00    +0.003 C 
ATOM     11  C   UNL     1      34.045  -2.873 -27.628  0.00  0.00    +0.110 C 
ATOM     12  C   UNL     1      30.796  -4.764 -22.644  0.00  0.00    +0.000 C 
ATOM     13  C   UNL     1      33.456  -7.618 -22.836  0.00  0.00    +0.002 C 
ATOM     14  C   UNL     1      32.968  -1.786 -27.434  0.00  0.00    +0.029 C 
ATOM     15  C   UNL     1      31.215  -6.740 -21.110  0.00  0.00    +0.029 C 
ATOM     16  C   UNL     1      31.318  -7.440 -24.155  0.00  0.00    +0.000 C 
ATOM     17  C   UNL     1      32.401  -4.795 -27.899  0.00  0.00    +0.002 C 
ATOM     18  C   UNL     1      32.912  -8.526 -21.726  0.00  0.00    +0.029 C 
ATOM     19  C   UNL     1      32.248  -7.744 -20.594  0.00  0.00    +0.111 C 
ENDROOT
BRANCH  11  20
ATOM     20  O   UNL     1      34.390  -3.050 -28.988  0.00  0.00    -0.384 OA
ATOM     21  H   UNL     1      34.845  -3.900 -29.097  0.00  0.00    +0.210 HD
ENDBRANCH  11  20
BRANCH  19  22
ATOM     22  O   UNL     1      33.266  -7.056 -19.868  0.00  0.00    -0.384 OA
ATOM     23  H   UNL     1      33.920  -6.699 -20.489  0.00  0.00    +0.210 HD
ENDBRANCH  19  22
TORSDOF 2
ENDMDL
MODEL 7
REMARK VINA RESULT:      -7.0      1.153      6.578
REMARK  Name = 15818
REMARK  2 active torsions:
REMARK  status: ('A' for Active; 'I' for Inactive)
REMARK    1  A    between atoms: C_11  and  O_20
REMARK    2  A    between atoms: C_19  and  O_22
REMARK                            x       y       z     vdW  Elec       q    Type
REMARK                         _______ _______ _______ _____ _____    ______ ____
ROOT
ATOM      1  C   UNL     1      33.076 -23.775 -15.557  0.00  0.00    +0.000 C 
ATOM      2  C   UNL     1      33.729 -24.314 -14.241  0.00  0.00    +0.000 C 
ATOM      3  C   UNL     1      35.139 -24.819 -14.569  0.00  0.00    +0.002 C 
ATOM      4  C   UNL     1      31.599 -23.284 -15.320  0.00  0.00    +0.000 C 
ATOM      5  C   UNL     1      36.047 -23.715 -15.148  0.00  0.00    +0.025 C 
ATOM      6  C   UNL     1      30.804 -24.479 -14.703  0.00  0.00    +0.002 C 
ATOM      7  C   UNL     1      33.987 -22.747 -16.281  0.00  0.00    +0.000 C 
ATOM      8  C   UNL     1      35.434 -23.238 -16.471  0.00  0.00    +0.002 C 
ATOM      9  C   UNL     1      32.871 -25.415 -13.603  0.00  0.00    +0.000 C 
ATOM     10  C   UNL     1      35.986 -25.435 -13.460  0.00  0.00    +0.003 C 
ATOM     11  C   UNL     1      37.351 -24.523 -15.297  0.00  0.00    +0.110 C 
ATOM     12  C   UNL     1      31.424 -24.978 -13.393  0.00  0.00    +0.000 C 
ATOM     13  C   UNL     1      30.921 -22.915 -16.671  0.00  0.00    +0.002 C 
ATOM     14  C   UNL     1      37.424 -25.362 -14.004  0.00  0.00    +0.029 C 
ATOM     15  C   UNL     1      29.305 -24.178 -14.535  0.00  0.00    +0.029 C 
ATOM     16  C   UNL     1      31.576 -22.034 -14.404  0.00  0.00    +0.000 C 
ATOM     17  C   UNL     1      36.259 -22.500 -14.211  0.00  0.00    +0.002 C 
ATOM     18  C   UNL     1      29.418 -22.636 -16.549  0.00  0.00    +0.029 C 
ATOM     19  C   UNL     1      28.661 -23.769 -15.861  0.00  0.00    +0.111 C 
ENDROOT
BRANCH  11  20
ATOM     20  O   UNL     1      38.506 -23.728 -15.487  0.00  0.00    -0.384 OA
ATOM     21  H   UNL     1      38.415 -23.219 -16.308  0.00  0.00    +0.210 HD
ENDBRANCH  11  20
BRANCH  19  22
ATOM     22  O   UNL     1      28.629 -24.889 -16.745  0.00  0.00    -0.384 OA
ATOM     23  H   UNL     1      27.709 -25.092 -16.976  0.00  0.00    +0.210 HD
ENDBRANCH  19  22
TORSDOF 2
ENDMDL
MODEL 8
REMARK VINA RESULT:      -6.6     14.773     17.259
REMARK  Name = 15818
REMARK  2 active torsions:
REMARK  status: ('A' for Active; 'I' for Inactive)
REMARK    1  A    between atoms: C_11  and  O_20
REMARK    2  A    between atoms: C_19  and  O_22
REMARK                            x       y       z     vdW  Elec       q    Type
REMARK                         _______ _______ _______ _____ _____    ______ ____
ROOT
ATOM      1  C   UNL     1      32.355  -9.528 -23.128  0.00  0.00    +0.000 C 
ATOM      2  C   UNL     1      32.546 -10.417 -21.855  0.00  0.00    +0.000 C 
ATOM      3  C   UNL     1      32.147 -11.855 -22.201  0.00  0.00    +0.002 C 
ATOM      4  C   UNL     1      32.693  -8.016 -22.845  0.00  0.00    +0.000 C 
ATOM      5  C   UNL     1      32.996 -12.451 -23.342  0.00  0.00    +0.025 C 
ATOM      6  C   UNL     1      31.795  -7.555 -21.652  0.00  0.00    +0.002 C 
ATOM      7  C   UNL     1      33.073 -10.126 -24.368  0.00  0.00    +0.000 C 
ATOM      8  C   UNL     1      32.751 -11.613 -24.605  0.00  0.00    +0.002 C 
ATOM      9  C   UNL     1      31.733  -9.877 -20.670  0.00  0.00    +0.000 C 
ATOM     10  C   UNL     1      32.206 -12.927 -21.116  0.00  0.00    +0.003 C 
ATOM     11  C   UNL     1      32.392 -13.869 -23.384  0.00  0.00    +0.110 C 
ATOM     12  C   UNL     1      32.015  -8.402 -20.393  0.00  0.00    +0.000 C 
ATOM     13  C   UNL     1      32.332  -7.135 -24.075  0.00  0.00    +0.002 C 
ATOM     14  C   UNL     1      32.228 -14.252 -21.899  0.00  0.00    +0.029 C 
ATOM     15  C   UNL     1      31.931  -6.053 -21.347  0.00  0.00    +0.029 C 
ATOM     16  C   UNL     1      34.202  -7.839 -22.541  0.00  0.00    +0.000 C 
ATOM     17  C   UNL     1      34.516 -12.510 -23.050  0.00  0.00    +0.002 C 
ATOM     18  C   UNL     1      32.427  -5.629 -23.801  0.00  0.00    +0.029 C 
ATOM     19  C   UNL     1      31.621  -5.199 -22.578  0.00  0.00    +0.111 C 
ENDROOT
BRANCH  11  20
ATOM     20  O   UNL     1      33.172 -14.809 -24.098  0.00  0.00    -0.384 OA
ATOM     21  H   UNL     1      32.601 -15.306 -24.706  0.00  0.00    +0.210 HD
ENDBRANCH  11  20
BRANCH  19  22
ATOM     22  O   UNL     1      30.234  -5.300 -22.897  0.00  0.00    -0.384 OA
ATOM     23  H   UNL     1      29.717  -5.351 -22.078  0.00  0.00    +0.210 HD
ENDBRANCH  19  22
TORSDOF 2
ENDMDL
MODEL 9
REMARK VINA RESULT:      -6.5     18.610     20.507
REMARK  Name = 15818
REMARK  2 active torsions:
REMARK  status: ('A' for Active; 'I' for Inactive)
REMARK    1  A    between atoms: C_11  and  O_20
REMARK    2  A    between atoms: C_19  and  O_22
REMARK                            x       y       z     vdW  Elec       q    Type
REMARK                         _______ _______ _______ _____ _____    ______ ____
ROOT
ATOM      1  C   UNL     1      32.242  -6.719 -24.464  0.00  0.00    +0.000 C 
ATOM      2  C   UNL     1      33.162  -5.514 -24.852  0.00  0.00    +0.000 C 
ATOM      3  C   UNL     1      32.307  -4.461 -25.565  0.00  0.00    +0.002 C 
ATOM      4  C   UNL     1      33.054  -7.877 -23.771  0.00  0.00    +0.000 C 
ATOM      5  C   UNL     1      31.157  -3.932 -24.686  0.00  0.00    +0.025 C 
ATOM      6  C   UNL     1      34.201  -8.290 -24.747  0.00  0.00    +0.002 C 
ATOM      7  C   UNL     1      30.981  -6.261 -23.682  0.00  0.00    +0.000 C 
ATOM      8  C   UNL     1      30.224  -5.107 -24.364  0.00  0.00    +0.002 C 
ATOM      9  C   UNL     1      34.338  -5.970 -25.726  0.00  0.00    +0.000 C 
ATOM     10  C   UNL     1      32.972  -3.190 -26.086  0.00  0.00    +0.003 C 
ATOM     11  C   UNL     1      30.566  -2.888 -25.654  0.00  0.00    +0.110 C 
ATOM     12  C   UNL     1      35.124  -7.116 -25.094  0.00  0.00    +0.000 C 
ATOM     13  C   UNL     1      32.150  -9.123 -23.551  0.00  0.00    +0.002 C 
ATOM     14  C   UNL     1      31.804  -2.205 -26.273  0.00  0.00    +0.029 C 
ATOM     15  C   UNL     1      35.003  -9.504 -24.249  0.00  0.00    +0.029 C 
ATOM     16  C   UNL     1      33.597  -7.418 -22.393  0.00  0.00    +0.000 C 
ATOM     17  C   UNL     1      31.612  -3.259 -23.366  0.00  0.00    +0.002 C 
ATOM     18  C   UNL     1      32.919 -10.365 -23.082  0.00  0.00    +0.029 C 
ATOM     19  C   UNL     1      34.096 -10.710 -23.991  0.00  0.00    +0.111 C 
ENDROOT
BRANCH  11  20
ATOM     20  O   UNL     1      29.691  -1.960 -25.042  0.00  0.00    -0.384 OA
ATOM     21  H   UNL     1      29.799  -2.002 -24.079  0.00  0.00    +0.210 HD
ENDBRANCH  11  20
BRANCH  19  22
ATOM     22  O   UNL     1      33.580 -11.197 -25.229  0.00  0.00    -0.384 OA
ATOM     23  H   UNL     1      34.238 -11.064 -25.928  0.00  0.00    +0.210 HD
ENDBRANCH  19  22
TORSDOF 2
ENDMDL
