MODEL 1
REMARK VINA RESULT:     -12.5      0.000      0.000
REMARK  Name = 9865515
REMARK  6 active torsions:
REMARK  status: ('A' for Active; 'I' for Inactive)
REMARK    1  A    between atoms: C_1  and  C_20
REMARK    2  A    between atoms: C_2  and  C_9
REMARK    3  A    between atoms: N_8  and  C_11
REMARK    4  A    between atoms: C_12  and  N_17
REMARK    5  A    between atoms: C_20  and  N_21
REMARK    6  A    between atoms: C_25  and  C_30
REMARK                            x       y       z     vdW  Elec       q    Type
REMARK                         _______ _______ _______ _____ _____    ______ ____
ROOT
ATOM      1  C   UNL     1      34.242 -21.264 -19.948  0.00  0.00    -0.002 C 
ATOM      2  C   UNL     1      34.431 -18.710 -21.052  0.00  0.00    +0.054 C 
ATOM      3  C   UNL     1      33.086 -20.523 -20.192  0.00  0.00    -0.002 C 
ATOM      4  C   UNL     1      35.493 -20.728 -20.255  0.00  0.00    -0.002 C 
ATOM      5  C   UNL     1      33.181 -19.245 -20.743  0.00  0.00    +0.004 C 
ATOM      6  C   UNL     1      35.587 -19.451 -20.808  0.00  0.00    +0.004 C 
ENDROOT
BRANCH   2   9
ATOM      7  O   UNL     1      35.613 -17.004 -22.104  0.00  0.00    -0.270 OA
ATOM      8  N   UNL     1      33.352 -16.616 -21.609  0.00  0.00    -0.279 N 
ATOM      9  C   UNL     1      34.529 -17.376 -21.625  0.00  0.00    +0.250 C 
ATOM     10  H   UNL     1      32.571 -17.045 -21.194  0.00  0.00    +0.155 HD
BRANCH   8  11
ATOM     11  C   UNL     1      33.142 -15.308 -22.112  0.00  0.00    +0.064 C 
ATOM     12  C   UNL     1      33.433 -15.012 -23.434  0.00  0.00    +0.055 C 
ATOM     13  C   UNL     1      32.643 -14.344 -21.251  0.00  0.00    +0.016 C 
ATOM     14  C   UNL     1      33.218 -13.717 -23.907  0.00  0.00    +0.015 C 
ATOM     15  C   UNL     1      32.429 -13.050 -21.723  0.00  0.00    +0.001 C 
ATOM     16  C   UNL     1      32.716 -12.736 -23.052  0.00  0.00    +0.001 C 
BRANCH  12  17
ATOM     17  N   UNL     1      33.940 -15.990 -24.318  0.00  0.00    -0.356 N 
ATOM     18  H   UNL     1      34.493 -15.720 -25.086  0.00  0.00    +0.142 HD
ATOM     19  H   UNL     1      33.741 -16.942 -24.166  0.00  0.00    +0.142 HD
ENDBRANCH  12  17
ENDBRANCH   8  11
ENDBRANCH   2   9
BRANCH   1  20
ATOM     20  C   UNL     1      34.142 -22.632 -19.359  0.00  0.00    +0.124 C 
BRANCH  20  21
ATOM     21  N   UNL     1      33.062 -22.703 -18.398  0.00  0.00    -0.264 N 
ATOM     22  N   UNL     1      34.453 -23.600 -16.735  0.00  0.00    -0.338 NA
ATOM     23  N   UNL     1      32.118 -23.191 -16.306  0.00  0.00    -0.170 NA
ATOM     24  C   UNL     1      33.216 -23.179 -17.108  0.00  0.00    +0.145 C 
ATOM     25  C   UNL     1      34.567 -24.058 -15.471  0.00  0.00    +0.147 C 
ATOM     26  C   UNL     1      33.517 -24.113 -14.578  0.00  0.00    +0.055 C 
ATOM     27  C   UNL     1      32.303 -23.662 -15.055  0.00  0.00    +0.114 C 
ATOM     28  H   UNL     1      32.170 -22.395 -18.678  0.00  0.00    +0.160 HD
BRANCH  25  30
ATOM     29  N   UNL     1      38.115 -23.941 -14.338  0.00  0.00    -0.242 NA
ATOM     30  C   UNL     1      35.889 -24.500 -15.095  0.00  0.00    +0.050 C 
ATOM     31  C   UNL     1      36.228 -25.849 -15.118  0.00  0.00    +0.006 C 
ATOM     32  C   UNL     1      36.861 -23.594 -14.700  0.00  0.00    +0.101 C 
ATOM     33  C   UNL     1      37.509 -26.245 -14.752  0.00  0.00    +0.021 C 
ATOM     34  C   UNL     1      38.408 -25.260 -14.372  0.00  0.00    +0.099 C 
ENDBRANCH  25  30
ENDBRANCH  20  21
ENDBRANCH   1  20
TORSDOF 6
ENDMDL
MODEL 2
REMARK VINA RESULT:     -12.2      2.727     10.472
REMARK  Name = 9865515
REMARK  6 active torsions:
REMARK  status: ('A' for Active; 'I' for Inactive)
REMARK    1  A    between atoms: C_1  and  C_20
REMARK    2  A    between atoms: C_2  and  C_9
REMARK    3  A    between atoms: N_8  and  C_11
REMARK    4  A    between atoms: C_12  and  N_17
REMARK    5  A    between atoms: C_20  and  N_21
REMARK    6  A    between atoms: C_25  and  C_30
REMARK                            x       y       z     vdW  Elec       q    Type
REMARK                         _______ _______ _______ _____ _____    ______ ____
ROOT
ATOM      1  C   UNL     1      35.478 -19.741 -20.594  0.00  0.00    -0.002 C 
ATOM      2  C   UNL     1      34.238 -21.790 -19.165  0.00  0.00    +0.054 C 
ATOM      3  C   UNL     1      34.089 -19.868 -20.621  0.00  0.00    -0.002 C 
ATOM      4  C   UNL     1      36.246 -20.638 -19.853  0.00  0.00    -0.002 C 
ATOM      5  C   UNL     1      33.469 -20.893 -19.907  0.00  0.00    +0.004 C 
ATOM      6  C   UNL     1      35.626 -21.663 -19.139  0.00  0.00    +0.004 C 
ENDROOT
BRANCH   2   9
ATOM      7  O   UNL     1      33.724 -24.032 -18.813  0.00  0.00    -0.270 OA
ATOM      8  N   UNL     1      32.874 -22.468 -17.284  0.00  0.00    -0.279 N 
ATOM      9  C   UNL     1      33.591 -22.861 -18.422  0.00  0.00    +0.250 C 
ATOM     10  H   UNL     1      32.856 -21.502 -17.101  0.00  0.00    +0.155 HD
BRANCH   8  11
ATOM     11  C   UNL     1      32.169 -23.283 -16.362  0.00  0.00    +0.064 C 
ATOM     12  C   UNL     1      32.758 -23.653 -15.164  0.00  0.00    +0.055 C 
ATOM     13  C   UNL     1      30.888 -23.694 -16.693  0.00  0.00    +0.016 C 
ATOM     14  C   UNL     1      32.046 -24.456 -14.273  0.00  0.00    +0.015 C 
ATOM     15  C   UNL     1      30.176 -24.496 -15.803  0.00  0.00    +0.001 C 
ATOM     16  C   UNL     1      30.755 -24.878 -14.592  0.00  0.00    +0.001 C 
BRANCH  12  17
ATOM     17  N   UNL     1      34.063 -23.237 -14.820  0.00  0.00    -0.356 N 
ATOM     18  H   UNL     1      34.835 -23.808 -15.037  0.00  0.00    +0.142 HD
ATOM     19  H   UNL     1      34.201 -22.375 -14.364  0.00  0.00    +0.142 HD
ENDBRANCH  12  17
ENDBRANCH   8  11
ENDBRANCH   2   9
BRANCH   1  20
ATOM     20  C   UNL     1      36.142 -18.644 -21.357  0.00  0.00    +0.124 C 
BRANCH  20  21
ATOM     21  N   UNL     1      35.884 -18.770 -22.775  0.00  0.00    -0.264 N 
ATOM     22  N   UNL     1      34.590 -16.813 -22.826  0.00  0.00    -0.338 NA
ATOM     23  N   UNL     1      34.957 -18.107 -24.826  0.00  0.00    -0.170 NA
ATOM     24  C   UNL     1      35.120 -17.869 -23.497  0.00  0.00    +0.145 C 
ATOM     25  C   UNL     1      33.852 -15.956 -23.560  0.00  0.00    +0.147 C 
ATOM     26  C   UNL     1      33.624 -16.104 -24.914  0.00  0.00    +0.055 C 
ATOM     27  C   UNL     1      34.207 -17.209 -25.500  0.00  0.00    +0.114 C 
ATOM     28  H   UNL     1      36.273 -19.539 -23.252  0.00  0.00    +0.160 HD
BRANCH  25  30
ATOM     29  N   UNL     1      32.358 -12.614 -22.860  0.00  0.00    -0.242 NA
ATOM     30  C   UNL     1      33.297 -14.841 -22.829  0.00  0.00    +0.050 C 
ATOM     31  C   UNL     1      33.163 -14.886 -21.445  0.00  0.00    +0.006 C 
ATOM     32  C   UNL     1      32.883 -13.692 -23.483  0.00  0.00    +0.101 C 
ATOM     33  C   UNL     1      32.626 -13.797 -20.769  0.00  0.00    +0.021 C 
ATOM     34  C   UNL     1      32.242 -12.695 -21.516  0.00  0.00    +0.099 C 
ENDBRANCH  25  30
ENDBRANCH  20  21
ENDBRANCH   1  20
TORSDOF 6
ENDMDL
MODEL 3
REMARK VINA RESULT:     -12.2      2.823     10.855
REMARK  Name = 9865515
REMARK  6 active torsions:
REMARK  status: ('A' for Active; 'I' for Inactive)
REMARK    1  A    between atoms: C_1  and  C_20
REMARK    2  A    between atoms: C_2  and  C_9
REMARK    3  A    between atoms: N_8  and  C_11
REMARK    4  A    between atoms: C_12  and  N_17
REMARK    5  A    between atoms: C_20  and  N_21
REMARK    6  A    between atoms: C_25  and  C_30
REMARK                            x       y       z     vdW  Elec       q    Type
REMARK                         _______ _______ _______ _____ _____    ______ ____
ROOT
ATOM      1  C   UNL     1      34.707 -19.963 -20.523  0.00  0.00    -0.002 C 
ATOM      2  C   UNL     1      33.798 -22.045 -18.905  0.00  0.00    +0.054 C 
ATOM      3  C   UNL     1      33.338 -20.156 -20.337  0.00  0.00    -0.002 C 
ATOM      4  C   UNL     1      35.622 -20.812 -19.900  0.00  0.00    -0.002 C 
ATOM      5  C   UNL     1      32.883 -21.197 -19.529  0.00  0.00    +0.004 C 
ATOM      6  C   UNL     1      35.167 -21.853 -19.091  0.00  0.00    +0.004 C 
ENDROOT
BRANCH   2   9
ATOM      7  O   UNL     1      33.634 -24.300 -18.354  0.00  0.00    -0.270 OA
ATOM      8  N   UNL     1      32.556 -22.757 -16.953  0.00  0.00    -0.279 N 
ATOM      9  C   UNL     1      33.324 -23.133 -18.063  0.00  0.00    +0.250 C 
ATOM     10  H   UNL     1      32.391 -21.792 -16.854  0.00  0.00    +0.155 HD
BRANCH   8  11
ATOM     11  C   UNL     1      31.986 -23.586 -15.954  0.00  0.00    +0.064 C 
ATOM     12  C   UNL     1      32.687 -23.865 -14.793  0.00  0.00    +0.055 C 
ATOM     13  C   UNL     1      30.720 -24.104 -16.175  0.00  0.00    +0.016 C 
ATOM     14  C   UNL     1      32.105 -24.684 -13.824  0.00  0.00    +0.015 C 
ATOM     15  C   UNL     1      30.138 -24.922 -15.207  0.00  0.00    +0.001 C 
ATOM     16  C   UNL     1      30.832 -25.213 -14.031  0.00  0.00    +0.001 C 
BRANCH  12  17
ATOM     17  N   UNL     1      33.977 -23.339 -14.562  0.00  0.00    -0.356 N 
ATOM     18  H   UNL     1      34.587 -23.789 -13.934  0.00  0.00    +0.142 HD
ATOM     19  H   UNL     1      34.268 -22.523 -15.030  0.00  0.00    +0.142 HD
ENDBRANCH  12  17
ENDBRANCH   8  11
ENDBRANCH   2   9
BRANCH   1  20
ATOM     20  C   UNL     1      35.194 -18.848 -21.387  0.00  0.00    +0.124 C 
BRANCH  20  21
ATOM     21  N   UNL     1      35.264 -17.610 -20.642  0.00  0.00    -0.264 N 
ATOM     22  N   UNL     1      34.460 -16.348 -22.450  0.00  0.00    -0.338 NA
ATOM     23  N   UNL     1      35.015 -15.294 -20.356  0.00  0.00    -0.170 NA
ATOM     24  C   UNL     1      34.902 -16.381 -21.166  0.00  0.00    +0.145 C 
ATOM     25  C   UNL     1      34.117 -15.135 -22.928  0.00  0.00    +0.147 C 
ATOM     26  C   UNL     1      34.194 -13.971 -22.191  0.00  0.00    +0.055 C 
ATOM     27  C   UNL     1      34.654 -14.112 -20.898  0.00  0.00    +0.114 C 
ATOM     28  H   UNL     1      35.585 -17.644 -19.712  0.00  0.00    +0.160 HD
BRANCH  25  30
ATOM     29  N   UNL     1      33.369 -16.293 -26.391  0.00  0.00    -0.242 NA
ATOM     30  C   UNL     1      33.650 -15.123 -24.294  0.00  0.00    +0.050 C 
ATOM     31  C   UNL     1      33.053 -13.990 -24.839  0.00  0.00    +0.006 C 
ATOM     32  C   UNL     1      33.782 -16.239 -25.106  0.00  0.00    +0.101 C 
ATOM     33  C   UNL     1      32.615 -14.008 -26.158  0.00  0.00    +0.021 C 
ATOM     34  C   UNL     1      32.794 -15.174 -26.885  0.00  0.00    +0.099 C 
ENDBRANCH  25  30
ENDBRANCH  20  21
ENDBRANCH   1  20
TORSDOF 6
ENDMDL
MODEL 4
REMARK VINA RESULT:     -12.0      3.826     12.282
REMARK  Name = 9865515
REMARK  6 active torsions:
REMARK  status: ('A' for Active; 'I' for Inactive)
REMARK    1  A    between atoms: C_1  and  C_20
REMARK    2  A    between atoms: C_2  and  C_9
REMARK    3  A    between atoms: N_8  and  C_11
REMARK    4  A    between atoms: C_12  and  N_17
REMARK    5  A    between atoms: C_20  and  N_21
REMARK    6  A    between atoms: C_25  and  C_30
REMARK                            x       y       z     vdW  Elec       q    Type
REMARK                         _______ _______ _______ _____ _____    ______ ____
ROOT
ATOM      1  C   UNL     1      33.185 -14.542 -24.250  0.00  0.00    -0.002 C 
ATOM      2  C   UNL     1      34.190 -16.301 -22.333  0.00  0.00    +0.054 C 
ATOM      3  C   UNL     1      32.937 -14.315 -22.897  0.00  0.00    -0.002 C 
ATOM      4  C   UNL     1      33.936 -15.648 -24.645  0.00  0.00    -0.002 C 
ATOM      5  C   UNL     1      33.438 -15.195 -21.938  0.00  0.00    +0.004 C 
ATOM      6  C   UNL     1      34.439 -16.528 -23.687  0.00  0.00    +0.004 C 
ENDROOT
BRANCH   2   9
ATOM      7  O   UNL     1      35.284 -16.761 -20.332  0.00  0.00    -0.270 OA
ATOM      8  N   UNL     1      34.495 -18.582 -21.583  0.00  0.00    -0.279 N 
ATOM      9  C   UNL     1      34.712 -17.220 -21.334  0.00  0.00    +0.250 C 
ATOM     10  H   UNL     1      34.026 -18.794 -22.422  0.00  0.00    +0.155 HD
BRANCH   8  11
ATOM     11  C   UNL     1      34.863 -19.694 -20.785  0.00  0.00    +0.064 C 
ATOM     12  C   UNL     1      33.890 -20.490 -20.203  0.00  0.00    +0.055 C 
ATOM     13  C   UNL     1      36.212 -19.956 -20.605  0.00  0.00    +0.016 C 
ATOM     14  C   UNL     1      34.277 -21.578 -19.421  0.00  0.00    +0.015 C 
ATOM     15  C   UNL     1      36.598 -21.044 -19.823  0.00  0.00    +0.001 C 
ATOM     16  C   UNL     1      35.630 -21.855 -19.230  0.00  0.00    +0.001 C 
BRANCH  12  17
ATOM     17  N   UNL     1      32.514 -20.229 -20.384  0.00  0.00    -0.356 N 
ATOM     18  H   UNL     1      32.132 -19.372 -20.087  0.00  0.00    +0.142 HD
ATOM     19  H   UNL     1      31.936 -20.905 -20.807  0.00  0.00    +0.142 HD
ENDBRANCH  12  17
ENDBRANCH   8  11
ENDBRANCH   2   9
BRANCH   1  20
ATOM     20  C   UNL     1      32.650 -13.600 -25.276  0.00  0.00    +0.124 C 
BRANCH  20  21
ATOM     21  N   UNL     1      33.721 -12.863 -25.911  0.00  0.00    -0.264 N 
ATOM     22  N   UNL     1      33.513 -11.061 -24.422  0.00  0.00    -0.338 NA
ATOM     23  N   UNL     1      35.165 -11.032 -26.176  0.00  0.00    -0.170 NA
ATOM     24  C   UNL     1      34.145 -11.614 -25.490  0.00  0.00    +0.145 C 
ATOM     25  C   UNL     1      33.952  -9.845 -24.039  0.00  0.00    +0.147 C 
ATOM     26  C   UNL     1      34.978  -9.167 -24.666  0.00  0.00    +0.055 C 
ATOM     27  C   UNL     1      35.553  -9.816 -25.740  0.00  0.00    +0.114 C 
ATOM     28  H   UNL     1      34.173 -13.273 -26.684  0.00  0.00    +0.160 HD
BRANCH  25  30
ATOM     29  N   UNL     1      31.669  -9.540 -21.109  0.00  0.00    -0.242 NA
ATOM     30  C   UNL     1      33.267  -9.275 -22.903  0.00  0.00    +0.050 C 
ATOM     31  C   UNL     1      33.512  -7.966 -22.500  0.00  0.00    +0.006 C 
ATOM     32  C   UNL     1      32.345 -10.013 -22.179  0.00  0.00    +0.101 C 
ATOM     33  C   UNL     1      32.837  -7.444 -21.403  0.00  0.00    +0.021 C 
ATOM     34  C   UNL     1      31.934  -8.265 -20.747  0.00  0.00    +0.099 C 
ENDBRANCH  25  30
ENDBRANCH  20  21
ENDBRANCH   1  20
TORSDOF 6
ENDMDL
MODEL 5
REMARK VINA RESULT:     -11.9      1.595      3.727
REMARK  Name = 9865515
REMARK  6 active torsions:
REMARK  status: ('A' for Active; 'I' for Inactive)
REMARK    1  A    between atoms: C_1  and  C_20
REMARK    2  A    between atoms: C_2  and  C_9
REMARK    3  A    between atoms: N_8  and  C_11
REMARK    4  A    between atoms: C_12  and  N_17
REMARK    5  A    between atoms: C_20  and  N_21
REMARK    6  A    between atoms: C_25  and  C_30
REMARK                            x       y       z     vdW  Elec       q    Type
REMARK                         _______ _______ _______ _____ _____    ______ ____
ROOT
ATOM      1  C   UNL     1      34.302 -21.273 -20.005  0.00  0.00    -0.002 C 
ATOM      2  C   UNL     1      34.471 -18.674 -21.002  0.00  0.00    +0.054 C 
ATOM      3  C   UNL     1      33.139 -20.543 -20.251  0.00  0.00    -0.002 C 
ATOM      4  C   UNL     1      35.549 -20.703 -20.257  0.00  0.00    -0.002 C 
ATOM      5  C   UNL     1      33.223 -19.244 -20.749  0.00  0.00    +0.004 C 
ATOM      6  C   UNL     1      35.634 -19.403 -20.756  0.00  0.00    +0.004 C 
ENDROOT
BRANCH   2   9
ATOM      7  O   UNL     1      35.654 -16.896 -21.924  0.00  0.00    -0.270 OA
ATOM      8  N   UNL     1      33.360 -16.591 -21.540  0.00  0.00    -0.279 N 
ATOM      9  C   UNL     1      34.559 -17.317 -21.520  0.00  0.00    +0.250 C 
ATOM     10  H   UNL     1      32.570 -17.059 -21.184  0.00  0.00    +0.155 HD
BRANCH   8  11
ATOM     11  C   UNL     1      33.136 -15.271 -22.006  0.00  0.00    +0.064 C 
ATOM     12  C   UNL     1      33.437 -14.932 -23.315  0.00  0.00    +0.055 C 
ATOM     13  C   UNL     1      32.615 -14.342 -21.121  0.00  0.00    +0.016 C 
ATOM     14  C   UNL     1      33.210 -13.626 -23.750  0.00  0.00    +0.015 C 
ATOM     15  C   UNL     1      32.387 -13.037 -21.556  0.00  0.00    +0.001 C 
ATOM     16  C   UNL     1      32.685 -12.678 -22.871  0.00  0.00    +0.001 C 
BRANCH  12  17
ATOM     17  N   UNL     1      33.968 -15.875 -24.222  0.00  0.00    -0.356 N 
ATOM     18  H   UNL     1      33.642 -15.903 -25.150  0.00  0.00    +0.142 HD
ATOM     19  H   UNL     1      34.665 -16.505 -23.926  0.00  0.00    +0.142 HD
ENDBRANCH  12  17
ENDBRANCH   8  11
ENDBRANCH   2   9
BRANCH   1  20
ATOM     20  C   UNL     1      34.212 -22.664 -19.473  0.00  0.00    +0.124 C 
BRANCH  20  21
ATOM     21  N   UNL     1      34.926 -22.786 -18.220  0.00  0.00    -0.264 N 
ATOM     22  N   UNL     1      32.954 -23.163 -17.005  0.00  0.00    -0.338 NA
ATOM     23  N   UNL     1      35.097 -23.123 -15.904  0.00  0.00    -0.170 NA
ATOM     24  C   UNL     1      34.306 -23.031 -17.007  0.00  0.00    +0.145 C 
ATOM     25  C   UNL     1      32.383 -23.401 -15.807  0.00  0.00    +0.147 C 
ATOM     26  C   UNL     1      33.093 -23.512 -14.628  0.00  0.00    +0.055 C 
ATOM     27  C   UNL     1      34.460 -23.363 -14.738  0.00  0.00    +0.114 C 
ATOM     28  H   UNL     1      35.906 -22.689 -18.232  0.00  0.00    +0.160 HD
BRANCH  25  30
ATOM     29  N   UNL     1      28.802 -22.696 -16.559  0.00  0.00    -0.242 NA
ATOM     30  C   UNL     1      30.946 -23.538 -15.827  0.00  0.00    +0.050 C 
ATOM     31  C   UNL     1      30.316 -24.590 -15.169  0.00  0.00    +0.006 C 
ATOM     32  C   UNL     1      30.150 -22.626 -16.502  0.00  0.00    +0.101 C 
ATOM     33  C   UNL     1      28.930 -24.695 -15.206  0.00  0.00    +0.021 C 
ATOM     34  C   UNL     1      28.225 -23.731 -15.908  0.00  0.00    +0.099 C 
ENDBRANCH  25  30
ENDBRANCH  20  21
ENDBRANCH   1  20
TORSDOF 6
ENDMDL
MODEL 6
REMARK VINA RESULT:     -11.7      3.964     12.387
REMARK  Name = 9865515
REMARK  6 active torsions:
REMARK  status: ('A' for Active; 'I' for Inactive)
REMARK    1  A    between atoms: C_1  and  C_20
REMARK    2  A    between atoms: C_2  and  C_9
REMARK    3  A    between atoms: N_8  and  C_11
REMARK    4  A    between atoms: C_12  and  N_17
REMARK    5  A    between atoms: C_20  and  N_21
REMARK    6  A    between atoms: C_25  and  C_30
REMARK                            x       y       z     vdW  Elec       q    Type
REMARK                         _______ _______ _______ _____ _____    ______ ____
ROOT
ATOM      1  C   UNL     1      33.096 -14.367 -23.862  0.00  0.00    -0.002 C 
ATOM      2  C   UNL     1      34.084 -16.284 -22.094  0.00  0.00    +0.054 C 
ATOM      3  C   UNL     1      32.743 -14.319 -22.513  0.00  0.00    -0.002 C 
ATOM      4  C   UNL     1      33.942 -15.374 -24.327  0.00  0.00    -0.002 C 
ATOM      5  C   UNL     1      33.237 -15.278 -21.629  0.00  0.00    +0.004 C 
ATOM      6  C   UNL     1      34.436 -16.332 -23.442  0.00  0.00    +0.004 C 
ENDROOT
BRANCH   2   9
ATOM      7  O   UNL     1      35.341 -16.928 -20.244  0.00  0.00    -0.270 OA
ATOM      8  N   UNL     1      34.174 -18.602 -21.402  0.00  0.00    -0.279 N 
ATOM      9  C   UNL     1      34.597 -17.286 -21.171  0.00  0.00    +0.250 C 
ATOM     10  H   UNL     1      33.584 -18.733 -22.179  0.00  0.00    +0.155 HD
BRANCH   8  11
ATOM     11  C   UNL     1      34.487 -19.770 -20.662  0.00  0.00    +0.064 C 
ATOM     12  C   UNL     1      35.807 -20.148 -20.477  0.00  0.00    +0.055 C 
ATOM     13  C   UNL     1      33.443 -20.515 -20.138  0.00  0.00    +0.016 C 
ATOM     14  C   UNL     1      36.090 -21.302 -19.746  0.00  0.00    +0.015 C 
ATOM     15  C   UNL     1      33.726 -21.668 -19.407  0.00  0.00    +0.001 C 
ATOM     16  C   UNL     1      35.050 -22.062 -19.211  0.00  0.00    +0.001 C 
BRANCH  12  17
ATOM     17  N   UNL     1      36.875 -19.393 -21.008  0.00  0.00    -0.356 N 
ATOM     18  H   UNL     1      37.802 -19.704 -20.896  0.00  0.00    +0.142 HD
ATOM     19  H   UNL     1      36.693 -18.554 -21.492  0.00  0.00    +0.142 HD
ENDBRANCH  12  17
ENDBRANCH   8  11
ENDBRANCH   2   9
BRANCH   1  20
ATOM     20  C   UNL     1      32.569 -13.341 -24.808  0.00  0.00    +0.124 C 
BRANCH  20  21
ATOM     21  N   UNL     1      33.651 -12.654 -25.480  0.00  0.00    -0.264 N 
ATOM     22  N   UNL     1      33.441 -10.756 -24.115  0.00  0.00    -0.338 NA
ATOM     23  N   UNL     1      35.109 -10.853 -25.851  0.00  0.00    -0.170 NA
ATOM     24  C   UNL     1      34.079 -11.382 -25.138  0.00  0.00    +0.145 C 
ATOM     25  C   UNL     1      33.884  -9.520 -23.809  0.00  0.00    +0.147 C 
ATOM     26  C   UNL     1      34.920  -8.891 -24.469  0.00  0.00    +0.055 C 
ATOM     27  C   UNL     1      35.501  -9.612 -25.492  0.00  0.00    +0.114 C 
ATOM     28  H   UNL     1      34.107 -13.116 -26.220  0.00  0.00    +0.160 HD
BRANCH  25  30
ATOM     29  N   UNL     1      31.780  -9.062 -20.767  0.00  0.00    -0.242 NA
ATOM     30  C   UNL     1      33.193  -8.873 -22.719  0.00  0.00    +0.050 C 
ATOM     31  C   UNL     1      33.250  -7.492 -22.552  0.00  0.00    +0.006 C 
ATOM     32  C   UNL     1      32.451  -9.605 -21.806  0.00  0.00    +0.101 C 
ATOM     33  C   UNL     1      32.574  -6.897 -21.494  0.00  0.00    +0.021 C 
ATOM     34  C   UNL     1      31.859  -7.719 -20.636  0.00  0.00    +0.099 C 
ENDBRANCH  25  30
ENDBRANCH  20  21
ENDBRANCH   1  20
TORSDOF 6
ENDMDL
MODEL 7
REMARK VINA RESULT:     -11.6      4.239     12.941
REMARK  Name = 9865515
REMARK  6 active torsions:
REMARK  status: ('A' for Active; 'I' for Inactive)
REMARK    1  A    between atoms: C_1  and  C_20
REMARK    2  A    between atoms: C_2  and  C_9
REMARK    3  A    between atoms: N_8  and  C_11
REMARK    4  A    between atoms: C_12  and  N_17
REMARK    5  A    between atoms: C_20  and  N_21
REMARK    6  A    between atoms: C_25  and  C_30
REMARK                            x       y       z     vdW  Elec       q    Type
REMARK                         _______ _______ _______ _____ _____    ______ ____
ROOT
ATOM      1  C   UNL     1      32.677 -13.544 -22.573  0.00  0.00    -0.002 C 
ATOM      2  C   UNL     1      34.009 -15.977 -22.282  0.00  0.00    +0.054 C 
ATOM      3  C   UNL     1      33.482 -14.027 -23.605  0.00  0.00    -0.002 C 
ATOM      4  C   UNL     1      32.539 -14.278 -21.396  0.00  0.00    -0.002 C 
ATOM      5  C   UNL     1      34.149 -15.243 -23.460  0.00  0.00    +0.004 C 
ATOM      6  C   UNL     1      33.205 -15.495 -21.250  0.00  0.00    +0.004 C 
ENDROOT
BRANCH   2   9
ATOM      7  O   UNL     1      35.621 -17.530 -22.921  0.00  0.00    -0.270 OA
ATOM      8  N   UNL     1      34.292 -18.046 -21.057  0.00  0.00    -0.279 N 
ATOM      9  C   UNL     1      34.707 -17.245 -22.130  0.00  0.00    +0.250 C 
ATOM     10  H   UNL     1      33.553 -17.687 -20.516  0.00  0.00    +0.155 HD
BRANCH   8  11
ATOM     11  C   UNL     1      34.798 -19.306 -20.651  0.00  0.00    +0.064 C 
ATOM     12  C   UNL     1      33.930 -20.331 -20.310  0.00  0.00    +0.055 C 
ATOM     13  C   UNL     1      36.172 -19.478 -20.604  0.00  0.00    +0.016 C 
ATOM     14  C   UNL     1      34.452 -21.562 -19.912  0.00  0.00    +0.015 C 
ATOM     15  C   UNL     1      36.693 -20.709 -20.207  0.00  0.00    +0.001 C 
ATOM     16  C   UNL     1      35.833 -21.752 -19.861  0.00  0.00    +0.001 C 
BRANCH  12  17
ATOM     17  N   UNL     1      32.529 -20.162 -20.356  0.00  0.00    -0.356 N 
ATOM     18  H   UNL     1      32.102 -19.810 -21.170  0.00  0.00    +0.142 HD
ATOM     19  H   UNL     1      31.978 -20.397 -19.574  0.00  0.00    +0.142 HD
ENDBRANCH  12  17
ENDBRANCH   8  11
ENDBRANCH   2   9
BRANCH   1  20
ATOM     20  C   UNL     1      31.962 -12.244 -22.729  0.00  0.00    +0.124 C 
BRANCH  20  21
ATOM     21  N   UNL     1      31.783 -11.596 -21.447  0.00  0.00    -0.264 N 
ATOM     22  N   UNL     1      32.388  -9.495 -22.300  0.00  0.00    -0.338 NA
ATOM     23  N   UNL     1      31.786  -9.763 -19.983  0.00  0.00    -0.170 NA
ATOM     24  C   UNL     1      31.992 -10.244 -21.238  0.00  0.00    +0.145 C 
ATOM     25  C   UNL     1      32.582  -8.183 -22.060  0.00  0.00    +0.147 C 
ATOM     26  C   UNL     1      32.403  -7.594 -20.825  0.00  0.00    +0.055 C 
ATOM     27  C   UNL     1      32.000  -8.441 -19.813  0.00  0.00    +0.114 C 
ATOM     28  H   UNL     1      31.496 -12.147 -20.684  0.00  0.00    +0.160 HD
BRANCH  25  30
ATOM     29  N   UNL     1      32.447  -5.807 -24.928  0.00  0.00    -0.242 NA
ATOM     30  C   UNL     1      33.002  -7.405 -23.202  0.00  0.00    +0.050 C 
ATOM     31  C   UNL     1      34.306  -7.481 -23.682  0.00  0.00    +0.006 C 
ATOM     32  C   UNL     1      32.120  -6.560 -23.855  0.00  0.00    +0.101 C 
ATOM     33  C   UNL     1      34.680  -6.721 -24.784  0.00  0.00    +0.021 C 
ATOM     34  C   UNL     1      33.722  -5.906 -25.366  0.00  0.00    +0.099 C 
ENDBRANCH  25  30
ENDBRANCH  20  21
ENDBRANCH   1  20
TORSDOF 6
ENDMDL
MODEL 8
REMARK VINA RESULT:     -11.5      4.233     12.906
REMARK  Name = 9865515
REMARK  6 active torsions:
REMARK  status: ('A' for Active; 'I' for Inactive)
REMARK    1  A    between atoms: C_1  and  C_20
REMARK    2  A    between atoms: C_2  and  C_9
REMARK    3  A    between atoms: N_8  and  C_11
REMARK    4  A    between atoms: C_12  and  N_17
REMARK    5  A    between atoms: C_20  and  N_21
REMARK    6  A    between atoms: C_25  and  C_30
REMARK                            x       y       z     vdW  Elec       q    Type
REMARK                         _______ _______ _______ _____ _____    ______ ____
ROOT
ATOM      1  C   UNL     1      32.829 -13.740 -22.678  0.00  0.00    -0.002 C 
ATOM      2  C   UNL     1      33.814 -16.328 -22.340  0.00  0.00    +0.054 C 
ATOM      3  C   UNL     1      32.664 -14.396 -21.458  0.00  0.00    -0.002 C 
ATOM      4  C   UNL     1      33.486 -14.379 -23.729  0.00  0.00    -0.002 C 
ATOM      5  C   UNL     1      33.155 -15.690 -21.289  0.00  0.00    +0.004 C 
ATOM      6  C   UNL     1      33.979 -15.672 -23.560  0.00  0.00    +0.004 C 
ENDROOT
BRANCH   2   9
ATOM      7  O   UNL     1      35.068 -18.160 -23.035  0.00  0.00    -0.270 OA
ATOM      8  N   UNL     1      33.942 -18.329 -20.984  0.00  0.00    -0.279 N 
ATOM      9  C   UNL     1      34.325 -17.679 -22.165  0.00  0.00    +0.250 C 
ATOM     10  H   UNL     1      33.346 -17.819 -20.389  0.00  0.00    +0.155 HD
BRANCH   8  11
ATOM     11  C   UNL     1      34.301 -19.624 -20.535  0.00  0.00    +0.064 C 
ATOM     12  C   UNL     1      35.635 -19.978 -20.415  0.00  0.00    +0.055 C 
ATOM     13  C   UNL     1      33.287 -20.517 -20.225  0.00  0.00    +0.016 C 
ATOM     14  C   UNL     1      35.964 -21.259 -19.971  0.00  0.00    +0.015 C 
ATOM     15  C   UNL     1      33.616 -21.797 -19.783  0.00  0.00    +0.001 C 
ATOM     16  C   UNL     1      34.955 -22.169 -19.656  0.00  0.00    +0.001 C 
BRANCH  12  17
ATOM     17  N   UNL     1      36.673 -19.073 -20.727  0.00  0.00    -0.356 N 
ATOM     18  H   UNL     1      37.611 -19.369 -20.696  0.00  0.00    +0.142 HD
ATOM     19  H   UNL     1      36.458 -18.145 -20.977  0.00  0.00    +0.142 HD
ENDBRANCH  12  17
ENDBRANCH   8  11
ENDBRANCH   2   9
BRANCH   1  20
ATOM     20  C   UNL     1      32.304 -12.355 -22.858  0.00  0.00    +0.124 C 
BRANCH  20  21
ATOM     21  N   UNL     1      32.020 -11.739 -21.580  0.00  0.00    -0.264 N 
ATOM     22  N   UNL     1      32.473  -9.585 -22.393  0.00  0.00    -0.338 NA
ATOM     23  N   UNL     1      31.809  -9.929 -20.103  0.00  0.00    -0.170 NA
ATOM     24  C   UNL     1      32.104 -10.376 -21.352  0.00  0.00    +0.145 C 
ATOM     25  C   UNL     1      32.543  -8.263 -22.136  0.00  0.00    +0.147 C 
ATOM     26  C   UNL     1      32.266  -7.705 -20.904  0.00  0.00    +0.055 C 
ATOM     27  C   UNL     1      31.900  -8.595 -19.915  0.00  0.00    +0.114 C 
ATOM     28  H   UNL     1      31.754 -12.321 -20.832  0.00  0.00    +0.160 HD
BRANCH  25  30
ATOM     29  N   UNL     1      32.335  -5.795 -24.921  0.00  0.00    -0.242 NA
ATOM     30  C   UNL     1      32.937  -7.440 -23.254  0.00  0.00    +0.050 C 
ATOM     31  C   UNL     1      34.238  -7.474 -23.748  0.00  0.00    +0.006 C 
ATOM     32  C   UNL     1      32.033  -6.590 -23.871  0.00  0.00    +0.101 C 
ATOM     33  C   UNL     1      34.587  -6.671 -24.827  0.00  0.00    +0.021 C 
ATOM     34  C   UNL     1      33.608  -5.856 -25.373  0.00  0.00    +0.099 C 
ENDBRANCH  25  30
ENDBRANCH  20  21
ENDBRANCH   1  20
TORSDOF 6
ENDMDL
MODEL 9
REMARK VINA RESULT:     -11.2      4.919     13.661
REMARK  Name = 9865515
REMARK  6 active torsions:
REMARK  status: ('A' for Active; 'I' for Inactive)
REMARK    1  A    between atoms: C_1  and  C_20
REMARK    2  A    between atoms: C_2  and  C_9
REMARK    3  A    between atoms: N_8  and  C_11
REMARK    4  A    between atoms: C_12  and  N_17
REMARK    5  A    between atoms: C_20  and  N_21
REMARK    6  A    between atoms: C_25  and  C_30
REMARK                            x       y       z     vdW  Elec       q    Type
REMARK                         _______ _______ _______ _____ _____    ______ ____
ROOT
ATOM      1  C   UNL     1      32.664 -12.633 -22.800  0.00  0.00    -0.002 C 
ATOM      2  C   UNL     1      33.492 -15.291 -22.628  0.00  0.00    +0.054 C 
ATOM      3  C   UNL     1      32.278 -13.415 -21.711  0.00  0.00    -0.002 C 
ATOM      4  C   UNL     1      33.465 -13.180 -23.802  0.00  0.00    -0.002 C 
ATOM      5  C   UNL     1      32.691 -14.744 -21.626  0.00  0.00    +0.004 C 
ATOM      6  C   UNL     1      33.879 -14.509 -23.716  0.00  0.00    +0.004 C 
ENDROOT
BRANCH   2   9
ATOM      7  O   UNL     1      34.516 -17.188 -23.503  0.00  0.00    -0.270 OA
ATOM      8  N   UNL     1      33.640 -17.330 -21.331  0.00  0.00    -0.279 N 
ATOM      9  C   UNL     1      33.921 -16.678 -22.539  0.00  0.00    +0.250 C 
ATOM     10  H   UNL     1      33.161 -16.795 -20.658  0.00  0.00    +0.155 HD
BRANCH   8  11
ATOM     11  C   UNL     1      33.956 -18.658 -20.951  0.00  0.00    +0.064 C 
ATOM     12  C   UNL     1      35.268 -19.101 -20.985  0.00  0.00    +0.055 C 
ATOM     13  C   UNL     1      32.924 -19.491 -20.551  0.00  0.00    +0.016 C 
ATOM     14  C   UNL     1      35.555 -20.413 -20.607  0.00  0.00    +0.015 C 
ATOM     15  C   UNL     1      33.211 -20.802 -20.174  0.00  0.00    +0.001 C 
ATOM     16  C   UNL     1      34.527 -21.264 -20.202  0.00  0.00    +0.001 C 
BRANCH  12  17
ATOM     17  N   UNL     1      36.326 -18.257 -21.390  0.00  0.00    -0.356 N 
ATOM     18  H   UNL     1      36.328 -17.871 -22.296  0.00  0.00    +0.142 HD
ATOM     19  H   UNL     1      37.061 -18.054 -20.767  0.00  0.00    +0.142 HD
ENDBRANCH  12  17
ENDBRANCH   8  11
ENDBRANCH   2   9
BRANCH   1  20
ATOM     20  C   UNL     1      32.223 -11.211 -22.891  0.00  0.00    +0.124 C 
BRANCH  20  21
ATOM     21  N   UNL     1      32.205 -10.590 -21.584  0.00  0.00    -0.264 N 
ATOM     22  N   UNL     1      32.175  -8.425 -22.491  0.00  0.00    -0.338 NA
ATOM     23  N   UNL     1      32.165  -8.768 -20.106  0.00  0.00    -0.170 NA
ATOM     24  C   UNL     1      32.181  -9.220 -21.388  0.00  0.00    +0.145 C 
ATOM     25  C   UNL     1      32.152  -7.097 -22.263  0.00  0.00    +0.147 C 
ATOM     26  C   UNL     1      32.135  -6.535 -21.002  0.00  0.00    +0.055 C 
ATOM     27  C   UNL     1      32.143  -7.428 -19.950  0.00  0.00    +0.114 C 
ATOM     28  H   UNL     1      32.209 -11.174 -20.792  0.00  0.00    +0.160 HD
BRANCH  25  30
ATOM     29  N   UNL     1      31.059  -4.561 -24.766  0.00  0.00    -0.242 NA
ATOM     30  C   UNL     1      32.146  -6.270 -23.447  0.00  0.00    +0.050 C 
ATOM     31  C   UNL     1      33.164  -6.361 -24.391  0.00  0.00    +0.006 C 
ATOM     32  C   UNL     1      31.126  -5.362 -23.680  0.00  0.00    +0.101 C 
ATOM     33  C   UNL     1      33.130  -5.553 -25.521  0.00  0.00    +0.021 C 
ATOM     34  C   UNL     1      32.065  -4.677 -25.661  0.00  0.00    +0.099 C 
ENDBRANCH  25  30
ENDBRANCH  20  21
ENDBRANCH   1  20
TORSDOF 6
ENDMDL
