MODEL 1
REMARK VINA RESULT:      -7.3      0.000      0.000
REMARK  Name = 11840927
REMARK  5 active torsions:
REMARK  status: ('A' for Active; 'I' for Inactive)
REMARK    1  A    between atoms: C_7  and  C_12
REMARK    2  A    between atoms: C_12  and  C_13
REMARK    3  A    between atoms: C_13  and  C_14
REMARK    4  A    between atoms: C_14  and  C_15
REMARK    5  A    between atoms: C_15  and  C_17
REMARK                            x       y       z     vdW  Elec       q    Type
REMARK                         _______ _______ _______ _____ _____    ______ ____
ROOT
ATOM      1  S   UNL     1      37.084 -23.499 -12.935  0.00  0.00    -0.138 S 
ATOM      2  O   UNL     1      41.085 -25.487 -14.611  0.00  0.00    -0.253 OA
ATOM      3  N   UNL     1      38.968 -24.795 -15.340  0.00  0.00    -0.288 N 
ATOM      4  N   UNL     1      39.102 -26.195 -13.583  0.00  0.00    -0.288 N 
ATOM      5  C   UNL     1      37.585 -25.066 -14.998  0.00  0.00    +0.102 C 
ATOM      6  C   UNL     1      37.680 -25.962 -13.743  0.00  0.00    +0.103 C 
ATOM      7  C   UNL     1      36.752 -23.820 -14.687  0.00  0.00    +0.067 C 
ATOM      8  C   UNL     1      37.088 -25.258 -12.525  0.00  0.00    +0.079 C 
ATOM      9  C   UNL     1      39.865 -25.490 -14.520  0.00  0.00    +0.301 C 
ATOM     10  H   UNL     1      39.245 -24.191 -16.067  0.00  0.00    +0.151 HD
ATOM     11  H   UNL     1      39.488 -26.781 -12.892  0.00  0.00    +0.151 HD
ENDROOT
BRANCH   7  12
ATOM     12  C   UNL     1      37.035 -22.605 -15.555  0.00  0.00    +0.013 C 
BRANCH  12  13
ATOM     13  C   UNL     1      36.059 -22.513 -16.728  0.00  0.00    +0.001 C 
BRANCH  13  14
ATOM     14  C   UNL     1      36.659 -21.713 -17.889  0.00  0.00    +0.008 C 
BRANCH  14  15
ATOM     15  C   UNL     1      35.746 -21.685 -19.111  0.00  0.00    +0.072 C 
BRANCH  15  17
ATOM     16  O   UNL     1      34.019 -23.364 -19.442  0.00  0.00    -0.288 OA
ATOM     17  C   UNL     1      34.402 -22.339 -18.889  0.00  0.00    +0.207 C 
ENDBRANCH  15  17
ENDBRANCH  14  15
ENDBRANCH  13  14
ENDBRANCH  12  13
ENDBRANCH   7  12
TORSDOF 5
ENDMDL
MODEL 2
REMARK VINA RESULT:      -6.9      3.588      4.102
REMARK  Name = 11840927
REMARK  5 active torsions:
REMARK  status: ('A' for Active; 'I' for Inactive)
REMARK    1  A    between atoms: C_7  and  C_12
REMARK    2  A    between atoms: C_12  and  C_13
REMARK    3  A    between atoms: C_13  and  C_14
REMARK    4  A    between atoms: C_14  and  C_15
REMARK    5  A    between atoms: C_15  and  C_17
REMARK                            x       y       z     vdW  Elec       q    Type
REMARK                         _______ _______ _______ _____ _____    ______ ____
ROOT
ATOM      1  S   UNL     1      35.744 -22.794 -15.628  0.00  0.00    -0.138 S 
ATOM      2  O   UNL     1      36.655 -27.452 -16.125  0.00  0.00    -0.253 OA
ATOM      3  N   UNL     1      35.645 -25.958 -14.629  0.00  0.00    -0.288 N 
ATOM      4  N   UNL     1      37.754 -25.553 -15.302  0.00  0.00    -0.288 N 
ATOM      5  C   UNL     1      36.027 -24.765 -13.896  0.00  0.00    +0.102 C 
ATOM      6  C   UNL     1      37.445 -24.445 -14.420  0.00  0.00    +0.103 C 
ATOM      7  C   UNL     1      35.106 -23.563 -14.116  0.00  0.00    +0.067 C 
ATOM      8  C   UNL     1      37.461 -23.114 -15.169  0.00  0.00    +0.079 C 
ATOM      9  C   UNL     1      36.681 -26.440 -15.437  0.00  0.00    +0.301 C 
ATOM     10  H   UNL     1      34.757 -26.380 -14.564  0.00  0.00    +0.151 HD
ATOM     11  H   UNL     1      38.621 -25.668 -15.756  0.00  0.00    +0.151 HD
ENDROOT
BRANCH   7  12
ATOM     12  C   UNL     1      33.623 -23.879 -14.218  0.00  0.00    +0.013 C 
BRANCH  12  13
ATOM     13  C   UNL     1      33.001 -23.260 -15.471  0.00  0.00    +0.001 C 
BRANCH  13  14
ATOM     14  C   UNL     1      31.509 -22.979 -15.270  0.00  0.00    +0.008 C 
BRANCH  14  15
ATOM     15  C   UNL     1      30.721 -23.051 -16.576  0.00  0.00    +0.072 C 
BRANCH  15  17
ATOM     16  O   UNL     1      28.577 -21.985 -16.993  0.00  0.00    -0.288 OA
ATOM     17  C   UNL     1      29.235 -22.839 -16.408  0.00  0.00    +0.207 C 
ENDBRANCH  15  17
ENDBRANCH  14  15
ENDBRANCH  13  14
ENDBRANCH  12  13
ENDBRANCH   7  12
TORSDOF 5
ENDMDL
MODEL 3
REMARK VINA RESULT:      -6.9      8.240     11.598
REMARK  Name = 11840927
REMARK  5 active torsions:
REMARK  status: ('A' for Active; 'I' for Inactive)
REMARK    1  A    between atoms: C_7  and  C_12
REMARK    2  A    between atoms: C_12  and  C_13
REMARK    3  A    between atoms: C_13  and  C_14
REMARK    4  A    between atoms: C_14  and  C_15
REMARK    5  A    between atoms: C_15  and  C_17
REMARK                            x       y       z     vdW  Elec       q    Type
REMARK                         _______ _______ _______ _____ _____    ______ ____
ROOT
ATOM      1  S   UNL     1      32.773 -15.654 -21.334  0.00  0.00    -0.138 S 
ATOM      2  O   UNL     1      33.492 -16.383 -25.995  0.00  0.00    -0.253 OA
ATOM      3  N   UNL     1      34.683 -16.258 -23.981  0.00  0.00    -0.288 N 
ATOM      4  N   UNL     1      33.318 -14.557 -24.537  0.00  0.00    -0.288 N 
ATOM      5  C   UNL     1      34.861 -15.298 -22.908  0.00  0.00    +0.102 C 
ATOM      6  C   UNL     1      33.864 -14.168 -23.251  0.00  0.00    +0.103 C 
ATOM      7  C   UNL     1      34.566 -15.846 -21.510  0.00  0.00    +0.067 C 
ATOM      8  C   UNL     1      32.772 -14.063 -22.190  0.00  0.00    +0.079 C 
ATOM      9  C   UNL     1      33.793 -15.803 -24.960  0.00  0.00    +0.301 C 
ATOM     10  H   UNL     1      35.137 -17.131 -24.015  0.00  0.00    +0.151 HD
ATOM     11  H   UNL     1      32.685 -14.007 -25.053  0.00  0.00    +0.151 HD
ENDROOT
BRANCH   7  12
ATOM     12  C   UNL     1      35.016 -17.275 -21.254  0.00  0.00    +0.013 C 
BRANCH  12  13
ATOM     13  C   UNL     1      33.827 -18.234 -21.186  0.00  0.00    +0.001 C 
BRANCH  13  14
ATOM     14  C   UNL     1      34.276 -19.650 -20.812  0.00  0.00    +0.008 C 
BRANCH  14  15
ATOM     15  C   UNL     1      33.122 -20.516 -20.315  0.00  0.00    +0.072 C 
BRANCH  15  17
ATOM     16  O   UNL     1      32.797 -22.337 -18.738  0.00  0.00    -0.288 OA
ATOM     17  C   UNL     1      33.552 -21.663 -19.429  0.00  0.00    +0.207 C 
ENDBRANCH  15  17
ENDBRANCH  14  15
ENDBRANCH  13  14
ENDBRANCH  12  13
ENDBRANCH   7  12
TORSDOF 5
ENDMDL
MODEL 4
REMARK VINA RESULT:      -6.9     10.393     12.298
REMARK  Name = 11840927
REMARK  5 active torsions:
REMARK  status: ('A' for Active; 'I' for Inactive)
REMARK    1  A    between atoms: C_7  and  C_12
REMARK    2  A    between atoms: C_12  and  C_13
REMARK    3  A    between atoms: C_13  and  C_14
REMARK    4  A    between atoms: C_14  and  C_15
REMARK    5  A    between atoms: C_15  and  C_17
REMARK                            x       y       z     vdW  Elec       q    Type
REMARK                         _______ _______ _______ _____ _____    ______ ____
ROOT
ATOM      1  S   UNL     1      32.679 -15.597 -21.009  0.00  0.00    -0.138 S 
ATOM      2  O   UNL     1      32.926 -14.993 -25.736  0.00  0.00    -0.253 OA
ATOM      3  N   UNL     1      34.322 -15.227 -23.869  0.00  0.00    -0.288 N 
ATOM      4  N   UNL     1      32.720 -13.646 -23.830  0.00  0.00    -0.288 N 
ATOM      5  C   UNL     1      34.515 -14.559 -22.595  0.00  0.00    +0.102 C 
ATOM      6  C   UNL     1      33.365 -13.530 -22.536  0.00  0.00    +0.103 C 
ATOM      7  C   UNL     1      34.449 -15.484 -21.378  0.00  0.00    +0.067 C 
ATOM      8  C   UNL     1      32.400 -13.855 -21.400  0.00  0.00    +0.079 C 
ATOM      9  C   UNL     1      33.279 -14.663 -24.612  0.00  0.00    +0.301 C 
ATOM     10  H   UNL     1      34.865 -15.989 -24.176  0.00  0.00    +0.151 HD
ATOM     11  H   UNL     1      31.973 -13.076 -24.124  0.00  0.00    +0.151 HD
ENDROOT
BRANCH   7  12
ATOM     12  C   UNL     1      35.084 -16.854 -21.556  0.00  0.00    +0.013 C 
BRANCH  12  13
ATOM     13  C   UNL     1      34.061 -17.976 -21.368  0.00  0.00    +0.001 C 
BRANCH  13  14
ATOM     14  C   UNL     1      34.418 -19.201 -22.216  0.00  0.00    +0.008 C 
BRANCH  14  15
ATOM     15  C   UNL     1      35.249 -18.839 -23.444  0.00  0.00    +0.072 C 
BRANCH  15  17
ATOM     16  O   UNL     1      34.561 -17.831 -25.547  0.00  0.00    -0.288 OA
ATOM     17  C   UNL     1      34.444 -18.727 -24.718  0.00  0.00    +0.207 C 
ENDBRANCH  15  17
ENDBRANCH  14  15
ENDBRANCH  13  14
ENDBRANCH  12  13
ENDBRANCH   7  12
TORSDOF 5
ENDMDL
MODEL 5
REMARK VINA RESULT:      -6.8      7.812     11.229
REMARK  Name = 11840927
REMARK  5 active torsions:
REMARK  status: ('A' for Active; 'I' for Inactive)
REMARK    1  A    between atoms: C_7  and  C_12
REMARK    2  A    between atoms: C_12  and  C_13
REMARK    3  A    between atoms: C_13  and  C_14
REMARK    4  A    between atoms: C_14  and  C_15
REMARK    5  A    between atoms: C_15  and  C_17
REMARK                            x       y       z     vdW  Elec       q    Type
REMARK                         _______ _______ _______ _____ _____    ______ ____
ROOT
ATOM      1  S   UNL     1      33.439 -16.546 -21.394  0.00  0.00    -0.138 S 
ATOM      2  O   UNL     1      33.211 -16.217 -26.148  0.00  0.00    -0.253 OA
ATOM      3  N   UNL     1      34.695 -16.853 -24.450  0.00  0.00    -0.288 N 
ATOM      4  N   UNL     1      33.735 -14.820 -24.342  0.00  0.00    -0.288 N 
ATOM      5  C   UNL     1      35.276 -16.251 -23.265  0.00  0.00    +0.102 C 
ATOM      6  C   UNL     1      34.556 -14.889 -23.148  0.00  0.00    +0.103 C 
ATOM      7  C   UNL     1      35.075 -17.058 -21.980  0.00  0.00    +0.067 C 
ATOM      8  C   UNL     1      33.706 -14.828 -21.882  0.00  0.00    +0.079 C 
ATOM      9  C   UNL     1      33.807 -15.991 -25.104  0.00  0.00    +0.301 C 
ATOM     10  H   UNL     1      34.903 -17.765 -24.760  0.00  0.00    +0.151 HD
ATOM     11  H   UNL     1      33.189 -14.039 -24.587  0.00  0.00    +0.151 HD
ENDROOT
BRANCH   7  12
ATOM     12  C   UNL     1      35.184 -18.567 -22.126  0.00  0.00    +0.013 C 
BRANCH  12  13
ATOM     13  C   UNL     1      34.042 -19.284 -21.405  0.00  0.00    +0.001 C 
BRANCH  13  14
ATOM     14  C   UNL     1      34.575 -20.323 -20.414  0.00  0.00    +0.008 C 
BRANCH  14  15
ATOM     15  C   UNL     1      33.459 -21.139 -19.767  0.00  0.00    +0.072 C 
BRANCH  15  17
ATOM     16  O   UNL     1      33.900 -23.506 -19.433  0.00  0.00    -0.288 OA
ATOM     17  C   UNL     1      33.945 -22.355 -19.013  0.00  0.00    +0.207 C 
ENDBRANCH  15  17
ENDBRANCH  14  15
ENDBRANCH  13  14
ENDBRANCH  12  13
ENDBRANCH   7  12
TORSDOF 5
ENDMDL
MODEL 6
REMARK VINA RESULT:      -6.7      1.933      2.204
REMARK  Name = 11840927
REMARK  5 active torsions:
REMARK  status: ('A' for Active; 'I' for Inactive)
REMARK    1  A    between atoms: C_7  and  C_12
REMARK    2  A    between atoms: C_12  and  C_13
REMARK    3  A    between atoms: C_13  and  C_14
REMARK    4  A    between atoms: C_14  and  C_15
REMARK    5  A    between atoms: C_15  and  C_17
REMARK                            x       y       z     vdW  Elec       q    Type
REMARK                         _______ _______ _______ _____ _____    ______ ____
ROOT
ATOM      1  S   UNL     1      36.681 -23.760 -12.964  0.00  0.00    -0.138 S 
ATOM      2  O   UNL     1      41.003 -25.036 -14.534  0.00  0.00    -0.253 OA
ATOM      3  N   UNL     1      38.812 -24.743 -15.311  0.00  0.00    -0.288 N 
ATOM      4  N   UNL     1      39.157 -26.066 -13.523  0.00  0.00    -0.288 N 
ATOM      5  C   UNL     1      37.492 -25.249 -14.986  0.00  0.00    +0.102 C 
ATOM      6  C   UNL     1      37.720 -26.092 -13.711  0.00  0.00    +0.103 C 
ATOM      7  C   UNL     1      36.446 -24.166 -14.714  0.00  0.00    +0.067 C 
ATOM      8  C   UNL     1      36.989 -25.483 -12.518  0.00  0.00    +0.079 C 
ATOM      9  C   UNL     1      39.801 -25.254 -14.462  0.00  0.00    +0.301 C 
ATOM     10  H   UNL     1      38.992 -24.113 -16.046  0.00  0.00    +0.151 HD
ATOM     11  H   UNL     1      39.626 -26.563 -12.814  0.00  0.00    +0.151 HD
ENDROOT
BRANCH   7  12
ATOM     12  C   UNL     1      36.527 -22.934 -15.602  0.00  0.00    +0.013 C 
BRANCH  12  13
ATOM     13  C   UNL     1      35.322 -22.837 -16.538  0.00  0.00    +0.001 C 
BRANCH  13  14
ATOM     14  C   UNL     1      34.064 -23.420 -15.887  0.00  0.00    +0.008 C 
BRANCH  14  15
ATOM     15  C   UNL     1      32.838 -23.318 -16.791  0.00  0.00    +0.072 C 
BRANCH  15  17
ATOM     16  O   UNL     1      30.682 -24.100 -15.985  0.00  0.00    -0.288 OA
ATOM     17  C   UNL     1      31.530 -23.216 -16.042  0.00  0.00    +0.207 C 
ENDBRANCH  15  17
ENDBRANCH  14  15
ENDBRANCH  13  14
ENDBRANCH  12  13
ENDBRANCH   7  12
TORSDOF 5
ENDMDL
MODEL 7
REMARK VINA RESULT:      -6.6      3.917      4.469
REMARK  Name = 11840927
REMARK  5 active torsions:
REMARK  status: ('A' for Active; 'I' for Inactive)
REMARK    1  A    between atoms: C_7  and  C_12
REMARK    2  A    between atoms: C_12  and  C_13
REMARK    3  A    between atoms: C_13  and  C_14
REMARK    4  A    between atoms: C_14  and  C_15
REMARK    5  A    between atoms: C_15  and  C_17
REMARK                            x       y       z     vdW  Elec       q    Type
REMARK                         _______ _______ _______ _____ _____    ______ ____
ROOT
ATOM      1  S   UNL     1      36.555 -25.539 -14.419  0.00  0.00    -0.138 S 
ATOM      2  O   UNL     1      35.969 -24.318  -9.843  0.00  0.00    -0.253 OA
ATOM      3  N   UNL     1      35.325 -23.639 -11.991  0.00  0.00    -0.288 N 
ATOM      4  N   UNL     1      37.516 -23.915 -11.556  0.00  0.00    -0.288 N 
ATOM      5  C   UNL     1      35.982 -23.256 -13.227  0.00  0.00    +0.102 C 
ATOM      6  C   UNL     1      37.479 -23.523 -12.951  0.00  0.00    +0.103 C 
ATOM      7  C   UNL     1      35.530 -24.046 -14.457  0.00  0.00    +0.067 C 
ATOM      8  C   UNL     1      38.011 -24.630 -13.857  0.00  0.00    +0.079 C 
ATOM      9  C   UNL     1      36.238 -23.999 -10.994  0.00  0.00    +0.301 C 
ATOM     10  H   UNL     1      34.348 -23.645 -11.869  0.00  0.00    +0.151 HD
ATOM     11  H   UNL     1      38.347 -24.102 -11.061  0.00  0.00    +0.151 HD
ENDROOT
BRANCH   7  12
ATOM     12  C   UNL     1      34.047 -24.372 -14.523  0.00  0.00    +0.013 C 
BRANCH  12  13
ATOM     13  C   UNL     1      33.299 -23.405 -15.443  0.00  0.00    +0.001 C 
BRANCH  13  14
ATOM     14  C   UNL     1      31.906 -23.083 -14.895  0.00  0.00    +0.008 C 
BRANCH  14  15
ATOM     15  C   UNL     1      30.794 -23.753 -15.698  0.00  0.00    +0.072 C 
BRANCH  15  17
ATOM     16  O   UNL     1      29.334 -22.408 -17.101  0.00  0.00    -0.288 OA
ATOM     17  C   UNL     1      29.620 -22.850 -15.994  0.00  0.00    +0.207 C 
ENDBRANCH  15  17
ENDBRANCH  14  15
ENDBRANCH  13  14
ENDBRANCH  12  13
ENDBRANCH   7  12
TORSDOF 5
ENDMDL
MODEL 8
REMARK VINA RESULT:      -6.5      7.191     10.170
REMARK  Name = 11840927
REMARK  5 active torsions:
REMARK  status: ('A' for Active; 'I' for Inactive)
REMARK    1  A    between atoms: C_7  and  C_12
REMARK    2  A    between atoms: C_12  and  C_13
REMARK    3  A    between atoms: C_13  and  C_14
REMARK    4  A    between atoms: C_14  and  C_15
REMARK    5  A    between atoms: C_15  and  C_17
REMARK                            x       y       z     vdW  Elec       q    Type
REMARK                         _______ _______ _______ _____ _____    ______ ____
ROOT
ATOM      1  S   UNL     1      33.688 -17.347 -21.022  0.00  0.00    -0.138 S 
ATOM      2  O   UNL     1      33.963 -17.728 -25.770  0.00  0.00    -0.253 OA
ATOM      3  N   UNL     1      35.181 -18.262 -23.841  0.00  0.00    -0.288 N 
ATOM      4  N   UNL     1      34.489 -16.139 -24.130  0.00  0.00    -0.288 N 
ATOM      5  C   UNL     1      35.719 -17.555 -22.694  0.00  0.00    +0.102 C 
ATOM      6  C   UNL     1      35.175 -16.118 -22.853  0.00  0.00    +0.103 C 
ATOM      7  C   UNL     1      35.292 -18.126 -21.339  0.00  0.00    +0.067 C 
ATOM      8  C   UNL     1      34.223 -15.766 -21.713  0.00  0.00    +0.079 C 
ATOM      9  C   UNL     1      34.480 -17.414 -24.706  0.00  0.00    +0.301 C 
ATOM     10  H   UNL     1      35.297 -19.227 -23.994  0.00  0.00    +0.151 HD
ATOM     11  H   UNL     1      34.075 -15.347 -24.544  0.00  0.00    +0.151 HD
ENDROOT
BRANCH   7  12
ATOM     12  C   UNL     1      35.217 -19.642 -21.258  0.00  0.00    +0.013 C 
BRANCH  12  13
ATOM     13  C   UNL     1      36.327 -20.213 -20.374  0.00  0.00    +0.001 C 
BRANCH  13  14
ATOM     14  C   UNL     1      35.840 -21.436 -19.590  0.00  0.00    +0.008 C 
BRANCH  14  15
ATOM     15  C   UNL     1      34.317 -21.531 -19.545  0.00  0.00    +0.072 C 
BRANCH  15  17
ATOM     16  O   UNL     1      32.618 -22.743 -18.299  0.00  0.00    -0.288 OA
ATOM     17  C   UNL     1      33.790 -22.410 -18.435  0.00  0.00    +0.207 C 
ENDBRANCH  15  17
ENDBRANCH  14  15
ENDBRANCH  13  14
ENDBRANCH  12  13
ENDBRANCH   7  12
TORSDOF 5
ENDMDL
MODEL 9
REMARK VINA RESULT:      -6.3      4.105      4.735
REMARK  Name = 11840927
REMARK  5 active torsions:
REMARK  status: ('A' for Active; 'I' for Inactive)
REMARK    1  A    between atoms: C_7  and  C_12
REMARK    2  A    between atoms: C_12  and  C_13
REMARK    3  A    between atoms: C_13  and  C_14
REMARK    4  A    between atoms: C_14  and  C_15
REMARK    5  A    between atoms: C_15  and  C_17
REMARK                            x       y       z     vdW  Elec       q    Type
REMARK                         _______ _______ _______ _____ _____    ______ ____
ROOT
ATOM      1  S   UNL     1      34.961 -24.055 -12.986  0.00  0.00    -0.138 S 
ATOM      2  O   UNL     1      37.268 -21.623 -16.382  0.00  0.00    -0.253 OA
ATOM      3  N   UNL     1      35.333 -22.909 -16.079  0.00  0.00    -0.288 N 
ATOM      4  N   UNL     1      37.317 -23.778 -15.463  0.00  0.00    -0.288 N 
ATOM      5  C   UNL     1      35.006 -24.245 -15.617  0.00  0.00    +0.102 C 
ATOM      6  C   UNL     1      36.356 -24.809 -15.121  0.00  0.00    +0.103 C 
ATOM      7  C   UNL     1      33.975 -24.292 -14.487  0.00  0.00    +0.067 C 
ATOM      8  C   UNL     1      36.321 -25.063 -13.616  0.00  0.00    +0.079 C 
ATOM      9  C   UNL     1      36.706 -22.647 -16.015  0.00  0.00    +0.301 C 
ATOM     10  H   UNL     1      34.665 -22.262 -16.400  0.00  0.00    +0.151 HD
ATOM     11  H   UNL     1      38.287 -23.863 -15.321  0.00  0.00    +0.151 HD
ENDROOT
BRANCH   7  12
ATOM     12  C   UNL     1      32.839 -23.287 -14.589  0.00  0.00    +0.013 C 
BRANCH  12  13
ATOM     13  C   UNL     1      31.481 -23.983 -14.688  0.00  0.00    +0.001 C 
BRANCH  13  14
ATOM     14  C   UNL     1      30.358 -22.976 -14.951  0.00  0.00    +0.008 C 
BRANCH  14  15
ATOM     15  C   UNL     1      29.812 -23.069 -16.373  0.00  0.00    +0.072 C 
BRANCH  15  17
ATOM     16  O   UNL     1      27.821 -23.893 -17.499  0.00  0.00    -0.288 OA
ATOM     17  C   UNL     1      28.495 -23.803 -16.478  0.00  0.00    +0.207 C 
ENDBRANCH  15  17
ENDBRANCH  14  15
ENDBRANCH  13  14
ENDBRANCH  12  13
ENDBRANCH   7  12
TORSDOF 5
ENDMDL
