MODEL 1
REMARK VINA RESULT:     -12.2      0.000      0.000
REMARK  Name = 15942655
REMARK  5 active torsions:
REMARK  status: ('A' for Active; 'I' for Inactive)
REMARK    1  A    between atoms: C_1  and  C_9
REMARK    2  A    between atoms: C_2  and  C_17
REMARK    3  A    between atoms: C_3  and  O_31
REMARK    4  A    between atoms: C_19  and  C_23
REMARK    5  A    between atoms: C_23  and  N_25
REMARK                            x       y       z     vdW  Elec       q    Type
REMARK                         _______ _______ _______ _____ _____    ______ ____
ROOT
ATOM      1  C   UNL     1      33.992 -15.686 -23.650  0.00  0.00    +0.047 C 
ATOM      2  C   UNL     1      34.776 -17.858 -22.936  0.00  0.00    +0.034 C 
ATOM      3  C   UNL     1      34.320 -16.577 -22.628  0.00  0.00    +0.135 C 
ATOM      4  C   UNL     1      34.119 -16.081 -24.984  0.00  0.00    +0.004 C 
ATOM      5  C   UNL     1      34.904 -18.252 -24.268  0.00  0.00    +0.003 C 
ATOM      6  C   UNL     1      34.576 -17.363 -25.291  0.00  0.00    +0.000 C 
ENDROOT
BRANCH   1   9
ATOM      7  N   UNL     1      32.604 -14.114 -22.365  0.00  0.00    -0.312 N 
ATOM      8  N   UNL     1      32.163 -10.040 -22.608  0.00  0.00    -0.242 NA
ATOM      9  C   UNL     1      33.517 -14.355 -23.356  0.00  0.00    +0.051 C 
ATOM     10  C   UNL     1      32.326 -12.768 -22.296  0.00  0.00    +0.051 C 
ATOM     11  C   UNL     1      33.091 -12.138 -23.279  0.00  0.00    +0.034 C 
ATOM     12  C   UNL     1      33.837 -13.152 -23.941  0.00  0.00    +0.017 C 
ATOM     13  C   UNL     1      31.470 -12.065 -21.452  0.00  0.00    +0.035 C 
ATOM     14  C   UNL     1      32.988 -10.750 -23.415  0.00  0.00    +0.100 C 
ATOM     15  C   UNL     1      31.443 -10.697 -21.670  0.00  0.00    +0.100 C 
ATOM     16  H   UNL     1      32.205 -14.803 -21.786  0.00  0.00    +0.152 HD
ENDBRANCH   1   9
BRANCH   2  17
ATOM     17  C   UNL     1      35.123 -18.799 -21.888  0.00  0.00    +0.003 C 
ATOM     18  C   UNL     1      34.144 -19.633 -21.353  0.00  0.00    -0.003 C 
ATOM     19  C   UNL     1      34.477 -20.539 -20.345  0.00  0.00    -0.003 C 
ATOM     20  C   UNL     1      36.433 -18.867 -21.421  0.00  0.00    +0.000 C 
ATOM     21  C   UNL     1      35.789 -20.608 -19.876  0.00  0.00    -0.003 C 
ATOM     22  C   UNL     1      36.767 -19.772 -20.414  0.00  0.00    -0.000 C 
BRANCH  19  23
ATOM     23  C   UNL     1      33.432 -21.435 -19.769  0.00  0.00    +0.118 C 
BRANCH  23  25
ATOM     24  O   UNL     1      31.905 -22.707 -17.659  0.00  0.00    -0.253 OA
ATOM     25  N   UNL     1      33.938 -22.240 -18.687  0.00  0.00    -0.285 N 
ATOM     26  N   UNL     1      33.860 -23.538 -16.789  0.00  0.00    -0.313 N 
ATOM     27  C   UNL     1      33.128 -22.815 -17.713  0.00  0.00    +0.298 C 
ATOM     28  H   UNL     1      34.909 -22.392 -18.634  0.00  0.00    +0.151 HD
ATOM     29  H   UNL     1      33.401 -23.995 -16.048  0.00  0.00    +0.146 HD
ATOM     30  H   UNL     1      34.839 -23.596 -16.873  0.00  0.00    +0.146 HD
ENDBRANCH  23  25
ENDBRANCH  19  23
ENDBRANCH   2  17
BRANCH   3  31
ATOM     31  O   UNL     1      34.195 -16.192 -21.323  0.00  0.00    -0.505 OA
ATOM     32  H   UNL     1      34.904 -16.326 -20.724  0.00  0.00    +0.292 HD
ENDBRANCH   3  31
TORSDOF 5
ENDMDL
MODEL 2
REMARK VINA RESULT:     -11.4      2.003      9.245
REMARK  Name = 15942655
REMARK  5 active torsions:
REMARK  status: ('A' for Active; 'I' for Inactive)
REMARK    1  A    between atoms: C_1  and  C_9
REMARK    2  A    between atoms: C_2  and  C_17
REMARK    3  A    between atoms: C_3  and  O_31
REMARK    4  A    between atoms: C_19  and  C_23
REMARK    5  A    between atoms: C_23  and  N_25
REMARK                            x       y       z     vdW  Elec       q    Type
REMARK                         _______ _______ _______ _____ _____    ______ ____
ROOT
ATOM      1  C   UNL     1      34.675 -18.083 -22.708  0.00  0.00    +0.047 C 
ATOM      2  C   UNL     1      33.992 -15.871 -23.406  0.00  0.00    +0.034 C 
ATOM      3  C   UNL     1      34.170 -16.820 -22.399  0.00  0.00    +0.135 C 
ATOM      4  C   UNL     1      35.003 -18.395 -24.029  0.00  0.00    +0.004 C 
ATOM      5  C   UNL     1      34.320 -16.185 -24.725  0.00  0.00    +0.003 C 
ATOM      6  C   UNL     1      34.825 -17.447 -25.036  0.00  0.00    +0.000 C 
ENDROOT
BRANCH   1   9
ATOM      7  N   UNL     1      33.824 -19.794 -21.160  0.00  0.00    -0.312 N 
ATOM      8  N   UNL     1      35.733 -22.199 -18.437  0.00  0.00    -0.242 NA
ATOM      9  C   UNL     1      34.868 -19.080 -21.684  0.00  0.00    +0.051 C 
ATOM     10  C   UNL     1      34.282 -20.673 -20.206  0.00  0.00    +0.051 C 
ATOM     11  C   UNL     1      35.666 -20.508 -20.125  0.00  0.00    +0.034 C 
ATOM     12  C   UNL     1      36.022 -19.500 -21.062  0.00  0.00    +0.017 C 
ATOM     13  C   UNL     1      33.592 -21.591 -19.419  0.00  0.00    +0.035 C 
ATOM     14  C   UNL     1      36.378 -21.297 -19.216  0.00  0.00    +0.100 C 
ATOM     15  C   UNL     1      34.392 -22.321 -18.554  0.00  0.00    +0.100 C 
ATOM     16  H   UNL     1      32.882 -19.693 -21.428  0.00  0.00    +0.152 HD
ENDBRANCH   1   9
BRANCH   2  17
ATOM     17  C   UNL     1      33.468 -14.553 -23.106  0.00  0.00    +0.003 C 
ATOM     18  C   UNL     1      33.891 -13.452 -23.848  0.00  0.00    -0.003 C 
ATOM     19  C   UNL     1      33.388 -12.183 -23.560  0.00  0.00    -0.003 C 
ATOM     20  C   UNL     1      32.544 -14.390 -22.077  0.00  0.00    +0.000 C 
ATOM     21  C   UNL     1      32.463 -12.019 -22.529  0.00  0.00    -0.003 C 
ATOM     22  C   UNL     1      32.041 -13.122 -21.788  0.00  0.00    -0.000 C 
BRANCH  19  23
ATOM     23  C   UNL     1      33.838 -11.003 -24.353  0.00  0.00    +0.118 C 
BRANCH  23  25
ATOM     24  O   UNL     1      35.147  -8.501 -23.694  0.00  0.00    -0.253 OA
ATOM     25  N   UNL     1      33.216  -9.779 -23.913  0.00  0.00    -0.285 N 
ATOM     26  N   UNL     1      33.095  -7.590 -23.219  0.00  0.00    -0.313 N 
ATOM     27  C   UNL     1      33.926  -8.620 -23.618  0.00  0.00    +0.298 C 
ATOM     28  H   UNL     1      32.237  -9.764 -23.817  0.00  0.00    +0.151 HD
ATOM     29  H   UNL     1      33.476  -6.714 -22.981  0.00  0.00    +0.146 HD
ATOM     30  H   UNL     1      32.121  -7.732 -23.172  0.00  0.00    +0.146 HD
ENDBRANCH  23  25
ENDBRANCH  19  23
ENDBRANCH   2  17
BRANCH   3  31
ATOM     31  O   UNL     1      33.848 -16.512 -21.107  0.00  0.00    -0.505 OA
ATOM     32  H   UNL     1      33.291 -15.781 -20.924  0.00  0.00    +0.292 HD
ENDBRANCH   3  31
TORSDOF 5
ENDMDL
MODEL 3
REMARK VINA RESULT:     -11.4      1.642      2.070
REMARK  Name = 15942655
REMARK  5 active torsions:
REMARK  status: ('A' for Active; 'I' for Inactive)
REMARK    1  A    between atoms: C_1  and  C_9
REMARK    2  A    between atoms: C_2  and  C_17
REMARK    3  A    between atoms: C_3  and  O_31
REMARK    4  A    between atoms: C_19  and  C_23
REMARK    5  A    between atoms: C_23  and  N_25
REMARK                            x       y       z     vdW  Elec       q    Type
REMARK                         _______ _______ _______ _____ _____    ______ ____
ROOT
ATOM      1  C   UNL     1      34.006 -16.065 -23.414  0.00  0.00    +0.047 C 
ATOM      2  C   UNL     1      34.334 -18.310 -22.580  0.00  0.00    +0.034 C 
ATOM      3  C   UNL     1      33.921 -16.993 -22.377  0.00  0.00    +0.135 C 
ATOM      4  C   UNL     1      34.504 -16.457 -24.659  0.00  0.00    +0.004 C 
ATOM      5  C   UNL     1      34.832 -18.701 -23.823  0.00  0.00    +0.003 C 
ATOM      6  C   UNL     1      34.917 -17.773 -24.862  0.00  0.00    +0.000 C 
ENDROOT
BRANCH   1   9
ATOM      7  N   UNL     1      32.663 -14.346 -22.279  0.00  0.00    -0.312 N 
ATOM      8  N   UNL     1      32.406 -10.286 -22.822  0.00  0.00    -0.242 NA
ATOM      9  C   UNL     1      33.584 -14.697 -23.228  0.00  0.00    +0.051 C 
ATOM     10  C   UNL     1      32.442 -12.988 -22.312  0.00  0.00    +0.051 C 
ATOM     11  C   UNL     1      33.255 -12.464 -23.319  0.00  0.00    +0.034 C 
ATOM     12  C   UNL     1      33.969 -13.554 -23.889  0.00  0.00    +0.017 C 
ATOM     13  C   UNL     1      31.601 -12.190 -21.541  0.00  0.00    +0.035 C 
ATOM     14  C   UNL     1      33.215 -11.087 -23.557  0.00  0.00    +0.100 C 
ATOM     15  C   UNL     1      31.639 -10.842 -21.857  0.00  0.00    +0.100 C 
ATOM     16  H   UNL     1      32.222 -14.974 -21.661  0.00  0.00    +0.152 HD
ENDBRANCH   1   9
BRANCH   2  17
ATOM     17  C   UNL     1      34.255 -19.291 -21.515  0.00  0.00    +0.003 C 
ATOM     18  C   UNL     1      35.422 -19.796 -20.948  0.00  0.00    -0.003 C 
ATOM     19  C   UNL     1      35.346 -20.740 -19.923  0.00  0.00    -0.003 C 
ATOM     20  C   UNL     1      33.011 -19.725 -21.063  0.00  0.00    +0.000 C 
ATOM     21  C   UNL     1      34.101 -21.176 -19.469  0.00  0.00    -0.003 C 
ATOM     22  C   UNL     1      32.934 -20.669 -20.039  0.00  0.00    -0.000 C 
BRANCH  19  23
ATOM     23  C   UNL     1      36.594 -21.282 -19.312  0.00  0.00    +0.118 C 
BRANCH  23  25
ATOM     24  O   UNL     1      37.625 -21.007 -16.615  0.00  0.00    -0.253 OA
ATOM     25  N   UNL     1      36.324 -22.133 -18.180  0.00  0.00    -0.285 N 
ATOM     26  N   UNL     1      36.448 -22.882 -16.009  0.00  0.00    -0.313 N 
ATOM     27  C   UNL     1      36.865 -21.925 -16.916  0.00  0.00    +0.298 C 
ATOM     28  H   UNL     1      35.725 -22.903 -18.310  0.00  0.00    +0.151 HD
ATOM     29  H   UNL     1      36.762 -22.845 -15.077  0.00  0.00    +0.146 HD
ATOM     30  H   UNL     1      35.838 -23.600 -16.296  0.00  0.00    +0.146 HD
ENDBRANCH  23  25
ENDBRANCH  19  23
ENDBRANCH   2  17
BRANCH   3  31
ATOM     31  O   UNL     1      33.434 -16.612 -21.159  0.00  0.00    -0.505 OA
ATOM     32  H   UNL     1      33.696 -15.793 -20.784  0.00  0.00    +0.292 HD
ENDBRANCH   3  31
TORSDOF 5
ENDMDL
MODEL 4
REMARK VINA RESULT:     -10.8      4.649     11.435
REMARK  Name = 15942655
REMARK  5 active torsions:
REMARK  status: ('A' for Active; 'I' for Inactive)
REMARK    1  A    between atoms: C_1  and  C_9
REMARK    2  A    between atoms: C_2  and  C_17
REMARK    3  A    between atoms: C_3  and  O_31
REMARK    4  A    between atoms: C_19  and  C_23
REMARK    5  A    between atoms: C_23  and  N_25
REMARK                            x       y       z     vdW  Elec       q    Type
REMARK                         _______ _______ _______ _____ _____    ______ ____
ROOT
ATOM      1  C   UNL     1      32.650 -12.344 -22.554  0.00  0.00    +0.047 C 
ATOM      2  C   UNL     1      32.459  -9.940 -22.733  0.00  0.00    +0.034 C 
ATOM      3  C   UNL     1      33.022 -11.143 -23.159  0.00  0.00    +0.135 C 
ATOM      4  C   UNL     1      31.710 -12.339 -21.521  0.00  0.00    +0.004 C 
ATOM      5  C   UNL     1      31.521  -9.936 -21.701  0.00  0.00    +0.003 C 
ATOM      6  C   UNL     1      31.147 -11.136 -21.095  0.00  0.00    +0.000 C 
ENDROOT
BRANCH   1   9
ATOM      7  N   UNL     1      33.057 -14.076 -24.251  0.00  0.00    -0.312 N 
ATOM      8  N   UNL     1      35.123 -17.619 -24.090  0.00  0.00    -0.242 NA
ATOM      9  C   UNL     1      33.219 -13.600 -22.978  0.00  0.00    +0.051 C 
ATOM     10  C   UNL     1      33.697 -15.287 -24.390  0.00  0.00    +0.051 C 
ATOM     11  C   UNL     1      34.283 -15.585 -23.158  0.00  0.00    +0.034 C 
ATOM     12  C   UNL     1      33.973 -14.513 -22.277  0.00  0.00    +0.017 C 
ATOM     13  C   UNL     1      33.805 -16.131 -25.491  0.00  0.00    +0.035 C 
ATOM     14  C   UNL     1      35.002 -16.778 -23.035  0.00  0.00    +0.100 C 
ATOM     15  C   UNL     1      34.538 -17.284 -25.262  0.00  0.00    +0.100 C 
ATOM     16  H   UNL     1      32.557 -13.618 -24.965  0.00  0.00    +0.152 HD
ENDBRANCH   1   9
BRANCH   2  17
ATOM     17  C   UNL     1      32.832  -8.681 -23.349  0.00  0.00    +0.003 C 
ATOM     18  C   UNL     1      31.843  -7.788 -23.755  0.00  0.00    -0.003 C 
ATOM     19  C   UNL     1      32.202  -6.576 -24.348  0.00  0.00    -0.003 C 
ATOM     20  C   UNL     1      34.176  -8.370 -23.532  0.00  0.00    +0.000 C 
ATOM     21  C   UNL     1      33.548  -6.263 -24.532  0.00  0.00    -0.003 C 
ATOM     22  C   UNL     1      34.535  -7.159 -24.124  0.00  0.00    -0.000 C 
BRANCH  19  23
ATOM     23  C   UNL     1      31.146  -5.616 -24.783  0.00  0.00    +0.118 C 
BRANCH  23  25
ATOM     24  O   UNL     1      31.868  -2.858 -24.252  0.00  0.00    -0.253 OA
ATOM     25  N   UNL     1      30.685  -4.783 -23.700  0.00  0.00    -0.285 N 
ATOM     26  N   UNL     1      30.498  -2.889 -22.410  0.00  0.00    -0.313 N 
ATOM     27  C   UNL     1      31.086  -3.464 -23.522  0.00  0.00    +0.298 C 
ATOM     28  H   UNL     1      30.052  -5.170 -23.054  0.00  0.00    +0.151 HD
ATOM     29  H   UNL     1      30.701  -1.954 -22.175  0.00  0.00    +0.146 HD
ATOM     30  H   UNL     1      29.877  -3.413 -21.855  0.00  0.00    +0.146 HD
ENDBRANCH  23  25
ENDBRANCH  19  23
ENDBRANCH   2  17
BRANCH   3  31
ATOM     31  O   UNL     1      33.941 -11.146 -24.171  0.00  0.00    -0.505 OA
ATOM     32  H   UNL     1      34.851 -11.253 -23.977  0.00  0.00    +0.292 HD
ENDBRANCH   3  31
TORSDOF 5
ENDMDL
MODEL 5
REMARK VINA RESULT:     -10.8      2.454      8.597
REMARK  Name = 15942655
REMARK  5 active torsions:
REMARK  status: ('A' for Active; 'I' for Inactive)
REMARK    1  A    between atoms: C_1  and  C_9
REMARK    2  A    between atoms: C_2  and  C_17
REMARK    3  A    between atoms: C_3  and  O_31
REMARK    4  A    between atoms: C_19  and  C_23
REMARK    5  A    between atoms: C_23  and  N_25
REMARK                            x       y       z     vdW  Elec       q    Type
REMARK                         _______ _______ _______ _____ _____    ______ ____
ROOT
ATOM      1  C   UNL     1      34.366 -16.886 -23.590  0.00  0.00    +0.047 C 
ATOM      2  C   UNL     1      33.667 -14.657 -24.213  0.00  0.00    +0.034 C 
ATOM      3  C   UNL     1      34.116 -15.557 -23.246  0.00  0.00    +0.135 C 
ATOM      4  C   UNL     1      34.167 -17.313 -24.904  0.00  0.00    +0.004 C 
ATOM      5  C   UNL     1      33.468 -15.085 -25.525  0.00  0.00    +0.003 C 
ATOM      6  C   UNL     1      33.718 -16.413 -25.871  0.00  0.00    +0.000 C 
ENDROOT
BRANCH   1   9
ATOM      7  N   UNL     1      33.988 -18.728 -22.006  0.00  0.00    -0.312 N 
ATOM      8  N   UNL     1      36.547 -20.755 -19.518  0.00  0.00    -0.242 NA
ATOM      9  C   UNL     1      34.832 -17.835 -22.608  0.00  0.00    +0.051 C 
ATOM     10  C   UNL     1      34.685 -19.513 -21.115  0.00  0.00    +0.051 C 
ATOM     11  C   UNL     1      36.017 -19.099 -21.158  0.00  0.00    +0.034 C 
ATOM     12  C   UNL     1      36.095 -18.039 -22.103  0.00  0.00    +0.017 C 
ATOM     13  C   UNL     1      34.249 -20.544 -20.287  0.00  0.00    +0.035 C 
ATOM     14  C   UNL     1      36.942 -19.748 -20.334  0.00  0.00    +0.100 C 
ATOM     15  C   UNL     1      35.245 -21.119 -19.514  0.00  0.00    +0.100 C 
ATOM     16  H   UNL     1      33.022 -18.800 -22.184  0.00  0.00    +0.152 HD
ENDBRANCH   1   9
BRANCH   2  17
ATOM     17  C   UNL     1      33.400 -13.272 -23.877  0.00  0.00    +0.003 C 
ATOM     18  C   UNL     1      32.567 -12.965 -22.804  0.00  0.00    -0.003 C 
ATOM     19  C   UNL     1      32.310 -11.632 -22.481  0.00  0.00    -0.003 C 
ATOM     20  C   UNL     1      33.979 -12.252 -24.628  0.00  0.00    +0.000 C 
ATOM     21  C   UNL     1      32.889 -10.609 -23.233  0.00  0.00    -0.003 C 
ATOM     22  C   UNL     1      33.723 -10.920 -24.306  0.00  0.00    -0.000 C 
BRANCH  19  23
ATOM     23  C   UNL     1      31.419 -11.299 -21.332  0.00  0.00    +0.118 C 
BRANCH  23  25
ATOM     24  O   UNL     1      32.295 -10.245 -18.776  0.00  0.00    -0.253 OA
ATOM     25  N   UNL     1      31.520  -9.915 -20.944  0.00  0.00    -0.285 N 
ATOM     26  N   UNL     1      31.957  -8.119 -19.575  0.00  0.00    -0.313 N 
ATOM     27  C   UNL     1      31.952  -9.498 -19.691  0.00  0.00    +0.298 C 
ATOM     28  H   UNL     1      31.269  -9.228 -21.603  0.00  0.00    +0.151 HD
ATOM     29  H   UNL     1      32.244  -7.698 -18.733  0.00  0.00    +0.146 HD
ATOM     30  H   UNL     1      31.674  -7.561 -20.335  0.00  0.00    +0.146 HD
ENDBRANCH  23  25
ENDBRANCH  19  23
ENDBRANCH   2  17
BRANCH   3  31
ATOM     31  O   UNL     1      34.311 -15.137 -21.961  0.00  0.00    -0.505 OA
ATOM     32  H   UNL     1      35.098 -14.684 -21.730  0.00  0.00    +0.292 HD
ENDBRANCH   3  31
TORSDOF 5
ENDMDL
MODEL 6
REMARK VINA RESULT:     -10.5      2.514      5.096
REMARK  Name = 15942655
REMARK  5 active torsions:
REMARK  status: ('A' for Active; 'I' for Inactive)
REMARK    1  A    between atoms: C_1  and  C_9
REMARK    2  A    between atoms: C_2  and  C_17
REMARK    3  A    between atoms: C_3  and  O_31
REMARK    4  A    between atoms: C_19  and  C_23
REMARK    5  A    between atoms: C_23  and  N_25
REMARK                            x       y       z     vdW  Elec       q    Type
REMARK                         _______ _______ _______ _____ _____    ______ ____
ROOT
ATOM      1  C   UNL     1      32.426 -11.779 -22.327  0.00  0.00    +0.047 C 
ATOM      2  C   UNL     1      33.044 -14.089 -22.681  0.00  0.00    +0.034 C 
ATOM      3  C   UNL     1      32.973 -12.774 -23.138  0.00  0.00    +0.135 C 
ATOM      4  C   UNL     1      31.951 -12.104 -21.055  0.00  0.00    +0.004 C 
ATOM      5  C   UNL     1      32.569 -14.413 -21.411  0.00  0.00    +0.003 C 
ATOM      6  C   UNL     1      32.022 -13.420 -20.598  0.00  0.00    +0.000 C 
ENDROOT
BRANCH   1   9
ATOM      7  N   UNL     1      33.440  -9.728 -23.227  0.00  0.00    -0.312 N 
ATOM      8  N   UNL     1      31.825  -6.072 -24.162  0.00  0.00    -0.242 NA
ATOM      9  C   UNL     1      32.343 -10.411 -22.778  0.00  0.00    +0.051 C 
ATOM     10  C   UNL     1      33.085  -8.450 -23.594  0.00  0.00    +0.051 C 
ATOM     11  C   UNL     1      31.713  -8.323 -23.368  0.00  0.00    +0.034 C 
ATOM     12  C   UNL     1      31.258  -9.568 -22.852  0.00  0.00    +0.017 C 
ATOM     13  C   UNL     1      33.856  -7.409 -24.104  0.00  0.00    +0.035 C 
ATOM     14  C   UNL     1      31.099  -7.102 -23.665  0.00  0.00    +0.100 C 
ATOM     15  C   UNL     1      33.151  -6.245 -24.364  0.00  0.00    +0.100 C 
ATOM     16  H   UNL     1      34.352 -10.096 -23.281  0.00  0.00    +0.152 HD
ENDBRANCH   1   9
BRANCH   2  17
ATOM     17  C   UNL     1      33.609 -15.138 -23.509  0.00  0.00    +0.003 C 
ATOM     18  C   UNL     1      34.366 -16.152 -22.924  0.00  0.00    -0.003 C 
ATOM     19  C   UNL     1      34.910 -17.161 -23.720  0.00  0.00    -0.003 C 
ATOM     20  C   UNL     1      33.394 -15.129 -24.884  0.00  0.00    +0.000 C 
ATOM     21  C   UNL     1      34.695 -17.153 -25.098  0.00  0.00    -0.003 C 
ATOM     22  C   UNL     1      33.937 -16.137 -25.680  0.00  0.00    -0.000 C 
BRANCH  19  23
ATOM     23  C   UNL     1      35.719 -18.249 -23.098  0.00  0.00    +0.118 C 
BRANCH  23  25
ATOM     24  O   UNL     1      36.286 -19.109 -20.388  0.00  0.00    -0.253 OA
ATOM     25  N   UNL     1      34.921 -19.119 -22.271  0.00  0.00    -0.285 N 
ATOM     26  N   UNL     1      34.338 -20.323 -20.400  0.00  0.00    -0.313 N 
ATOM     27  C   UNL     1      35.272 -19.480 -20.975  0.00  0.00    +0.298 C 
ATOM     28  H   UNL     1      34.084 -19.476 -22.644  0.00  0.00    +0.151 HD
ATOM     29  H   UNL     1      34.471 -20.651 -19.482  0.00  0.00    +0.146 HD
ATOM     30  H   UNL     1      33.540 -20.594 -20.910  0.00  0.00    +0.146 HD
ENDBRANCH  23  25
ENDBRANCH  19  23
ENDBRANCH   2  17
BRANCH   3  31
ATOM     31  O   UNL     1      33.440 -12.457 -24.383  0.00  0.00    -0.505 OA
ATOM     32  H   UNL     1      32.931 -11.910 -24.949  0.00  0.00    +0.292 HD
ENDBRANCH   3  31
TORSDOF 5
ENDMDL
MODEL 7
REMARK VINA RESULT:     -10.3      2.537      9.474
REMARK  Name = 15942655
REMARK  5 active torsions:
REMARK  status: ('A' for Active; 'I' for Inactive)
REMARK    1  A    between atoms: C_1  and  C_9
REMARK    2  A    between atoms: C_2  and  C_17
REMARK    3  A    between atoms: C_3  and  O_31
REMARK    4  A    between atoms: C_19  and  C_23
REMARK    5  A    between atoms: C_23  and  N_25
REMARK                            x       y       z     vdW  Elec       q    Type
REMARK                         _______ _______ _______ _____ _____    ______ ____
ROOT
ATOM      1  C   UNL     1      34.211 -16.414 -23.279  0.00  0.00    +0.047 C 
ATOM      2  C   UNL     1      33.267 -14.209 -23.574  0.00  0.00    +0.034 C 
ATOM      3  C   UNL     1      33.745 -15.216 -22.737  0.00  0.00    +0.135 C 
ATOM      4  C   UNL     1      34.199 -16.602 -24.663  0.00  0.00    +0.004 C 
ATOM      5  C   UNL     1      33.255 -14.397 -24.956  0.00  0.00    +0.003 C 
ATOM      6  C   UNL     1      33.721 -15.594 -25.500  0.00  0.00    +0.000 C 
ENDROOT
BRANCH   1   9
ATOM      7  N   UNL     1      33.877 -18.381 -21.841  0.00  0.00    -0.312 N 
ATOM      8  N   UNL     1      36.536 -20.742 -19.790  0.00  0.00    -0.242 NA
ATOM      9  C   UNL     1      34.711 -17.471 -22.434  0.00  0.00    +0.051 C 
ATOM     10  C   UNL     1      34.608 -19.275 -21.092  0.00  0.00    +0.051 C 
ATOM     11  C   UNL     1      35.951 -18.917 -21.218  0.00  0.00    +0.034 C 
ATOM     12  C   UNL     1      36.001 -17.777 -22.067  0.00  0.00    +0.017 C 
ATOM     13  C   UNL     1      34.194 -20.361 -20.325  0.00  0.00    +0.035 C 
ATOM     14  C   UNL     1      36.910 -19.680 -20.544  0.00  0.00    +0.100 C 
ATOM     15  C   UNL     1      35.222 -21.048 -19.701  0.00  0.00    +0.100 C 
ATOM     16  H   UNL     1      32.897 -18.393 -21.936  0.00  0.00    +0.152 HD
ENDBRANCH   1   9
BRANCH   2  17
ATOM     17  C   UNL     1      32.778 -12.956 -23.031  0.00  0.00    +0.003 C 
ATOM     18  C   UNL     1      33.187 -11.749 -23.594  0.00  0.00    -0.003 C 
ATOM     19  C   UNL     1      32.717 -10.543 -23.072  0.00  0.00    -0.003 C 
ATOM     20  C   UNL     1      31.902 -12.963 -21.949  0.00  0.00    +0.000 C 
ATOM     21  C   UNL     1      31.839 -10.549 -21.988  0.00  0.00    -0.003 C 
ATOM     22  C   UNL     1      31.432 -11.759 -21.427  0.00  0.00    -0.000 C 
BRANCH  19  23
ATOM     23  C   UNL     1      33.151  -9.248 -23.673  0.00  0.00    +0.118 C 
BRANCH  23  25
ATOM     24  O   UNL     1      30.991  -7.470 -24.433  0.00  0.00    -0.253 OA
ATOM     25  N   UNL     1      32.655  -8.111 -22.939  0.00  0.00    -0.285 N 
ATOM     26  N   UNL     1      31.326  -6.287 -22.495  0.00  0.00    -0.313 N 
ATOM     27  C   UNL     1      31.608  -7.310 -23.382  0.00  0.00    +0.298 C 
ATOM     28  H   UNL     1      33.079  -7.891 -22.080  0.00  0.00    +0.151 HD
ATOM     29  H   UNL     1      30.604  -5.649 -22.694  0.00  0.00    +0.146 HD
ATOM     30  H   UNL     1      31.848  -6.198 -21.664  0.00  0.00    +0.146 HD
ENDBRANCH  23  25
ENDBRANCH  19  23
ENDBRANCH   2  17
BRANCH   3  31
ATOM     31  O   UNL     1      33.757 -15.031 -21.383  0.00  0.00    -0.505 OA
ATOM     32  H   UNL     1      34.154 -14.265 -21.019  0.00  0.00    +0.292 HD
ENDBRANCH   3  31
TORSDOF 5
ENDMDL
MODEL 8
REMARK VINA RESULT:     -10.1      4.012     10.904
REMARK  Name = 15942655
REMARK  5 active torsions:
REMARK  status: ('A' for Active; 'I' for Inactive)
REMARK    1  A    between atoms: C_1  and  C_9
REMARK    2  A    between atoms: C_2  and  C_17
REMARK    3  A    between atoms: C_3  and  O_31
REMARK    4  A    between atoms: C_19  and  C_23
REMARK    5  A    between atoms: C_23  and  N_25
REMARK                            x       y       z     vdW  Elec       q    Type
REMARK                         _______ _______ _______ _____ _____    ______ ____
ROOT
ATOM      1  C   UNL     1      34.704 -23.195 -16.483  0.00  0.00    +0.047 C 
ATOM      2  C   UNL     1      34.570 -21.894 -18.516  0.00  0.00    +0.034 C 
ATOM      3  C   UNL     1      35.308 -22.370 -17.432  0.00  0.00    +0.135 C 
ATOM      4  C   UNL     1      33.360 -23.546 -16.621  0.00  0.00    +0.004 C 
ATOM      5  C   UNL     1      33.226 -22.244 -18.653  0.00  0.00    +0.003 C 
ATOM      6  C   UNL     1      32.622 -23.070 -17.705  0.00  0.00    +0.000 C 
ENDROOT
BRANCH   1   9
ATOM      7  N   UNL     1      35.926 -22.873 -14.373  0.00  0.00    -0.312 N 
ATOM      8  N   UNL     1      37.779 -25.538 -11.861  0.00  0.00    -0.242 NA
ATOM      9  C   UNL     1      35.448 -23.700 -15.354  0.00  0.00    +0.051 C 
ATOM     10  C   UNL     1      36.594 -23.606 -13.419  0.00  0.00    +0.051 C 
ATOM     11  C   UNL     1      36.534 -24.944 -13.813  0.00  0.00    +0.034 C 
ATOM     12  C   UNL     1      35.808 -24.988 -15.035  0.00  0.00    +0.017 C 
ATOM     13  C   UNL     1      37.237 -23.200 -12.253  0.00  0.00    +0.035 C 
ATOM     14  C   UNL     1      37.146 -25.905 -13.001  0.00  0.00    +0.100 C 
ATOM     15  C   UNL     1      37.808 -24.229 -11.523  0.00  0.00    +0.100 C 
ATOM     16  H   UNL     1      35.809 -21.895 -14.353  0.00  0.00    +0.152 HD
ENDBRANCH   1   9
BRANCH   2  17
ATOM     17  C   UNL     1      35.177 -21.035 -19.514  0.00  0.00    +0.003 C 
ATOM     18  C   UNL     1      34.391 -20.471 -20.516  0.00  0.00    -0.003 C 
ATOM     19  C   UNL     1      34.975 -19.645 -21.477  0.00  0.00    -0.003 C 
ATOM     20  C   UNL     1      36.545 -20.777 -19.469  0.00  0.00    +0.000 C 
ATOM     21  C   UNL     1      36.345 -19.386 -21.433  0.00  0.00    -0.003 C 
ATOM     22  C   UNL     1      37.129 -19.952 -20.428  0.00  0.00    -0.000 C 
BRANCH  19  23
ATOM     23  C   UNL     1      34.136 -19.038 -22.551  0.00  0.00    +0.118 C 
BRANCH  23  25
ATOM     24  O   UNL     1      34.271 -18.250 -25.338  0.00  0.00    -0.253 OA
ATOM     25  N   UNL     1      34.726 -17.840 -23.094  0.00  0.00    -0.285 N 
ATOM     26  N   UNL     1      35.369 -16.335 -24.710  0.00  0.00    -0.313 N 
ATOM     27  C   UNL     1      34.745 -17.542 -24.452  0.00  0.00    +0.298 C 
ATOM     28  H   UNL     1      35.136 -17.200 -22.470  0.00  0.00    +0.151 HD
ATOM     29  H   UNL     1      35.448 -16.009 -25.636  0.00  0.00    +0.146 HD
ATOM     30  H   UNL     1      35.735 -15.801 -23.967  0.00  0.00    +0.146 HD
ENDBRANCH  23  25
ENDBRANCH  19  23
ENDBRANCH   2  17
BRANCH   3  31
ATOM     31  O   UNL     1      36.623 -22.026 -17.299  0.00  0.00    -0.505 OA
ATOM     32  H   UNL     1      36.942 -21.232 -17.683  0.00  0.00    +0.292 HD
ENDBRANCH   3  31
TORSDOF 5
ENDMDL
MODEL 9
REMARK VINA RESULT:      -9.9      3.528      6.539
REMARK  Name = 15942655
REMARK  5 active torsions:
REMARK  status: ('A' for Active; 'I' for Inactive)
REMARK    1  A    between atoms: C_1  and  C_9
REMARK    2  A    between atoms: C_2  and  C_17
REMARK    3  A    between atoms: C_3  and  O_31
REMARK    4  A    between atoms: C_19  and  C_23
REMARK    5  A    between atoms: C_23  and  N_25
REMARK                            x       y       z     vdW  Elec       q    Type
REMARK                         _______ _______ _______ _____ _____    ______ ____
ROOT
ATOM      1  C   UNL     1      31.865 -10.242 -21.698  0.00  0.00    +0.047 C 
ATOM      2  C   UNL     1      32.457 -12.541 -22.157  0.00  0.00    +0.034 C 
ATOM      3  C   UNL     1      32.361 -11.212 -22.570  0.00  0.00    +0.135 C 
ATOM      4  C   UNL     1      31.464 -10.605 -20.411  0.00  0.00    +0.004 C 
ATOM      5  C   UNL     1      32.056 -12.902 -20.870  0.00  0.00    +0.003 C 
ATOM      6  C   UNL     1      31.559 -11.934 -19.998  0.00  0.00    +0.000 C 
ENDROOT
BRANCH   1   9
ATOM      7  N   UNL     1      31.326  -8.503 -23.352  0.00  0.00    -0.312 N 
ATOM      8  N   UNL     1      31.496  -4.407 -23.155  0.00  0.00    -0.242 NA
ATOM      9  C   UNL     1      31.757  -8.861 -22.103  0.00  0.00    +0.051 C 
ATOM     10  C   UNL     1      31.317  -7.132 -23.475  0.00  0.00    +0.051 C 
ATOM     11  C   UNL     1      31.758  -6.607 -22.259  0.00  0.00    +0.034 C 
ATOM     12  C   UNL     1      32.033  -7.709 -21.403  0.00  0.00    +0.017 C 
ATOM     13  C   UNL     1      30.957  -6.325 -24.550  0.00  0.00    +0.035 C 
ATOM     14  C   UNL     1      31.840  -5.218 -22.125  0.00  0.00    +0.100 C 
ATOM     15  C   UNL     1      31.074  -4.965 -24.312  0.00  0.00    +0.100 C 
ATOM     16  H   UNL     1      31.061  -9.134 -24.060  0.00  0.00    +0.152 HD
ENDBRANCH   1   9
BRANCH   2  17
ATOM     17  C   UNL     1      32.970 -13.565 -23.046  0.00  0.00    +0.003 C 
ATOM     18  C   UNL     1      33.860 -14.522 -22.563  0.00  0.00    -0.003 C 
ATOM     19  C   UNL     1      34.354 -15.506 -23.419  0.00  0.00    -0.003 C 
ATOM     20  C   UNL     1      32.573 -13.588 -24.381  0.00  0.00    +0.000 C 
ATOM     21  C   UNL     1      33.957 -15.531 -24.756  0.00  0.00    -0.003 C 
ATOM     22  C   UNL     1      33.067 -14.572 -25.236  0.00  0.00    -0.000 C 
BRANCH  19  23
ATOM     23  C   UNL     1      35.306 -16.534 -22.905  0.00  0.00    +0.118 C 
BRANCH  23  25
ATOM     24  O   UNL     1      34.241 -19.185 -22.411  0.00  0.00    -0.253 OA
ATOM     25  N   UNL     1      35.387 -17.685 -23.768  0.00  0.00    -0.285 N 
ATOM     26  N   UNL     1      35.060 -19.858 -24.447  0.00  0.00    -0.313 N 
ATOM     27  C   UNL     1      34.844 -18.924 -23.449  0.00  0.00    +0.298 C 
ATOM     28  H   UNL     1      35.852 -17.587 -24.630  0.00  0.00    +0.151 HD
ATOM     29  H   UNL     1      34.723 -20.777 -24.341  0.00  0.00    +0.146 HD
ATOM     30  H   UNL     1      35.549 -19.604 -25.262  0.00  0.00    +0.146 HD
ENDBRANCH  23  25
ENDBRANCH  19  23
ENDBRANCH   2  17
BRANCH   3  31
ATOM     31  O   UNL     1      32.754 -10.859 -23.830  0.00  0.00    -0.505 OA
ATOM     32  H   UNL     1      33.637 -11.013 -24.106  0.00  0.00    +0.292 HD
ENDBRANCH   3  31
TORSDOF 5
ENDMDL
