MODEL 1
REMARK VINA RESULT:      -5.5      0.000      0.000
REMARK  Name = 448748
REMARK  2 active torsions:
REMARK  status: ('A' for Active; 'I' for Inactive)
REMARK    1  A    between atoms: C_1  and  C_7
REMARK    2  A    between atoms: C_7  and  N_8
REMARK                            x       y       z     vdW  Elec       q    Type
REMARK                         _______ _______ _______ _____ _____    ______ ____
ROOT
ATOM      1  C   UNL     1      35.249 -19.650 -21.293  0.00  0.00    -0.022 C 
ATOM      2  C   UNL     1      35.779 -20.495 -20.126  0.00  0.00    -0.002 C 
ATOM      3  C   UNL     1      33.824 -19.156 -21.006  0.00  0.00    -0.002 C 
ATOM      4  C   UNL     1      34.836 -21.648 -19.791  0.00  0.00    -0.000 C 
ATOM      5  C   UNL     1      32.884 -20.312 -20.670  0.00  0.00    -0.000 C 
ATOM      6  C   UNL     1      33.419 -21.154 -19.517  0.00  0.00    -0.000 C 
ENDROOT
BRANCH   1   7
ATOM      7  C   UNL     1      36.181 -18.473 -21.573  0.00  0.00    -0.086 C 
BRANCH   7   8
ATOM      8  N   UNL     1      36.192 -18.214 -23.027  0.00  0.00    +0.380 N 
ATOM      9  H   UNL     1      35.970 -19.075 -23.528  0.00  0.00    -0.089 HD
ATOM     10  H   UNL     1      37.117 -17.887 -23.307  0.00  0.00    -0.089 HD
ATOM     11  H   UNL     1      35.497 -17.501 -23.251  0.00  0.00    -0.089 HD
ENDBRANCH   7   8
ENDBRANCH   1   7
TORSDOF 2
ENDMDL
MODEL 2
REMARK VINA RESULT:      -5.5      2.914      4.253
REMARK  Name = 448748
REMARK  2 active torsions:
REMARK  status: ('A' for Active; 'I' for Inactive)
REMARK    1  A    between atoms: C_1  and  C_7
REMARK    2  A    between atoms: C_7  and  N_8
REMARK                            x       y       z     vdW  Elec       q    Type
REMARK                         _______ _______ _______ _____ _____    ______ ____
ROOT
ATOM      1  C   UNL     1      34.014 -21.906 -19.497  0.00  0.00    -0.022 C 
ATOM      2  C   UNL     1      32.946 -20.821 -19.690  0.00  0.00    -0.002 C 
ATOM      3  C   UNL     1      35.418 -21.286 -19.444  0.00  0.00    -0.002 C 
ATOM      4  C   UNL     1      33.233 -19.960 -20.917  0.00  0.00    -0.000 C 
ATOM      5  C   UNL     1      35.700 -20.424 -20.671  0.00  0.00    -0.000 C 
ATOM      6  C   UNL     1      34.632 -19.353 -20.865  0.00  0.00    -0.000 C 
ENDROOT
BRANCH   1   7
ATOM      7  C   UNL     1      33.736 -22.719 -18.235  0.00  0.00    -0.086 C 
BRANCH   7   8
ATOM      8  N   UNL     1      32.299 -22.611 -17.909  0.00  0.00    +0.380 N 
ATOM      9  H   UNL     1      32.145 -21.791 -17.321  0.00  0.00    -0.089 HD
ATOM     10  H   UNL     1      32.000 -23.449 -17.409  0.00  0.00    -0.089 HD
ATOM     11  H   UNL     1      31.761 -22.519 -18.771  0.00  0.00    -0.089 HD
ENDBRANCH   7   8
ENDBRANCH   1   7
TORSDOF 2
ENDMDL
MODEL 3
REMARK VINA RESULT:      -5.3      2.660      3.677
REMARK  Name = 448748
REMARK  2 active torsions:
REMARK  status: ('A' for Active; 'I' for Inactive)
REMARK    1  A    between atoms: C_1  and  C_7
REMARK    2  A    between atoms: C_7  and  N_8
REMARK                            x       y       z     vdW  Elec       q    Type
REMARK                         _______ _______ _______ _____ _____    ______ ____
ROOT
ATOM      1  C   UNL     1      34.391 -21.152 -19.532  0.00  0.00    -0.022 C 
ATOM      2  C   UNL     1      35.784 -21.171 -20.176  0.00  0.00    -0.002 C 
ATOM      3  C   UNL     1      33.352 -20.563 -20.497  0.00  0.00    -0.002 C 
ATOM      4  C   UNL     1      36.193 -19.788 -20.675  0.00  0.00    -0.000 C 
ATOM      5  C   UNL     1      33.765 -19.181 -20.996  0.00  0.00    -0.000 C 
ATOM      6  C   UNL     1      35.154 -19.203 -21.627  0.00  0.00    -0.000 C 
ENDROOT
BRANCH   1   7
ATOM      7  C   UNL     1      33.981 -22.555 -19.089  0.00  0.00    -0.086 C 
BRANCH   7   8
ATOM      8  N   UNL     1      32.690 -22.469 -18.378  0.00  0.00    +0.380 N 
ATOM      9  H   UNL     1      32.515 -21.500 -18.106  0.00  0.00    -0.089 HD
ATOM     10  H   UNL     1      32.721 -23.056 -17.544  0.00  0.00    -0.089 HD
ATOM     11  H   UNL     1      31.942 -22.790 -18.992  0.00  0.00    -0.089 HD
ENDBRANCH   7   8
ENDBRANCH   1   7
TORSDOF 2
ENDMDL
MODEL 4
REMARK VINA RESULT:      -5.3      0.876      1.964
REMARK  Name = 448748
REMARK  2 active torsions:
REMARK  status: ('A' for Active; 'I' for Inactive)
REMARK    1  A    between atoms: C_1  and  C_7
REMARK    2  A    between atoms: C_7  and  N_8
REMARK                            x       y       z     vdW  Elec       q    Type
REMARK                         _______ _______ _______ _____ _____    ______ ____
ROOT
ATOM      1  C   UNL     1      34.962 -19.436 -20.856  0.00  0.00    -0.022 C 
ATOM      2  C   UNL     1      33.488 -19.794 -21.093  0.00  0.00    -0.002 C 
ATOM      3  C   UNL     1      35.778 -20.688 -20.505  0.00  0.00    -0.002 C 
ATOM      4  C   UNL     1      32.892 -20.544 -19.904  0.00  0.00    -0.000 C 
ATOM      5  C   UNL     1      35.178 -21.437 -19.317  0.00  0.00    -0.000 C 
ATOM      6  C   UNL     1      33.711 -21.783 -19.553  0.00  0.00    -0.000 C 
ENDROOT
BRANCH   1   7
ATOM      7  C   UNL     1      35.550 -18.735 -22.078  0.00  0.00    -0.086 C 
BRANCH   7   8
ATOM      8  N   UNL     1      34.833 -19.201 -23.282  0.00  0.00    +0.380 N 
ATOM      9  H   UNL     1      34.591 -18.399 -23.866  0.00  0.00    -0.089 HD
ATOM     10  H   UNL     1      33.980 -19.687 -23.003  0.00  0.00    -0.089 HD
ATOM     11  H   UNL     1      35.431 -19.837 -23.809  0.00  0.00    -0.089 HD
ENDBRANCH   7   8
ENDBRANCH   1   7
TORSDOF 2
ENDMDL
MODEL 5
REMARK VINA RESULT:      -5.1      2.789      4.418
REMARK  Name = 448748
REMARK  2 active torsions:
REMARK  status: ('A' for Active; 'I' for Inactive)
REMARK    1  A    between atoms: C_1  and  C_7
REMARK    2  A    between atoms: C_7  and  N_8
REMARK                            x       y       z     vdW  Elec       q    Type
REMARK                         _______ _______ _______ _____ _____    ______ ____
ROOT
ATOM      1  C   UNL     1      34.639 -18.625 -22.578  0.00  0.00    -0.022 C 
ATOM      2  C   UNL     1      35.236 -17.215 -22.466  0.00  0.00    -0.002 C 
ATOM      3  C   UNL     1      34.860 -19.201 -23.983  0.00  0.00    -0.002 C 
ATOM      4  C   UNL     1      34.696 -16.287 -23.550  0.00  0.00    -0.000 C 
ATOM      5  C   UNL     1      34.321 -18.269 -25.066  0.00  0.00    -0.000 C 
ATOM      6  C   UNL     1      34.909 -16.867 -24.945  0.00  0.00    -0.000 C 
ENDROOT
BRANCH   1   7
ATOM      7  C   UNL     1      35.234 -19.549 -21.517  0.00  0.00    -0.086 C 
BRANCH   7   8
ATOM      8  N   UNL     1      36.099 -18.750 -20.625  0.00  0.00    +0.380 N 
ATOM      9  H   UNL     1      36.753 -19.368 -20.143  0.00  0.00    -0.089 HD
ATOM     10  H   UNL     1      35.521 -18.265 -19.937  0.00  0.00    -0.089 HD
ATOM     11  H   UNL     1      36.618 -18.067 -21.176  0.00  0.00    -0.089 HD
ENDBRANCH   7   8
ENDBRANCH   1   7
TORSDOF 2
ENDMDL
MODEL 6
REMARK VINA RESULT:      -5.0      3.814      4.789
REMARK  Name = 448748
REMARK  2 active torsions:
REMARK  status: ('A' for Active; 'I' for Inactive)
REMARK    1  A    between atoms: C_1  and  C_7
REMARK    2  A    between atoms: C_7  and  N_8
REMARK                            x       y       z     vdW  Elec       q    Type
REMARK                         _______ _______ _______ _____ _____    ______ ____
ROOT
ATOM      1  C   UNL     1      34.955 -15.894 -23.207  0.00  0.00    -0.022 C 
ATOM      2  C   UNL     1      35.030 -17.122 -22.289  0.00  0.00    -0.002 C 
ATOM      3  C   UNL     1      34.119 -16.198 -24.458  0.00  0.00    -0.002 C 
ATOM      4  C   UNL     1      35.548 -18.351 -23.033  0.00  0.00    -0.000 C 
ATOM      5  C   UNL     1      34.638 -17.428 -25.198  0.00  0.00    -0.000 C 
ATOM      6  C   UNL     1      34.720 -18.644 -24.280  0.00  0.00    -0.000 C 
ENDROOT
BRANCH   1   7
ATOM      7  C   UNL     1      34.384 -14.693 -22.456  0.00  0.00    -0.086 C 
BRANCH   7   8
ATOM      8  N   UNL     1      34.265 -13.560 -23.395  0.00  0.00    +0.380 N 
ATOM      9  H   UNL     1      33.592 -12.885 -23.030  0.00  0.00    -0.089 HD
ATOM     10  H   UNL     1      33.945 -13.902 -24.302  0.00  0.00    -0.089 HD
ATOM     11  H   UNL     1      35.174 -13.111 -23.503  0.00  0.00    -0.089 HD
ENDBRANCH   7   8
ENDBRANCH   1   7
TORSDOF 2
ENDMDL
MODEL 7
REMARK VINA RESULT:      -5.0      2.970      4.605
REMARK  Name = 448748
REMARK  2 active torsions:
REMARK  status: ('A' for Active; 'I' for Inactive)
REMARK    1  A    between atoms: C_1  and  C_7
REMARK    2  A    between atoms: C_7  and  N_8
REMARK                            x       y       z     vdW  Elec       q    Type
REMARK                         _______ _______ _______ _____ _____    ______ ____
ROOT
ATOM      1  C   UNL     1      35.407 -18.280 -22.911  0.00  0.00    -0.022 C 
ATOM      2  C   UNL     1      34.590 -18.754 -24.121  0.00  0.00    -0.002 C 
ATOM      3  C   UNL     1      34.927 -16.902 -22.435  0.00  0.00    -0.002 C 
ATOM      4  C   UNL     1      34.608 -17.726 -25.250  0.00  0.00    -0.000 C 
ATOM      5  C   UNL     1      34.944 -15.877 -23.567  0.00  0.00    -0.000 C 
ATOM      6  C   UNL     1      34.139 -16.356 -24.771  0.00  0.00    -0.000 C 
ENDROOT
BRANCH   1   7
ATOM      7  C   UNL     1      35.331 -19.299 -21.776  0.00  0.00    -0.086 C 
BRANCH   7   8
ATOM      8  N   UNL     1      36.013 -18.741 -20.591  0.00  0.00    +0.380 N 
ATOM      9  H   UNL     1      35.339 -18.228 -20.021  0.00  0.00    -0.089 HD
ATOM     10  H   UNL     1      36.754 -18.107 -20.894  0.00  0.00    -0.089 HD
ATOM     11  H   UNL     1      36.417 -19.499 -20.043  0.00  0.00    -0.089 HD
ENDBRANCH   7   8
ENDBRANCH   1   7
TORSDOF 2
ENDMDL
MODEL 8
REMARK VINA RESULT:      -4.9      2.828      3.888
REMARK  Name = 448748
REMARK  2 active torsions:
REMARK  status: ('A' for Active; 'I' for Inactive)
REMARK    1  A    between atoms: C_1  and  C_7
REMARK    2  A    between atoms: C_7  and  N_8
REMARK                            x       y       z     vdW  Elec       q    Type
REMARK                         _______ _______ _______ _____ _____    ______ ____
ROOT
ATOM      1  C   UNL     1      35.141 -16.424 -22.963  0.00  0.00    -0.022 C 
ATOM      2  C   UNL     1      34.764 -16.893 -21.551  0.00  0.00    -0.002 C 
ATOM      3  C   UNL     1      34.682 -17.442 -24.016  0.00  0.00    -0.002 C 
ATOM      4  C   UNL     1      35.301 -18.292 -21.259  0.00  0.00    -0.000 C 
ATOM      5  C   UNL     1      35.219 -18.841 -23.721  0.00  0.00    -0.000 C 
ATOM      6  C   UNL     1      34.850 -19.299 -22.313  0.00  0.00    -0.000 C 
ENDROOT
BRANCH   1   7
ATOM      7  C   UNL     1      34.549 -15.047 -23.250  0.00  0.00    -0.086 C 
BRANCH   7   8
ATOM      8  N   UNL     1      33.573 -15.171 -24.352  0.00  0.00    +0.380 N 
ATOM      9  H   UNL     1      32.642 -15.330 -23.965  0.00  0.00    -0.089 HD
ATOM     10  H   UNL     1      33.833 -15.958 -24.948  0.00  0.00    -0.089 HD
ATOM     11  H   UNL     1      33.571 -14.313 -24.903  0.00  0.00    -0.089 HD
ENDBRANCH   7   8
ENDBRANCH   1   7
TORSDOF 2
ENDMDL
MODEL 9
REMARK VINA RESULT:      -4.8      4.885      5.900
REMARK  Name = 448748
REMARK  2 active torsions:
REMARK  status: ('A' for Active; 'I' for Inactive)
REMARK    1  A    between atoms: C_1  and  C_7
REMARK    2  A    between atoms: C_7  and  N_8
REMARK                            x       y       z     vdW  Elec       q    Type
REMARK                         _______ _______ _______ _____ _____    ______ ____
ROOT
ATOM      1  C   UNL     1      33.163 -14.561 -23.023  0.00  0.00    -0.022 C 
ATOM      2  C   UNL     1      34.590 -15.118 -22.917  0.00  0.00    -0.002 C 
ATOM      3  C   UNL     1      32.735 -13.904 -21.703  0.00  0.00    -0.002 C 
ATOM      4  C   UNL     1      34.736 -16.072 -21.734  0.00  0.00    -0.000 C 
ATOM      5  C   UNL     1      32.883 -14.860 -20.523  0.00  0.00    -0.000 C 
ATOM      6  C   UNL     1      34.300 -15.419 -20.426  0.00  0.00    -0.000 C 
ENDROOT
BRANCH   1   7
ATOM      7  C   UNL     1      33.056 -13.569 -24.179  0.00  0.00    -0.086 C 
BRANCH   7   8
ATOM      8  N   UNL     1      34.052 -12.497 -23.977  0.00  0.00    +0.380 N 
ATOM      9  H   UNL     1      34.952 -12.793 -24.358  0.00  0.00    -0.089 HD
ATOM     10  H   UNL     1      34.151 -12.309 -22.979  0.00  0.00    -0.089 HD
ATOM     11  H   UNL     1      33.743 -11.651 -24.454  0.00  0.00    -0.089 HD
ENDBRANCH   7   8
ENDBRANCH   1   7
TORSDOF 2
ENDMDL
