MODEL 1
REMARK VINA RESULT:      -9.0      0.000      0.000
REMARK  Name = 11295
REMARK  5 active torsions:
REMARK  status: ('A' for Active; 'I' for Inactive)
REMARK    1  A    between atoms: N_1  and  C_4
REMARK    2  A    between atoms: C_2  and  C_3
REMARK    3  A    between atoms: C_2  and  C_11
REMARK    4  A    between atoms: C_2  and  C_20
REMARK    5  A    between atoms: C_12  and  N_17
REMARK                            x       y       z     vdW  Elec       q    Type
REMARK                         _______ _______ _______ _____ _____    ______ ____
ROOT
ATOM      1  C   UNL     1      34.628 -22.996 -16.597  0.00  0.00    +0.067 C 
ENDROOT
BRANCH   1   2
ATOM      2  C   UNL     1      35.556 -23.558 -15.805  0.00  0.00    -0.014 C 
ATOM      3  C   UNL     1      37.512 -24.743 -14.142  0.00  0.00    +0.048 C 
ATOM      4  C   UNL     1      36.435 -22.724 -15.000  0.00  0.00    -0.002 C 
ATOM      5  C   UNL     1      35.690 -25.006 -15.749  0.00  0.00    -0.002 C 
ATOM      6  C   UNL     1      37.369 -23.265 -14.205  0.00  0.00    +0.014 C 
ATOM      7  C   UNL     1      36.610 -25.588 -14.968  0.00  0.00    +0.014 C 
BRANCH   3   8
ATOM      8  N   UNL     1      38.400 -25.281 -13.385  0.00  0.00    -0.304 N 
ATOM      9  C   UNL     1      39.793 -25.496 -13.854  0.00  0.00    +0.112 C 
ATOM     10  C   UNL     1      38.081 -25.716 -12.001  0.00  0.00    +0.112 C 
ENDBRANCH   3   8
ENDBRANCH   1   2
BRANCH   1  11
ATOM     11  C   UNL     1      33.198 -23.145 -16.221  0.00  0.00    -0.014 C 
ATOM     12  C   UNL     1      30.545 -23.421 -15.523  0.00  0.00    +0.048 C 
ATOM     13  C   UNL     1      32.244 -23.143 -17.216  0.00  0.00    -0.002 C 
ATOM     14  C   UNL     1      32.871 -23.281 -14.887  0.00  0.00    -0.002 C 
ATOM     15  C   UNL     1      30.902 -23.283 -16.864  0.00  0.00    +0.014 C 
ATOM     16  C   UNL     1      31.529 -23.421 -14.534  0.00  0.00    +0.014 C 
BRANCH  12  17
ATOM     17  N   UNL     1      29.187 -23.564 -15.166  0.00  0.00    -0.304 N 
ATOM     18  C   UNL     1      28.259 -22.469 -15.363  0.00  0.00    +0.112 C 
ATOM     19  C   UNL     1      28.701 -24.812 -14.611  0.00  0.00    +0.112 C 
ENDBRANCH  12  17
ENDBRANCH   1  11
BRANCH   1  20
ATOM     20  C   UNL     1      35.086 -22.258 -17.803  0.00  0.00    -0.014 C 
ATOM     21  C   UNL     1      34.173 -21.980 -18.799  0.00  0.00    -0.004 C 
ATOM     22  C   UNL     1      36.408 -21.875 -17.888  0.00  0.00    -0.004 C 
ATOM     23  C   UNL     1      34.602 -21.286 -19.931  0.00  0.00    -0.000 C 
ATOM     24  C   UNL     1      36.837 -21.182 -19.019  0.00  0.00    -0.000 C 
ATOM     25  C   UNL     1      35.935 -20.888 -20.041  0.00  0.00    -0.000 C 
ENDBRANCH   1  20
TORSDOF 5
ENDMDL
MODEL 2
REMARK VINA RESULT:      -9.0      2.026      5.276
REMARK  Name = 11295
REMARK  5 active torsions:
REMARK  status: ('A' for Active; 'I' for Inactive)
REMARK    1  A    between atoms: N_1  and  C_4
REMARK    2  A    between atoms: C_2  and  C_3
REMARK    3  A    between atoms: C_2  and  C_11
REMARK    4  A    between atoms: C_2  and  C_20
REMARK    5  A    between atoms: C_12  and  N_17
REMARK                            x       y       z     vdW  Elec       q    Type
REMARK                         _______ _______ _______ _____ _____    ______ ____
ROOT
ATOM      1  C   UNL     1      34.273 -23.117 -16.362  0.00  0.00    +0.067 C 
ENDROOT
BRANCH   1   2
ATOM      2  C   UNL     1      35.257 -23.715 -15.671  0.00  0.00    -0.014 C 
ATOM      3  C   UNL     1      37.328 -24.972 -14.211  0.00  0.00    +0.048 C 
ATOM      4  C   UNL     1      35.414 -25.160 -15.719  0.00  0.00    -0.002 C 
ATOM      5  C   UNL     1      36.173 -22.919 -14.867  0.00  0.00    -0.002 C 
ATOM      6  C   UNL     1      36.387 -25.776 -15.035  0.00  0.00    +0.014 C 
ATOM      7  C   UNL     1      37.161 -23.494 -14.168  0.00  0.00    +0.014 C 
BRANCH   3   8
ATOM      8  N   UNL     1      38.269 -25.543 -13.549  0.00  0.00    -0.304 N 
ATOM      9  C   UNL     1      39.605 -25.784 -14.151  0.00  0.00    +0.112 C 
ATOM     10  C   UNL     1      38.071 -25.991 -12.147  0.00  0.00    +0.112 C 
ENDBRANCH   3   8
ENDBRANCH   1   2
BRANCH   1  11
ATOM     11  C   UNL     1      34.637 -22.331 -17.569  0.00  0.00    -0.014 C 
ATOM     12  C   UNL     1      35.313 -20.871 -19.808  0.00  0.00    +0.048 C 
ATOM     13  C   UNL     1      33.652 -22.015 -18.480  0.00  0.00    -0.002 C 
ATOM     14  C   UNL     1      35.950 -21.941 -17.738  0.00  0.00    -0.002 C 
ATOM     15  C   UNL     1      33.993 -21.276 -19.613  0.00  0.00    +0.014 C 
ATOM     16  C   UNL     1      36.292 -21.203 -18.872  0.00  0.00    +0.014 C 
BRANCH  12  17
ATOM     17  N   UNL     1      35.659 -20.123 -20.954  0.00  0.00    -0.304 N 
ATOM     18  C   UNL     1      34.682 -19.888 -21.998  0.00  0.00    +0.112 C 
ATOM     19  C   UNL     1      36.991 -19.569 -21.094  0.00  0.00    +0.112 C 
ENDBRANCH  12  17
ENDBRANCH   1  11
BRANCH   1  20
ATOM     20  C   UNL     1      32.876 -23.279 -15.880  0.00  0.00    -0.014 C 
ATOM     21  C   UNL     1      31.860 -23.387 -16.806  0.00  0.00    -0.004 C 
ATOM     22  C   UNL     1      32.641 -23.315 -14.522  0.00  0.00    -0.004 C 
ATOM     23  C   UNL     1      30.549 -23.539 -16.354  0.00  0.00    -0.000 C 
ATOM     24  C   UNL     1      31.330 -23.466 -14.069  0.00  0.00    -0.000 C 
ATOM     25  C   UNL     1      30.284 -23.578 -14.984  0.00  0.00    -0.000 C 
ENDBRANCH   1  20
TORSDOF 5
ENDMDL
MODEL 3
REMARK VINA RESULT:      -8.9      0.247      6.417
REMARK  Name = 11295
REMARK  5 active torsions:
REMARK  status: ('A' for Active; 'I' for Inactive)
REMARK    1  A    between atoms: N_1  and  C_4
REMARK    2  A    between atoms: C_2  and  C_3
REMARK    3  A    between atoms: C_2  and  C_11
REMARK    4  A    between atoms: C_2  and  C_20
REMARK    5  A    between atoms: C_12  and  N_17
REMARK                            x       y       z     vdW  Elec       q    Type
REMARK                         _______ _______ _______ _____ _____    ______ ____
ROOT
ATOM      1  C   UNL     1      34.619 -22.996 -16.660  0.00  0.00    +0.067 C 
ENDROOT
BRANCH   1   2
ATOM      2  C   UNL     1      33.334 -23.117 -16.287  0.00  0.00    -0.014 C 
ATOM      3  C   UNL     1      30.630 -23.368 -15.498  0.00  0.00    +0.048 C 
ATOM      4  C   UNL     1      32.288 -23.243 -17.289  0.00  0.00    -0.002 C 
ATOM      5  C   UNL     1      32.981 -23.121 -14.875  0.00  0.00    -0.002 C 
ATOM      6  C   UNL     1      31.001 -23.363 -16.938  0.00  0.00    +0.014 C 
ATOM      7  C   UNL     1      31.706 -23.238 -14.479  0.00  0.00    +0.014 C 
BRANCH   3   8
ATOM      8  N   UNL     1      29.402 -23.483 -15.140  0.00  0.00    -0.304 N 
ATOM      9  C   UNL     1      28.857 -24.771 -14.640  0.00  0.00    +0.112 C 
ATOM     10  C   UNL     1      28.463 -22.334 -15.206  0.00  0.00    +0.112 C 
ENDBRANCH   3   8
ENDBRANCH   1   2
BRANCH   1  11
ATOM     11  C   UNL     1      35.662 -23.626 -15.810  0.00  0.00    -0.014 C 
ATOM     12  C   UNL     1      37.598 -24.795 -14.232  0.00  0.00    +0.048 C 
ATOM     13  C   UNL     1      35.675 -24.998 -15.679  0.00  0.00    -0.002 C 
ATOM     14  C   UNL     1      36.585 -22.817 -15.179  0.00  0.00    -0.002 C 
ATOM     15  C   UNL     1      36.654 -25.590 -14.881  0.00  0.00    +0.014 C 
ATOM     16  C   UNL     1      37.564 -23.408 -14.381  0.00  0.00    +0.014 C 
BRANCH  12  17
ATOM     17  N   UNL     1      38.589 -25.393 -13.425  0.00  0.00    -0.304 N 
ATOM     18  C   UNL     1      38.273 -25.833 -12.081  0.00  0.00    +0.112 C 
ATOM     19  C   UNL     1      39.932 -25.587 -13.936  0.00  0.00    +0.112 C 
ENDBRANCH  12  17
ENDBRANCH   1  11
BRANCH   1  20
ATOM     20  C   UNL     1      34.922 -22.239 -17.904  0.00  0.00    -0.014 C 
ATOM     21  C   UNL     1      36.224 -21.857 -18.150  0.00  0.00    -0.004 C 
ATOM     22  C   UNL     1      33.891 -21.943 -18.771  0.00  0.00    -0.004 C 
ATOM     23  C   UNL     1      36.509 -21.147 -19.316  0.00  0.00    -0.000 C 
ATOM     24  C   UNL     1      34.175 -21.233 -19.937  0.00  0.00    -0.000 C 
ATOM     25  C   UNL     1      35.484 -20.835 -20.210  0.00  0.00    -0.000 C 
ENDBRANCH   1  20
TORSDOF 5
ENDMDL
MODEL 4
REMARK VINA RESULT:      -8.6     12.963     16.776
REMARK  Name = 11295
REMARK  5 active torsions:
REMARK  status: ('A' for Active; 'I' for Inactive)
REMARK    1  A    between atoms: N_1  and  C_4
REMARK    2  A    between atoms: C_2  and  C_3
REMARK    3  A    between atoms: C_2  and  C_11
REMARK    4  A    between atoms: C_2  and  C_20
REMARK    5  A    between atoms: C_12  and  N_17
REMARK                            x       y       z     vdW  Elec       q    Type
REMARK                         _______ _______ _______ _____ _____    ______ ____
ROOT
ATOM      1  C   UNL     1      32.473  -9.945 -22.564  0.00  0.00    +0.067 C 
ENDROOT
BRANCH   1   2
ATOM      2  C   UNL     1      32.567  -8.799 -23.260  0.00  0.00    -0.014 C 
ATOM      3  C   UNL     1      32.762  -6.387 -24.722  0.00  0.00    +0.048 C 
ATOM      4  C   UNL     1      33.864  -8.179 -23.479  0.00  0.00    -0.002 C 
ATOM      5  C   UNL     1      31.369  -8.171 -23.797  0.00  0.00    -0.002 C 
ATOM      6  C   UNL     1      33.979  -7.036 -24.169  0.00  0.00    +0.014 C 
ATOM      7  C   UNL     1      31.439  -7.028 -24.493  0.00  0.00    +0.014 C 
BRANCH   3   8
ATOM      8  N   UNL     1      32.851  -5.292 -25.387  0.00  0.00    -0.304 N 
ATOM      9  C   UNL     1      33.784  -5.154 -26.534  0.00  0.00    +0.112 C 
ATOM     10  C   UNL     1      32.024  -4.106 -25.045  0.00  0.00    +0.112 C 
ENDBRANCH   3   8
ENDBRANCH   1   2
BRANCH   1  11
ATOM     11  C   UNL     1      32.749 -11.223 -23.270  0.00  0.00    -0.014 C 
ATOM     12  C   UNL     1      33.259 -13.594 -24.580  0.00  0.00    +0.048 C 
ATOM     13  C   UNL     1      32.241 -12.394 -22.749  0.00  0.00    -0.002 C 
ATOM     14  C   UNL     1      33.503 -11.196 -24.425  0.00  0.00    -0.002 C 
ATOM     15  C   UNL     1      32.499 -13.593 -23.411  0.00  0.00    +0.014 C 
ATOM     16  C   UNL     1      33.761 -12.396 -25.088  0.00  0.00    +0.014 C 
BRANCH  12  17
ATOM     17  N   UNL     1      33.520 -14.808 -25.252  0.00  0.00    -0.304 N 
ATOM     18  C   UNL     1      34.225 -15.881 -24.579  0.00  0.00    +0.112 C 
ATOM     19  C   UNL     1      33.074 -15.001 -26.618  0.00  0.00    +0.112 C 
ENDBRANCH  12  17
ENDBRANCH   1  11
BRANCH   1  20
ATOM     20  C   UNL     1      32.099  -9.866 -21.127  0.00  0.00    -0.014 C 
ATOM     21  C   UNL     1      32.357  -8.701 -20.436  0.00  0.00    -0.004 C 
ATOM     22  C   UNL     1      31.508 -10.960 -20.532  0.00  0.00    -0.004 C 
ATOM     23  C   UNL     1      32.005  -8.626 -19.088  0.00  0.00    -0.000 C 
ATOM     24  C   UNL     1      31.158 -10.886 -19.184  0.00  0.00    -0.000 C 
ATOM     25  C   UNL     1      31.406  -9.720 -18.461  0.00  0.00    -0.000 C 
ENDBRANCH   1  20
TORSDOF 5
ENDMDL
MODEL 5
REMARK VINA RESULT:      -8.5     13.039     16.558
REMARK  Name = 11295
REMARK  5 active torsions:
REMARK  status: ('A' for Active; 'I' for Inactive)
REMARK    1  A    between atoms: N_1  and  C_4
REMARK    2  A    between atoms: C_2  and  C_3
REMARK    3  A    between atoms: C_2  and  C_11
REMARK    4  A    between atoms: C_2  and  C_20
REMARK    5  A    between atoms: C_12  and  N_17
REMARK                            x       y       z     vdW  Elec       q    Type
REMARK                         _______ _______ _______ _____ _____    ______ ____
ROOT
ATOM      1  C   UNL     1      32.445  -9.892 -22.594  0.00  0.00    +0.067 C 
ENDROOT
BRANCH   1   2
ATOM      2  C   UNL     1      32.711 -11.044 -23.233  0.00  0.00    -0.014 C 
ATOM      3  C   UNL     1      33.266 -13.469 -24.577  0.00  0.00    +0.048 C 
ATOM      4  C   UNL     1      33.528 -11.044 -24.436  0.00  0.00    -0.002 C 
ATOM      5  C   UNL     1      32.180 -12.300 -22.725  0.00  0.00    -0.002 C 
ATOM      6  C   UNL     1      33.803 -12.181 -25.088  0.00  0.00    +0.014 C 
ATOM      7  C   UNL     1      32.430 -13.461 -23.346  0.00  0.00    +0.014 C 
BRANCH   3   8
ATOM      8  N   UNL     1      33.519 -14.571 -25.187  0.00  0.00    -0.304 N 
ATOM      9  C   UNL     1      34.192 -15.702 -24.499  0.00  0.00    +0.112 C 
ATOM     10  C   UNL     1      33.152 -14.772 -26.612  0.00  0.00    +0.112 C 
ENDBRANCH   3   8
ENDBRANCH   1   2
BRANCH   1  11
ATOM     11  C   UNL     1      32.536  -8.624 -23.363  0.00  0.00    -0.014 C 
ATOM     12  C   UNL     1      32.704  -6.270 -24.790  0.00  0.00    +0.048 C 
ATOM     13  C   UNL     1      31.374  -8.037 -23.818  0.00  0.00    -0.002 C 
ATOM     14  C   UNL     1      33.779  -8.074 -23.596  0.00  0.00    -0.002 C 
ATOM     15  C   UNL     1      31.459  -6.847 -24.539  0.00  0.00    +0.014 C 
ATOM     16  C   UNL     1      33.864  -6.883 -24.318  0.00  0.00    +0.014 C 
BRANCH  12  17
ATOM     17  N   UNL     1      32.789  -5.065 -25.519  0.00  0.00    -0.304 N 
ATOM     18  C   UNL     1      33.683  -4.958 -26.655  0.00  0.00    +0.112 C 
ATOM     19  C   UNL     1      31.976  -3.924 -25.148  0.00  0.00    +0.112 C 
ENDBRANCH  12  17
ENDBRANCH   1  11
BRANCH   1  20
ATOM     20  C   UNL     1      32.075  -9.954 -21.156  0.00  0.00    -0.014 C 
ATOM     21  C   UNL     1      32.322  -8.858 -20.357  0.00  0.00    -0.004 C 
ATOM     22  C   UNL     1      31.496 -11.106 -20.666  0.00  0.00    -0.004 C 
ATOM     23  C   UNL     1      31.975  -8.915 -19.008  0.00  0.00    -0.000 C 
ATOM     24  C   UNL     1      31.149 -11.165 -19.317  0.00  0.00    -0.000 C 
ATOM     25  C   UNL     1      31.388 -10.070 -18.487  0.00  0.00    -0.000 C 
ENDBRANCH   1  20
TORSDOF 5
ENDMDL
MODEL 6
REMARK VINA RESULT:      -8.1      8.954     12.735
REMARK  Name = 11295
REMARK  5 active torsions:
REMARK  status: ('A' for Active; 'I' for Inactive)
REMARK    1  A    between atoms: N_1  and  C_4
REMARK    2  A    between atoms: C_2  and  C_3
REMARK    3  A    between atoms: C_2  and  C_11
REMARK    4  A    between atoms: C_2  and  C_20
REMARK    5  A    between atoms: C_12  and  N_17
REMARK                            x       y       z     vdW  Elec       q    Type
REMARK                         _______ _______ _______ _____ _____    ______ ____
ROOT
ATOM      1  C   UNL     1      33.268 -14.005 -23.233  0.00  0.00    +0.067 C 
ENDROOT
BRANCH   1   2
ATOM      2  C   UNL     1      32.796 -13.066 -22.395  0.00  0.00    -0.014 C 
ATOM      3  C   UNL     1      31.798 -11.090 -20.636  0.00  0.00    +0.048 C 
ATOM      4  C   UNL     1      32.583 -13.377 -20.991  0.00  0.00    -0.002 C 
ATOM      5  C   UNL     1      32.492 -11.732 -22.891  0.00  0.00    -0.002 C 
ATOM      6  C   UNL     1      32.111 -12.456 -20.140  0.00  0.00    +0.014 C 
ATOM      7  C   UNL     1      32.019 -10.781 -22.074  0.00  0.00    +0.014 C 
BRANCH   3   8
ATOM      8  N   UNL     1      31.346 -10.192 -19.837  0.00  0.00    -0.304 N 
ATOM      9  C   UNL     1      30.281 -10.498 -18.848  0.00  0.00    +0.112 C 
ATOM     10  C   UNL     1      31.866  -8.800 -19.858  0.00  0.00    +0.112 C 
ENDBRANCH   3   8
ENDBRANCH   1   2
BRANCH   1  11
ATOM     11  C   UNL     1      33.736 -15.292 -22.656  0.00  0.00    -0.014 C 
ATOM     12  C   UNL     1      34.603 -17.680 -21.585  0.00  0.00    +0.048 C 
ATOM     13  C   UNL     1      32.989 -15.885 -21.659  0.00  0.00    -0.002 C 
ATOM     14  C   UNL     1      34.901 -15.852 -23.136  0.00  0.00    -0.002 C 
ATOM     15  C   UNL     1      33.428 -17.093 -21.118  0.00  0.00    +0.014 C 
ATOM     16  C   UNL     1      35.341 -17.061 -22.594  0.00  0.00    +0.014 C 
BRANCH  12  17
ATOM     17  N   UNL     1      35.047 -18.903 -21.038  0.00  0.00    -0.304 N 
ATOM     18  C   UNL     1      34.092 -19.927 -20.663  0.00  0.00    +0.112 C 
ATOM     19  C   UNL     1      36.463 -19.155 -20.856  0.00  0.00    +0.112 C 
ENDBRANCH  12  17
ENDBRANCH   1  11
BRANCH   1  20
ATOM     20  C   UNL     1      33.294 -13.701 -24.688  0.00  0.00    -0.014 C 
ATOM     21  C   UNL     1      33.837 -12.506 -25.108  0.00  0.00    -0.004 C 
ATOM     22  C   UNL     1      32.775 -14.625 -25.570  0.00  0.00    -0.004 C 
ATOM     23  C   UNL     1      33.863 -12.220 -26.473  0.00  0.00    -0.000 C 
ATOM     24  C   UNL     1      32.799 -14.340 -26.935  0.00  0.00    -0.000 C 
ATOM     25  C   UNL     1      33.343 -13.138 -27.387  0.00  0.00    -0.000 C 
ENDBRANCH   1  20
TORSDOF 5
ENDMDL
MODEL 7
REMARK VINA RESULT:      -7.9      9.069     12.052
REMARK  Name = 11295
REMARK  5 active torsions:
REMARK  status: ('A' for Active; 'I' for Inactive)
REMARK    1  A    between atoms: N_1  and  C_4
REMARK    2  A    between atoms: C_2  and  C_3
REMARK    3  A    between atoms: C_2  and  C_11
REMARK    4  A    between atoms: C_2  and  C_20
REMARK    5  A    between atoms: C_12  and  N_17
REMARK                            x       y       z     vdW  Elec       q    Type
REMARK                         _______ _______ _______ _____ _____    ______ ____
ROOT
ATOM      1  C   UNL     1      33.219 -13.895 -23.272  0.00  0.00    +0.067 C 
ENDROOT
BRANCH   1   2
ATOM      2  C   UNL     1      33.642 -15.065 -22.765  0.00  0.00    -0.014 C 
ATOM      3  C   UNL     1      34.538 -17.525 -21.697  0.00  0.00    +0.048 C 
ATOM      4  C   UNL     1      32.912 -15.701 -21.681  0.00  0.00    -0.002 C 
ATOM      5  C   UNL     1      34.838 -15.701 -23.297  0.00  0.00    -0.002 C 
ATOM      6  C   UNL     1      33.318 -16.867 -21.160  0.00  0.00    +0.014 C 
ATOM      7  C   UNL     1      35.280 -16.867 -22.806  0.00  0.00    +0.014 C 
BRANCH   3   8
ATOM      8  N   UNL     1      34.945 -18.643 -21.213  0.00  0.00    -0.304 N 
ATOM      9  C   UNL     1      36.390 -18.929 -21.027  0.00  0.00    +0.112 C 
ATOM     10  C   UNL     1      33.990 -19.709 -20.814  0.00  0.00    +0.112 C 
ENDBRANCH   3   8
ENDBRANCH   1   2
BRANCH   1  11
ATOM     11  C   UNL     1      32.716 -12.860 -22.330  0.00  0.00    -0.014 C 
ATOM     12  C   UNL     1      31.784 -10.942 -20.584  0.00  0.00    +0.048 C 
ATOM     13  C   UNL     1      32.464 -13.217 -21.022  0.00  0.00    -0.002 C 
ATOM     14  C   UNL     1      32.518 -11.577 -22.796  0.00  0.00    -0.002 C 
ATOM     15  C   UNL     1      31.993 -12.246 -20.139  0.00  0.00    +0.014 C 
ATOM     16  C   UNL     1      32.046 -10.606 -21.912  0.00  0.00    +0.014 C 
BRANCH  12  17
ATOM     17  N   UNL     1      31.307  -9.959 -19.690  0.00  0.00    -0.304 N 
ATOM     18  C   UNL     1      30.409 -10.323 -18.612  0.00  0.00    +0.112 C 
ATOM     19  C   UNL     1      31.721  -8.577 -19.830  0.00  0.00    +0.112 C 
ENDBRANCH  12  17
ENDBRANCH   1  11
BRANCH   1  20
ATOM     20  C   UNL     1      33.278 -13.703 -24.745  0.00  0.00    -0.014 C 
ATOM     21  C   UNL     1      33.789 -12.523 -25.242  0.00  0.00    -0.004 C 
ATOM     22  C   UNL     1      32.820 -14.712 -25.566  0.00  0.00    -0.004 C 
ATOM     23  C   UNL     1      33.845 -12.343 -26.624  0.00  0.00    -0.000 C 
ATOM     24  C   UNL     1      32.876 -14.532 -26.948  0.00  0.00    -0.000 C 
ATOM     25  C   UNL     1      33.388 -13.348 -27.478  0.00  0.00    -0.000 C 
ENDBRANCH   1  20
TORSDOF 5
ENDMDL
MODEL 8
REMARK VINA RESULT:      -7.2     11.635     14.830
REMARK  Name = 11295
REMARK  5 active torsions:
REMARK  status: ('A' for Active; 'I' for Inactive)
REMARK    1  A    between atoms: N_1  and  C_4
REMARK    2  A    between atoms: C_2  and  C_3
REMARK    3  A    between atoms: C_2  and  C_11
REMARK    4  A    between atoms: C_2  and  C_20
REMARK    5  A    between atoms: C_12  and  N_17
REMARK                            x       y       z     vdW  Elec       q    Type
REMARK                         _______ _______ _______ _____ _____    ______ ____
ROOT
ATOM      1  C   UNL     1      33.566 -11.159 -23.947  0.00  0.00    +0.067 C 
ENDROOT
BRANCH   1   2
ATOM      2  C   UNL     1      33.411 -12.300 -23.255  0.00  0.00    -0.014 C 
ATOM      3  C   UNL     1      33.090 -14.700 -21.795  0.00  0.00    +0.048 C 
ATOM      4  C   UNL     1      32.385 -12.401 -22.230  0.00  0.00    -0.002 C 
ATOM      5  C   UNL     1      34.273 -13.441 -23.526  0.00  0.00    -0.002 C 
ATOM      6  C   UNL     1      32.216 -13.529 -21.526  0.00  0.00    +0.014 C 
ATOM      7  C   UNL     1      34.138 -14.588 -22.846  0.00  0.00    +0.014 C 
BRANCH   3   8
ATOM      8  N   UNL     1      32.944 -15.792 -21.133  0.00  0.00    -0.304 N 
ATOM      9  C   UNL     1      31.726 -16.050 -20.323  0.00  0.00    +0.112 C 
ATOM     10  C   UNL     1      33.984 -16.852 -21.144  0.00  0.00    +0.112 C 
ENDBRANCH   3   8
ENDBRANCH   1   2
BRANCH   1  11
ATOM     11  C   UNL     1      33.031  -9.902 -23.363  0.00  0.00    -0.014 C 
ATOM     12  C   UNL     1      32.038  -7.570 -22.277  0.00  0.00    +0.048 C 
ATOM     13  C   UNL     1      31.670  -9.781 -23.177  0.00  0.00    -0.002 C 
ATOM     14  C   UNL     1      33.913  -8.898 -23.023  0.00  0.00    -0.002 C 
ATOM     15  C   UNL     1      31.168  -8.601 -22.628  0.00  0.00    +0.014 C 
ATOM     16  C   UNL     1      33.411  -7.717 -22.474  0.00  0.00    +0.014 C 
BRANCH  12  17
ATOM     17  N   UNL     1      31.530  -6.377 -21.721  0.00  0.00    -0.304 N 
ATOM     18  C   UNL     1      30.709  -5.488 -22.518  0.00  0.00    +0.112 C 
ATOM     19  C   UNL     1      31.813  -6.032 -20.341  0.00  0.00    +0.112 C 
ENDBRANCH  12  17
ENDBRANCH   1  11
BRANCH   1  20
ATOM     20  C   UNL     1      34.263 -11.221 -25.259  0.00  0.00    -0.014 C 
ATOM     21  C   UNL     1      33.829 -12.129 -26.201  0.00  0.00    -0.004 C 
ATOM     22  C   UNL     1      35.322 -10.369 -25.491  0.00  0.00    -0.004 C 
ATOM     23  C   UNL     1      34.482 -12.188 -27.432  0.00  0.00    -0.000 C 
ATOM     24  C   UNL     1      35.977 -10.428 -26.721  0.00  0.00    -0.000 C 
ATOM     25  C   UNL     1      35.558 -11.337 -27.692  0.00  0.00    -0.000 C 
ENDBRANCH   1  20
TORSDOF 5
ENDMDL
MODEL 9
REMARK VINA RESULT:      -7.0     11.470     15.126
REMARK  Name = 11295
REMARK  5 active torsions:
REMARK  status: ('A' for Active; 'I' for Inactive)
REMARK    1  A    between atoms: N_1  and  C_4
REMARK    2  A    between atoms: C_2  and  C_3
REMARK    3  A    between atoms: C_2  and  C_11
REMARK    4  A    between atoms: C_2  and  C_20
REMARK    5  A    between atoms: C_12  and  N_17
REMARK                            x       y       z     vdW  Elec       q    Type
REMARK                         _______ _______ _______ _____ _____    ______ ____
ROOT
ATOM      1  C   UNL     1      33.617 -11.329 -23.945  0.00  0.00    +0.067 C 
ENDROOT
BRANCH   1   2
ATOM      2  C   UNL     1      33.119 -10.191 -23.433  0.00  0.00    -0.014 C 
ATOM      3  C   UNL     1      32.074  -7.794 -22.357  0.00  0.00    +0.048 C 
ATOM      4  C   UNL     1      31.714 -10.104 -23.068  0.00  0.00    -0.002 C 
ATOM      5  C   UNL     1      33.985  -9.037 -23.240  0.00  0.00    -0.002 C 
ATOM      6  C   UNL     1      31.198  -8.978 -22.558  0.00  0.00    +0.014 C 
ATOM      7  C   UNL     1      33.510  -7.891 -22.732  0.00  0.00    +0.014 C 
BRANCH   3   8
ATOM      8  N   UNL     1      31.600  -6.705 -21.867  0.00  0.00    -0.304 N 
ATOM      9  C   UNL     1      30.719  -5.814 -22.665  0.00  0.00    +0.112 C 
ATOM     10  C   UNL     1      31.905  -6.281 -20.477  0.00  0.00    +0.112 C 
ENDBRANCH   3   8
ENDBRANCH   1   2
BRANCH   1  11
ATOM     11  C   UNL     1      33.423 -12.589 -23.182  0.00  0.00    -0.014 C 
ATOM     12  C   UNL     1      33.063 -14.927 -21.766  0.00  0.00    +0.048 C 
ATOM     13  C   UNL     1      34.212 -13.678 -23.485  0.00  0.00    -0.002 C 
ATOM     14  C   UNL     1      32.459 -12.628 -22.195  0.00  0.00    -0.002 C 
ATOM     15  C   UNL     1      34.030 -14.861 -22.769  0.00  0.00    +0.014 C 
ATOM     16  C   UNL     1      32.277 -13.811 -21.479  0.00  0.00    +0.014 C 
BRANCH  12  17
ATOM     17  N   UNL     1      32.880 -16.124 -21.041  0.00  0.00    -0.304 N 
ATOM     18  C   UNL     1      31.641 -16.366 -20.328  0.00  0.00    +0.112 C 
ATOM     19  C   UNL     1      33.922 -17.130 -21.010  0.00  0.00    +0.112 C 
ENDBRANCH  12  17
ENDBRANCH   1  11
BRANCH   1  20
ATOM     20  C   UNL     1      34.332 -11.260 -25.247  0.00  0.00    -0.014 C 
ATOM     21  C   UNL     1      35.345 -10.338 -25.402  0.00  0.00    -0.004 C 
ATOM     22  C   UNL     1      33.959 -12.121 -26.258  0.00  0.00    -0.004 C 
ATOM     23  C   UNL     1      36.017 -10.273 -26.623  0.00  0.00    -0.000 C 
ATOM     24  C   UNL     1      34.629 -12.057 -27.479  0.00  0.00    -0.000 C 
ATOM     25  C   UNL     1      35.658 -11.133 -27.662  0.00  0.00    -0.000 C 
ENDBRANCH   1  20
TORSDOF 5
ENDMDL
