MODEL 1
REMARK VINA RESULT:     -10.4      0.000      0.000
REMARK  Name = 56206
REMARK  4 active torsions:
REMARK  status: ('A' for Active; 'I' for Inactive)
REMARK    1  A    between atoms: N_3  and  C_22
REMARK    2  A    between atoms: C_4  and  N_13
REMARK    3  A    between atoms: C_12  and  C_29
REMARK    4  A    between atoms: C_29  and  O_30
REMARK                            x       y       z     vdW  Elec       q    Type
REMARK                         _______ _______ _______ _____ _____    ______ ____
ROOT
ATOM      1  F   UNL     1      30.911 -24.647 -12.960  0.00  0.00    -0.203 F 
ATOM      2  O   UNL     1      35.869 -25.197 -12.398  0.00  0.00    -0.286 OA
ATOM      3  N   UNL     1      35.416 -23.375 -16.047  0.00  0.00    -0.264 N 
ATOM      4  C   UNL     1      31.823 -23.750 -14.958  0.00  0.00    +0.077 C 
ATOM      5  C   UNL     1      32.943 -23.434 -15.733  0.00  0.00    +0.032 C 
ATOM      6  C   UNL     1      34.247 -23.689 -15.271  0.00  0.00    +0.060 C 
ATOM      7  C   UNL     1      31.979 -24.341 -13.709  0.00  0.00    +0.153 C 
ATOM      8  C   UNL     1      34.379 -24.317 -14.013  0.00  0.00    +0.055 C 
ATOM      9  C   UNL     1      33.255 -24.631 -13.236  0.00  0.00    +0.035 C 
ATOM     10  C   UNL     1      35.722 -24.679 -13.498  0.00  0.00    +0.204 C 
ATOM     11  C   UNL     1      36.650 -23.786 -15.546  0.00  0.00    +0.079 C 
ATOM     12  C   UNL     1      36.879 -24.395 -14.378  0.00  0.00    +0.129 C 
ENDROOT
BRANCH   4  13
ATOM     13  N   UNL     1      30.541 -23.469 -15.443  0.00  0.00    -0.310 N 
ATOM     14  N   UNL     1      27.832 -23.056 -16.249  0.00  0.00    +0.388 N 
ATOM     15  C   UNL     1      29.784 -24.560 -16.069  0.00  0.00    +0.068 C 
ATOM     16  C   UNL     1      29.735 -22.425 -14.801  0.00  0.00    +0.068 C 
ATOM     17  C   UNL     1      28.687 -24.001 -16.977  0.00  0.00    -0.056 C 
ATOM     18  C   UNL     1      28.638 -21.935 -15.750  0.00  0.00    -0.056 C 
ATOM     19  C   UNL     1      26.755 -22.570 -17.111  0.00  0.00    -0.101 C 
ATOM     20  H   UNL     1      27.411 -23.537 -15.455  0.00  0.00    -0.080 HD
ENDBRANCH   4  13
BRANCH   3  22
ATOM     21  F   UNL     1      35.332 -20.472 -20.800  0.00  0.00    -0.204 F 
ATOM     22  C   UNL     1      35.394 -22.628 -17.270  0.00  0.00    +0.056 C 
ATOM     23  C   UNL     1      34.250 -22.627 -18.075  0.00  0.00    +0.017 C 
ATOM     24  C   UNL     1      36.516 -21.894 -17.667  0.00  0.00    +0.017 C 
ATOM     25  C   UNL     1      34.230 -21.900 -19.265  0.00  0.00    +0.031 C 
ATOM     26  C   UNL     1      36.496 -21.168 -18.858  0.00  0.00    +0.031 C 
ATOM     27  C   UNL     1      35.353 -21.170 -19.657  0.00  0.00    +0.140 C 
ENDBRANCH   3  22
BRANCH  12  29
ATOM     28  O   UNL     1      38.966 -25.501 -14.648  0.00  0.00    -0.245 OA
ATOM     29  C   UNL     1      38.261 -24.728 -14.025  0.00  0.00    +0.342 C 
BRANCH  29  30
ATOM     30  O   UNL     1      38.621 -24.050 -12.914  0.00  0.00    -0.477 OA
ATOM     31  H   UNL     1      38.013 -23.949 -12.210  0.00  0.00    +0.295 HD
ENDBRANCH  29  30
ENDBRANCH  12  29
TORSDOF 4
ENDMDL
MODEL 2
REMARK VINA RESULT:      -9.8     11.385     14.120
REMARK  Name = 56206
REMARK  4 active torsions:
REMARK  status: ('A' for Active; 'I' for Inactive)
REMARK    1  A    between atoms: N_3  and  C_22
REMARK    2  A    between atoms: C_4  and  N_13
REMARK    3  A    between atoms: C_12  and  C_29
REMARK    4  A    between atoms: C_29  and  O_30
REMARK                            x       y       z     vdW  Elec       q    Type
REMARK                         _______ _______ _______ _____ _____    ______ ____
ROOT
ATOM      1  F   UNL     1      32.234 -15.177 -20.015  0.00  0.00    -0.203 F 
ATOM      2  O   UNL     1      30.972 -10.321 -20.161  0.00  0.00    -0.286 OA
ATOM      3  N   UNL     1      33.320 -10.901 -23.476  0.00  0.00    -0.264 N 
ATOM      4  C   UNL     1      33.324 -14.354 -21.955  0.00  0.00    +0.077 C 
ATOM      5  C   UNL     1      33.600 -13.291 -22.819  0.00  0.00    +0.032 C 
ATOM      6  C   UNL     1      33.052 -12.013 -22.604  0.00  0.00    +0.060 C 
ATOM      7  C   UNL     1      32.504 -14.163 -20.847  0.00  0.00    +0.153 C 
ATOM      8  C   UNL     1      32.247 -11.836 -21.457  0.00  0.00    +0.055 C 
ATOM      9  C   UNL     1      31.969 -12.904 -20.592  0.00  0.00    +0.035 C 
ATOM     10  C   UNL     1      31.697 -10.497 -21.131  0.00  0.00    +0.204 C 
ATOM     11  C   UNL     1      32.827  -9.653 -23.097  0.00  0.00    +0.079 C 
ATOM     12  C   UNL     1      32.070  -9.380 -22.029  0.00  0.00    +0.129 C 
ENDROOT
BRANCH   4  13
ATOM     13  N   UNL     1      33.874 -15.615 -22.207  0.00  0.00    -0.310 N 
ATOM     14  N   UNL     1      35.224 -18.071 -22.762  0.00  0.00    +0.388 N 
ATOM     15  C   UNL     1      34.362 -15.898 -23.562  0.00  0.00    +0.068 C 
ATOM     16  C   UNL     1      34.545 -16.344 -21.127  0.00  0.00    +0.068 C 
ATOM     17  C   UNL     1      34.433 -17.407 -23.805  0.00  0.00    -0.056 C 
ATOM     18  C   UNL     1      34.612 -17.840 -21.448  0.00  0.00    -0.056 C 
ATOM     19  C   UNL     1      35.330 -19.504 -23.033  0.00  0.00    -0.101 C 
ATOM     20  H   UNL     1      36.164 -17.677 -22.761  0.00  0.00    -0.080 HD
ENDBRANCH   4  13
BRANCH   3  22
ATOM     21  F   UNL     1      36.020 -11.312 -28.330  0.00  0.00    -0.204 F 
ATOM     22  C   UNL     1      34.014 -11.007 -24.725  0.00  0.00    +0.056 C 
ATOM     23  C   UNL     1      33.599 -11.935 -25.685  0.00  0.00    +0.017 C 
ATOM     24  C   UNL     1      35.111 -10.182 -24.992  0.00  0.00    +0.017 C 
ATOM     25  C   UNL     1      34.276 -12.038 -26.901  0.00  0.00    +0.031 C 
ATOM     26  C   UNL     1      35.788 -10.285 -26.208  0.00  0.00    +0.031 C 
ATOM     27  C   UNL     1      35.371 -11.213 -27.162  0.00  0.00    +0.140 C 
ENDBRANCH   3  22
BRANCH  12  29
ATOM     28  O   UNL     1      31.019  -7.336 -22.635  0.00  0.00    -0.245 OA
ATOM     29  C   UNL     1      31.635  -7.998 -21.819  0.00  0.00    +0.342 C 
BRANCH  29  30
ATOM     30  O   UNL     1      32.024  -7.581 -20.595  0.00  0.00    -0.477 OA
ATOM     31  H   UNL     1      32.082  -8.193 -19.889  0.00  0.00    +0.295 HD
ENDBRANCH  29  30
ENDBRANCH  12  29
TORSDOF 4
ENDMDL
MODEL 3
REMARK VINA RESULT:      -9.7      3.250      6.629
REMARK  Name = 56206
REMARK  4 active torsions:
REMARK  status: ('A' for Active; 'I' for Inactive)
REMARK    1  A    between atoms: N_3  and  C_22
REMARK    2  A    between atoms: C_4  and  N_13
REMARK    3  A    between atoms: C_12  and  C_29
REMARK    4  A    between atoms: C_29  and  O_30
REMARK                            x       y       z     vdW  Elec       q    Type
REMARK                         _______ _______ _______ _____ _____    ______ ____
ROOT
ATOM      1  F   UNL     1      33.663 -25.393 -12.508  0.00  0.00    -0.203 F 
ATOM      2  O   UNL     1      29.249 -24.269 -14.619  0.00  0.00    -0.286 OA
ATOM      3  N   UNL     1      32.062 -22.665 -17.139  0.00  0.00    -0.264 N 
ATOM      4  C   UNL     1      34.247 -24.167 -14.454  0.00  0.00    +0.077 C 
ATOM      5  C   UNL     1      33.853 -23.483 -15.608  0.00  0.00    +0.032 C 
ATOM      6  C   UNL     1      32.495 -23.363 -15.958  0.00  0.00    +0.060 C 
ATOM      7  C   UNL     1      33.293 -24.735 -13.616  0.00  0.00    +0.153 C 
ATOM      8  C   UNL     1      31.545 -23.923 -15.077  0.00  0.00    +0.055 C 
ATOM      9  C   UNL     1      31.941 -24.610 -13.921  0.00  0.00    +0.035 C 
ATOM     10  C   UNL     1      30.094 -23.769 -15.350  0.00  0.00    +0.204 C 
ATOM     11  C   UNL     1      30.690 -22.500 -17.321  0.00  0.00    +0.079 C 
ATOM     12  C   UNL     1      29.714 -22.977 -16.541  0.00  0.00    +0.129 C 
ENDROOT
BRANCH   4  13
ATOM     13  N   UNL     1      35.606 -24.281 -14.143  0.00  0.00    -0.310 N 
ATOM     14  N   UNL     1      38.420 -24.301 -13.656  0.00  0.00    +0.388 N 
ATOM     15  C   UNL     1      36.540 -24.594 -15.232  0.00  0.00    +0.068 C 
ATOM     16  C   UNL     1      36.164 -23.502 -13.033  0.00  0.00    +0.068 C 
ATOM     17  C   UNL     1      37.837 -25.183 -14.674  0.00  0.00    -0.056 C 
ATOM     18  C   UNL     1      37.475 -24.125 -12.547  0.00  0.00    -0.056 C 
ATOM     19  C   UNL     1      39.687 -24.847 -13.169  0.00  0.00    -0.101 C 
ATOM     20  H   UNL     1      38.607 -23.391 -14.076  0.00  0.00    -0.080 HD
ENDBRANCH   4  13
BRANCH   3  22
ATOM     21  F   UNL     1      35.497 -20.764 -21.090  0.00  0.00    -0.204 F 
ATOM     22  C   UNL     1      32.946 -22.176 -18.156  0.00  0.00    +0.056 C 
ATOM     23  C   UNL     1      34.270 -22.624 -18.212  0.00  0.00    +0.017 C 
ATOM     24  C   UNL     1      32.491 -21.248 -19.098  0.00  0.00    +0.017 C 
ATOM     25  C   UNL     1      35.130 -22.147 -19.202  0.00  0.00    +0.031 C 
ATOM     26  C   UNL     1      33.352 -20.772 -20.087  0.00  0.00    +0.031 C 
ATOM     27  C   UNL     1      34.671 -21.221 -20.140  0.00  0.00    +0.140 C 
ENDBRANCH   3  22
BRANCH  12  29
ATOM     28  O   UNL     1      27.779 -21.624 -16.819  0.00  0.00    -0.245 OA
ATOM     29  C   UNL     1      28.326 -22.708 -16.921  0.00  0.00    +0.342 C 
BRANCH  29  30
ATOM     30  O   UNL     1      27.758 -23.838 -17.393  0.00  0.00    -0.477 OA
ATOM     31  H   UNL     1      26.872 -23.825 -17.697  0.00  0.00    +0.295 HD
ENDBRANCH  29  30
ENDBRANCH  12  29
TORSDOF 4
ENDMDL
MODEL 4
REMARK VINA RESULT:      -8.7     11.880     14.189
REMARK  Name = 56206
REMARK  4 active torsions:
REMARK  status: ('A' for Active; 'I' for Inactive)
REMARK    1  A    between atoms: N_3  and  C_22
REMARK    2  A    between atoms: C_4  and  N_13
REMARK    3  A    between atoms: C_12  and  C_29
REMARK    4  A    between atoms: C_29  and  O_30
REMARK                            x       y       z     vdW  Elec       q    Type
REMARK                         _______ _______ _______ _____ _____    ______ ____
ROOT
ATOM      1  F   UNL     1      31.316  -9.552 -19.272  0.00  0.00    -0.203 F 
ATOM      2  O   UNL     1      32.064 -14.511 -19.058  0.00  0.00    -0.286 OA
ATOM      3  N   UNL     1      32.783 -13.503 -22.971  0.00  0.00    -0.264 N 
ATOM      4  C   UNL     1      31.879 -10.148 -21.498  0.00  0.00    +0.077 C 
ATOM      5  C   UNL     1      32.241 -11.130 -22.425  0.00  0.00    +0.032 C 
ATOM      6  C   UNL     1      32.411 -12.473 -22.038  0.00  0.00    +0.060 C 
ATOM      7  C   UNL     1      31.663 -10.487 -20.166  0.00  0.00    +0.153 C 
ATOM      8  C   UNL     1      32.159 -12.797 -20.687  0.00  0.00    +0.055 C 
ATOM      9  C   UNL     1      31.797 -11.811 -19.759  0.00  0.00    +0.035 C 
ATOM     10  C   UNL     1      32.249 -14.205 -20.229  0.00  0.00    +0.204 C 
ATOM     11  C   UNL     1      32.800 -14.816 -22.505  0.00  0.00    +0.079 C 
ATOM     12  C   UNL     1      32.564 -15.227 -21.253  0.00  0.00    +0.129 C 
ENDROOT
BRANCH   4  13
ATOM     13  N   UNL     1      31.733  -8.821 -21.913  0.00  0.00    -0.310 N 
ATOM     14  N   UNL     1      31.681  -6.121 -22.846  0.00  0.00    +0.388 N 
ATOM     15  C   UNL     1      32.542  -7.795 -21.244  0.00  0.00    +0.068 C 
ATOM     16  C   UNL     1      31.364  -8.531 -23.302  0.00  0.00    +0.068 C 
ATOM     17  C   UNL     1      31.913  -6.411 -21.426  0.00  0.00    -0.056 C 
ATOM     18  C   UNL     1      30.774  -7.123 -23.418  0.00  0.00    -0.056 C 
ATOM     19  C   UNL     1      31.131  -4.776 -23.011  0.00  0.00    -0.101 C 
ATOM     20  H   UNL     1      32.572  -6.164 -23.341  0.00  0.00    -0.080 HD
ENDBRANCH   4  13
BRANCH   3  22
ATOM     21  F   UNL     1      34.333 -12.550 -28.235  0.00  0.00    -0.204 F 
ATOM     22  C   UNL     1      33.183 -13.257 -24.325  0.00  0.00    +0.056 C 
ATOM     23  C   UNL     1      33.849 -12.074 -24.660  0.00  0.00    +0.017 C 
ATOM     24  C   UNL     1      32.909 -14.200 -25.321  0.00  0.00    +0.017 C 
ATOM     25  C   UNL     1      34.236 -11.835 -25.978  0.00  0.00    +0.031 C 
ATOM     26  C   UNL     1      33.296 -13.961 -26.640  0.00  0.00    +0.031 C 
ATOM     27  C   UNL     1      33.961 -12.779 -26.969  0.00  0.00    +0.140 C 
ENDBRANCH   3  22
BRANCH  12  29
ATOM     28  O   UNL     1      33.664 -17.327 -21.081  0.00  0.00    -0.245 OA
ATOM     29  C   UNL     1      32.652 -16.659 -20.963  0.00  0.00    +0.342 C 
BRANCH  29  30
ATOM     30  O   UNL     1      31.450 -17.113 -20.550  0.00  0.00    -0.477 OA
ATOM     31  H   UNL     1      30.979 -16.654 -19.884  0.00  0.00    +0.295 HD
ENDBRANCH  29  30
ENDBRANCH  12  29
TORSDOF 4
ENDMDL
MODEL 5
REMARK VINA RESULT:      -8.6     15.745     18.369
REMARK  Name = 56206
REMARK  4 active torsions:
REMARK  status: ('A' for Active; 'I' for Inactive)
REMARK    1  A    between atoms: N_3  and  C_22
REMARK    2  A    between atoms: C_4  and  N_13
REMARK    3  A    between atoms: C_12  and  C_29
REMARK    4  A    between atoms: C_29  and  O_30
REMARK                            x       y       z     vdW  Elec       q    Type
REMARK                         _______ _______ _______ _____ _____    ______ ____
ROOT
ATOM      1  F   UNL     1      31.541  -3.878 -22.693  0.00  0.00    -0.203 F 
ATOM      2  O   UNL     1      31.455  -7.720 -19.463  0.00  0.00    -0.286 OA
ATOM      3  N   UNL     1      32.989  -9.290 -22.930  0.00  0.00    -0.264 N 
ATOM      4  C   UNL     1      32.380  -5.708 -23.948  0.00  0.00    +0.077 C 
ATOM      5  C   UNL     1      32.740  -7.058 -24.013  0.00  0.00    +0.032 C 
ATOM      6  C   UNL     1      32.627  -7.899 -22.891  0.00  0.00    +0.060 C 
ATOM      7  C   UNL     1      31.887  -5.171 -22.764  0.00  0.00    +0.153 C 
ATOM      8  C   UNL     1      32.097  -7.337 -21.708  0.00  0.00    +0.055 C 
ATOM      9  C   UNL     1      31.739  -5.984 -21.644  0.00  0.00    +0.035 C 
ATOM     10  C   UNL     1      31.885  -8.186 -20.510  0.00  0.00    +0.204 C 
ATOM     11  C   UNL     1      32.719 -10.057 -21.798  0.00  0.00    +0.079 C 
ATOM     12  C   UNL     1      32.209  -9.625 -20.639  0.00  0.00    +0.129 C 
ENDROOT
BRANCH   4  13
ATOM     13  N   UNL     1      32.519  -4.897 -25.079  0.00  0.00    -0.310 N 
ATOM     14  N   UNL     1      32.691  -3.432 -27.525  0.00  0.00    +0.388 N 
ATOM     15  C   UNL     1      33.425  -5.345 -26.144  0.00  0.00    +0.068 C 
ATOM     16  C   UNL     1      31.398  -4.058 -25.513  0.00  0.00    +0.068 C 
ATOM     17  C   UNL     1      33.857  -4.162 -27.014  0.00  0.00    -0.056 C 
ATOM     18  C   UNL     1      31.894  -2.917 -26.405  0.00  0.00    -0.056 C 
ATOM     19  C   UNL     1      33.114  -2.338 -28.400  0.00  0.00    -0.101 C 
ATOM     20  H   UNL     1      32.115  -4.072 -28.072  0.00  0.00    -0.080 HD
ENDBRANCH   4  13
BRANCH   3  22
ATOM     21  F   UNL     1      35.558 -11.736 -27.224  0.00  0.00    -0.204 F 
ATOM     22  C   UNL     1      33.651  -9.920 -24.035  0.00  0.00    +0.056 C 
ATOM     23  C   UNL     1      34.861  -9.410 -24.514  0.00  0.00    +0.017 C 
ATOM     24  C   UNL     1      33.090 -11.048 -24.640  0.00  0.00    +0.017 C 
ATOM     25  C   UNL     1      35.504 -10.022 -25.590  0.00  0.00    +0.031 C 
ATOM     26  C   UNL     1      33.733 -11.661 -25.716  0.00  0.00    +0.031 C 
ATOM     27  C   UNL     1      34.940 -11.148 -26.191  0.00  0.00    +0.140 C 
ENDBRANCH   3  22
BRANCH  12  29
ATOM     28  O   UNL     1      31.611 -11.731 -19.712  0.00  0.00    -0.245 OA
ATOM     29  C   UNL     1      32.019 -10.594 -19.558  0.00  0.00    +0.342 C 
BRANCH  29  30
ATOM     30  O   UNL     1      32.364 -10.032 -18.380  0.00  0.00    -0.477 OA
ATOM     31  H   UNL     1      32.645  -9.139 -18.351  0.00  0.00    +0.295 HD
ENDBRANCH  29  30
ENDBRANCH  12  29
TORSDOF 4
ENDMDL
MODEL 6
REMARK VINA RESULT:      -8.3     12.500     14.777
REMARK  Name = 56206
REMARK  4 active torsions:
REMARK  status: ('A' for Active; 'I' for Inactive)
REMARK    1  A    between atoms: N_3  and  C_22
REMARK    2  A    between atoms: C_4  and  N_13
REMARK    3  A    between atoms: C_12  and  C_29
REMARK    4  A    between atoms: C_29  and  O_30
REMARK                            x       y       z     vdW  Elec       q    Type
REMARK                         _______ _______ _______ _____ _____    ______ ____
ROOT
ATOM      1  F   UNL     1      30.886  -9.474 -19.500  0.00  0.00    -0.203 F 
ATOM      2  O   UNL     1      32.194 -14.309 -19.838  0.00  0.00    -0.286 OA
ATOM      3  N   UNL     1      33.408 -12.636 -23.384  0.00  0.00    -0.264 N 
ATOM      4  C   UNL     1      31.871  -9.658 -21.650  0.00  0.00    +0.077 C 
ATOM      5  C   UNL     1      32.497 -10.442 -22.623  0.00  0.00    +0.032 C 
ATOM      6  C   UNL     1      32.766 -11.806 -22.401  0.00  0.00    +0.060 C 
ATOM      7  C   UNL     1      31.486 -10.220 -20.437  0.00  0.00    +0.153 C 
ATOM      8  C   UNL     1      32.340 -12.360 -21.174  0.00  0.00    +0.055 C 
ATOM      9  C   UNL     1      31.714 -11.572 -20.198  0.00  0.00    +0.035 C 
ATOM     10  C   UNL     1      32.527 -13.807 -20.905  0.00  0.00    +0.204 C 
ATOM     11  C   UNL     1      33.511 -13.998 -23.107  0.00  0.00    +0.079 C 
ATOM     12  C   UNL     1      33.128 -14.620 -21.986  0.00  0.00    +0.129 C 
ENDROOT
BRANCH   4  13
ATOM     13  N   UNL     1      31.632  -8.302 -21.899  0.00  0.00    -0.310 N 
ATOM     14  N   UNL     1      31.389  -5.519 -22.495  0.00  0.00    +0.388 N 
ATOM     15  C   UNL     1      32.391  -7.313 -21.123  0.00  0.00    +0.068 C 
ATOM     16  C   UNL     1      31.212  -7.872 -23.236  0.00  0.00    +0.068 C 
ATOM     17  C   UNL     1      31.673  -5.962 -21.125  0.00  0.00    -0.056 C 
ATOM     18  C   UNL     1      30.532  -6.502 -23.170  0.00  0.00    -0.056 C 
ATOM     19  C   UNL     1      30.751  -4.203 -22.487  0.00  0.00    -0.101 C 
ATOM     20  H   UNL     1      32.268  -5.444 -23.006  0.00  0.00    -0.080 HD
ENDBRANCH   4  13
BRANCH   3  22
ATOM     21  F   UNL     1      35.666 -10.725 -28.103  0.00  0.00    -0.204 F 
ATOM     22  C   UNL     1      33.989 -12.144 -24.598  0.00  0.00    +0.056 C 
ATOM     23  C   UNL     1      33.741 -12.794 -25.811  0.00  0.00    +0.017 C 
ATOM     24  C   UNL     1      34.808 -11.011 -24.578  0.00  0.00    +0.017 C 
ATOM     25  C   UNL     1      34.307 -12.316 -26.993  0.00  0.00    +0.031 C 
ATOM     26  C   UNL     1      35.374 -10.532 -25.760  0.00  0.00    +0.031 C 
ATOM     27  C   UNL     1      35.123 -11.184 -26.968  0.00  0.00    +0.140 C 
ENDBRANCH   3  22
BRANCH  12  29
ATOM     28  O   UNL     1      34.172 -16.687 -22.524  0.00  0.00    -0.245 OA
ATOM     29  C   UNL     1      33.343 -16.065 -21.884  0.00  0.00    +0.342 C 
BRANCH  29  30
ATOM     30  O   UNL     1      32.487 -16.588 -20.981  0.00  0.00    -0.477 OA
ATOM     31  H   UNL     1      32.154 -16.055 -20.287  0.00  0.00    +0.295 HD
ENDBRANCH  29  30
ENDBRANCH  12  29
TORSDOF 4
ENDMDL
MODEL 7
REMARK VINA RESULT:      -8.0     14.040     16.552
REMARK  Name = 56206
REMARK  4 active torsions:
REMARK  status: ('A' for Active; 'I' for Inactive)
REMARK    1  A    between atoms: N_3  and  C_22
REMARK    2  A    between atoms: C_4  and  N_13
REMARK    3  A    between atoms: C_12  and  C_29
REMARK    4  A    between atoms: C_29  and  O_30
REMARK                            x       y       z     vdW  Elec       q    Type
REMARK                         _______ _______ _______ _____ _____    ______ ____
ROOT
ATOM      1  F   UNL     1      31.024  -6.812 -21.108  0.00  0.00    -0.203 F 
ATOM      2  O   UNL     1      31.462 -11.665 -19.900  0.00  0.00    -0.286 OA
ATOM      3  N   UNL     1      33.168 -11.344 -23.619  0.00  0.00    -0.264 N 
ATOM      4  C   UNL     1      32.088  -7.783 -22.992  0.00  0.00    +0.077 C 
ATOM      5  C   UNL     1      32.621  -8.911 -23.624  0.00  0.00    +0.032 C 
ATOM      6  C   UNL     1      32.627 -10.168 -22.992  0.00  0.00    +0.060 C 
ATOM      7  C   UNL     1      31.536  -7.888 -21.720  0.00  0.00    +0.153 C 
ATOM      8  C   UNL     1      32.035 -10.255 -21.713  0.00  0.00    +0.055 C 
ATOM      9  C   UNL     1      31.503  -9.123 -21.080  0.00  0.00    +0.035 C 
ATOM     10  C   UNL     1      31.943 -11.564 -21.021  0.00  0.00    +0.204 C 
ATOM     11  C   UNL     1      33.008 -12.559 -22.953  0.00  0.00    +0.079 C 
ATOM     12  C   UNL     1      32.452 -12.748 -21.751  0.00  0.00    +0.129 C 
ENDROOT
BRANCH   4  13
ATOM     13  N   UNL     1      32.112  -6.546 -23.644  0.00  0.00    -0.310 N 
ATOM     14  N   UNL     1      32.335  -3.942 -24.797  0.00  0.00    +0.388 N 
ATOM     15  C   UNL     1      31.609  -5.373 -22.918  0.00  0.00    +0.068 C 
ATOM     16  C   UNL     1      33.143  -6.274 -24.649  0.00  0.00    +0.068 C 
ATOM     17  C   UNL     1      31.221  -4.261 -23.896  0.00  0.00    -0.056 C 
ATOM     18  C   UNL     1      32.708  -5.132 -25.571  0.00  0.00    -0.056 C 
ATOM     19  C   UNL     1      31.972  -2.842 -25.690  0.00  0.00    -0.101 C 
ATOM     20  H   UNL     1      33.136  -3.648 -24.240  0.00  0.00    -0.080 HD
ENDBRANCH   4  13
BRANCH   3  22
ATOM     21  F   UNL     1      36.009 -11.312 -28.409  0.00  0.00    -0.204 F 
ATOM     22  C   UNL     1      33.900 -11.336 -24.851  0.00  0.00    +0.056 C 
ATOM     23  C   UNL     1      34.955 -10.438 -25.037  0.00  0.00    +0.017 C 
ATOM     24  C   UNL     1      33.562 -12.226 -25.876  0.00  0.00    +0.017 C 
ATOM     25  C   UNL     1      35.666 -10.430 -26.238  0.00  0.00    +0.031 C 
ATOM     26  C   UNL     1      34.273 -12.217 -27.076  0.00  0.00    +0.031 C 
ATOM     27  C   UNL     1      35.326 -11.320 -27.257  0.00  0.00    +0.140 C 
ENDBRANCH   3  22
BRANCH  12  29
ATOM     28  O   UNL     1      32.165 -15.104 -21.880  0.00  0.00    -0.245 OA
ATOM     29  C   UNL     1      32.399 -14.110 -21.216  0.00  0.00    +0.342 C 
BRANCH  29  30
ATOM     30  O   UNL     1      32.645 -14.086 -19.889  0.00  0.00    -0.477 OA
ATOM     31  H   UNL     1      32.897 -14.870 -19.445  0.00  0.00    +0.295 HD
ENDBRANCH  29  30
ENDBRANCH  12  29
TORSDOF 4
ENDMDL
