MODEL 1
REMARK VINA RESULT:      -5.5      0.000      0.000
REMARK  Name = 5289105
REMARK  5 active torsions:
REMARK  status: ('A' for Active; 'I' for Inactive)
REMARK    1  A    between atoms: C_1  and  C_4
REMARK    2  A    between atoms: C_1  and  C_10
REMARK    3  A    between atoms: C_4  and  C_7
REMARK    4  A    between atoms: C_4  and  O_8
REMARK    5  A    between atoms: C_10  and  O_11
REMARK                            x       y       z     vdW  Elec       q    Type
REMARK                         _______ _______ _______ _____ _____    ______ ____
ROOT
ATOM      1  C   UNL     1      37.824 -24.872 -14.211  0.00  0.00    +0.062 C 
ATOM      2  C   UNL     1      38.046 -23.838 -15.332  0.00  0.00    +0.005 C 
ATOM      3  C   UNL     1      37.734 -24.100 -12.873  0.00  0.00    +0.005 C 
ENDROOT
BRANCH   1   4
ATOM      4  C   UNL     1      38.999 -25.884 -14.118  0.00  0.00    +0.216 C 
BRANCH   4   7
ATOM      5  O   UNL     1      40.542 -26.028 -15.903  0.00  0.00    -0.243 OA
ATOM      6  O   UNL     1      40.968 -24.549 -14.214  0.00  0.00    -0.243 OA
ATOM      7  C   UNL     1      40.297 -25.436 -14.812  0.00  0.00    +0.391 C 
ENDBRANCH   4   7
BRANCH   4   8
ATOM      8  O   UNL     1      38.611 -27.134 -14.693  0.00  0.00    -0.374 OA
ATOM      9  H   UNL     1      39.169 -27.323 -15.464  0.00  0.00    +0.211 HD
ENDBRANCH   4   8
ENDBRANCH   1   4
BRANCH   1  10
ATOM     10  C   UNL     1      36.478 -25.588 -14.466  0.00  0.00    +0.140 C 
BRANCH  10  11
ATOM     11  O   UNL     1      36.377 -26.015 -15.818  0.00  0.00    -0.382 OA
ATOM     12  H   UNL     1      36.835 -25.381 -16.393  0.00  0.00    +0.210 HD
ENDBRANCH  10  11
ENDBRANCH   1  10
TORSDOF 5
ENDMDL
MODEL 2
REMARK VINA RESULT:      -5.4      3.022      4.614
REMARK  Name = 5289105
REMARK  5 active torsions:
REMARK  status: ('A' for Active; 'I' for Inactive)
REMARK    1  A    between atoms: C_1  and  C_4
REMARK    2  A    between atoms: C_1  and  C_10
REMARK    3  A    between atoms: C_4  and  C_7
REMARK    4  A    between atoms: C_4  and  O_8
REMARK    5  A    between atoms: C_10  and  O_11
REMARK                            x       y       z     vdW  Elec       q    Type
REMARK                         _______ _______ _______ _____ _____    ______ ____
ROOT
ATOM      1  C   UNL     1      37.478 -24.274 -13.033  0.00  0.00    +0.062 C 
ATOM      2  C   UNL     1      37.212 -23.593 -14.391  0.00  0.00    +0.005 C 
ATOM      3  C   UNL     1      38.788 -25.087 -13.166  0.00  0.00    +0.005 C 
ENDROOT
BRANCH   1   4
ATOM      4  C   UNL     1      36.332 -25.245 -12.639  0.00  0.00    +0.216 C 
BRANCH   4   7
ATOM      5  O   UNL     1      35.369 -25.049 -10.489  0.00  0.00    -0.243 OA
ATOM      6  O   UNL     1      34.445 -23.858 -12.206  0.00  0.00    -0.243 OA
ATOM      7  C   UNL     1      35.279 -24.652 -11.687  0.00  0.00    +0.391 C 
ENDBRANCH   4   7
BRANCH   4   8
ATOM      8  O   UNL     1      36.874 -26.410 -12.013  0.00  0.00    -0.374 OA
ATOM      9  H   UNL     1      37.613 -26.154 -11.439  0.00  0.00    +0.211 HD
ENDBRANCH   4   8
ENDBRANCH   1   4
BRANCH   1  10
ATOM     10  C   UNL     1      37.680 -23.173 -11.966  0.00  0.00    +0.140 C 
BRANCH  10  11
ATOM     11  O   UNL     1      39.050 -23.066 -11.599  0.00  0.00    -0.382 OA
ATOM     12  H   UNL     1      39.367 -22.169 -11.790  0.00  0.00    +0.210 HD
ENDBRANCH  10  11
ENDBRANCH   1  10
TORSDOF 5
ENDMDL
MODEL 3
REMARK VINA RESULT:      -5.4      9.931     11.130
REMARK  Name = 5289105
REMARK  5 active torsions:
REMARK  status: ('A' for Active; 'I' for Inactive)
REMARK    1  A    between atoms: C_1  and  C_4
REMARK    2  A    between atoms: C_1  and  C_10
REMARK    3  A    between atoms: C_4  and  C_7
REMARK    4  A    between atoms: C_4  and  O_8
REMARK    5  A    between atoms: C_10  and  O_11
REMARK                            x       y       z     vdW  Elec       q    Type
REMARK                         _______ _______ _______ _____ _____    ______ ____
ROOT
ATOM      1  C   UNL     1      42.143 -14.323 -17.015  0.00  0.00    +0.062 C 
ATOM      2  C   UNL     1      41.040 -14.096 -18.068  0.00  0.00    +0.005 C 
ATOM      3  C   UNL     1      43.003 -13.038 -16.955  0.00  0.00    +0.005 C 
ENDROOT
BRANCH   1   4
ATOM      4  C   UNL     1      43.063 -15.516 -17.391  0.00  0.00    +0.216 C 
BRANCH   4   7
ATOM      5  O   UNL     1      41.706 -17.443 -17.571  0.00  0.00    -0.243 OA
ATOM      6  O   UNL     1      42.608 -16.567 -19.478  0.00  0.00    -0.243 OA
ATOM      7  C   UNL     1      42.391 -16.613 -18.235  0.00  0.00    +0.391 C 
ENDBRANCH   4   7
BRANCH   4   8
ATOM      8  O   UNL     1      43.569 -16.133 -16.204  0.00  0.00    -0.374 OA
ATOM      9  H   UNL     1      44.498 -16.377 -16.337  0.00  0.00    +0.211 HD
ENDBRANCH   4   8
ENDBRANCH   1   4
BRANCH   1  10
ATOM     10  C   UNL     1      41.469 -14.537 -15.641  0.00  0.00    +0.140 C 
BRANCH  10  11
ATOM     11  O   UNL     1      40.510 -15.585 -15.702  0.00  0.00    -0.382 OA
ATOM     12  H   UNL     1      40.363 -15.943 -14.812  0.00  0.00    +0.210 HD
ENDBRANCH  10  11
ENDBRANCH   1  10
TORSDOF 5
ENDMDL
MODEL 4
REMARK VINA RESULT:      -5.4      3.253      4.345
REMARK  Name = 5289105
REMARK  5 active torsions:
REMARK  status: ('A' for Active; 'I' for Inactive)
REMARK    1  A    between atoms: C_1  and  C_4
REMARK    2  A    between atoms: C_1  and  C_10
REMARK    3  A    between atoms: C_4  and  C_7
REMARK    4  A    between atoms: C_4  and  O_8
REMARK    5  A    between atoms: C_10  and  O_11
REMARK                            x       y       z     vdW  Elec       q    Type
REMARK                         _______ _______ _______ _____ _____    ______ ____
ROOT
ATOM      1  C   UNL     1      36.470 -24.422 -13.502  0.00  0.00    +0.062 C 
ATOM      2  C   UNL     1      37.215 -23.275 -14.213  0.00  0.00    +0.005 C 
ATOM      3  C   UNL     1      35.494 -25.052 -14.524  0.00  0.00    +0.005 C 
ENDROOT
BRANCH   1   4
ATOM      4  C   UNL     1      35.650 -23.911 -12.286  0.00  0.00    +0.216 C 
BRANCH   4   7
ATOM      5  O   UNL     1      36.168 -24.290 -10.011  0.00  0.00    -0.243 OA
ATOM      6  O   UNL     1      37.357 -22.704 -11.146  0.00  0.00    -0.243 OA
ATOM      7  C   UNL     1      36.479 -23.604 -11.027  0.00  0.00    +0.391 C 
ENDBRANCH   4   7
BRANCH   4   8
ATOM      8  O   UNL     1      34.660 -24.877 -11.926  0.00  0.00    -0.374 OA
ATOM      9  H   UNL     1      35.024 -25.770 -12.034  0.00  0.00    +0.211 HD
ENDBRANCH   4   8
ENDBRANCH   1   4
BRANCH   1  10
ATOM     10  C   UNL     1      37.506 -25.489 -13.078  0.00  0.00    +0.140 C 
BRANCH  10  11
ATOM     11  O   UNL     1      36.863 -26.693 -12.681  0.00  0.00    -0.382 OA
ATOM     12  H   UNL     1      36.894 -27.333 -13.411  0.00  0.00    +0.210 HD
ENDBRANCH  10  11
ENDBRANCH   1  10
TORSDOF 5
ENDMDL
MODEL 5
REMARK VINA RESULT:      -5.3      1.587      2.446
REMARK  Name = 5289105
REMARK  5 active torsions:
REMARK  status: ('A' for Active; 'I' for Inactive)
REMARK    1  A    between atoms: C_1  and  C_4
REMARK    2  A    between atoms: C_1  and  C_10
REMARK    3  A    between atoms: C_4  and  C_7
REMARK    4  A    between atoms: C_4  and  O_8
REMARK    5  A    between atoms: C_10  and  O_11
REMARK                            x       y       z     vdW  Elec       q    Type
REMARK                         _______ _______ _______ _____ _____    ______ ____
ROOT
ATOM      1  C   UNL     1      37.736 -25.379 -13.945  0.00  0.00    +0.062 C 
ATOM      2  C   UNL     1      37.167 -26.812 -13.933  0.00  0.00    +0.005 C 
ATOM      3  C   UNL     1      36.569 -24.413 -14.259  0.00  0.00    +0.005 C 
ENDROOT
BRANCH   1   4
ATOM      4  C   UNL     1      38.830 -25.201 -15.033  0.00  0.00    +0.216 C 
BRANCH   4   7
ATOM      5  O   UNL     1      40.509 -26.804 -14.583  0.00  0.00    -0.243 OA
ATOM      6  O   UNL     1      40.999 -24.596 -14.259  0.00  0.00    -0.243 OA
ATOM      7  C   UNL     1      40.256 -25.565 -14.584  0.00  0.00    +0.391 C 
ENDBRANCH   4   7
BRANCH   4   8
ATOM      8  O   UNL     1      38.852 -23.845 -15.485  0.00  0.00    -0.374 OA
ATOM      9  H   UNL     1      39.625 -23.392 -15.113  0.00  0.00    +0.211 HD
ENDBRANCH   4   8
ENDBRANCH   1   4
BRANCH   1  10
ATOM     10  C   UNL     1      38.283 -25.059 -12.535  0.00  0.00    +0.140 C 
BRANCH  10  11
ATOM     11  O   UNL     1      38.621 -23.683 -12.420  0.00  0.00    -0.382 OA
ATOM     12  H   UNL     1      38.940 -23.356 -13.276  0.00  0.00    +0.210 HD
ENDBRANCH  10  11
ENDBRANCH   1  10
TORSDOF 5
ENDMDL
MODEL 6
REMARK VINA RESULT:      -5.3      1.348      1.891
REMARK  Name = 5289105
REMARK  5 active torsions:
REMARK  status: ('A' for Active; 'I' for Inactive)
REMARK    1  A    between atoms: C_1  and  C_4
REMARK    2  A    between atoms: C_1  and  C_10
REMARK    3  A    between atoms: C_4  and  C_7
REMARK    4  A    between atoms: C_4  and  O_8
REMARK    5  A    between atoms: C_10  and  O_11
REMARK                            x       y       z     vdW  Elec       q    Type
REMARK                         _______ _______ _______ _____ _____    ______ ____
ROOT
ATOM      1  C   UNL     1      37.763 -25.127 -13.910  0.00  0.00    +0.062 C 
ATOM      2  C   UNL     1      38.343 -24.630 -12.571  0.00  0.00    +0.005 C 
ATOM      3  C   UNL     1      37.264 -26.576 -13.696  0.00  0.00    +0.005 C 
ENDROOT
BRANCH   1   4
ATOM      4  C   UNL     1      38.833 -25.135 -15.035  0.00  0.00    +0.216 C 
BRANCH   4   7
ATOM      5  O   UNL     1      40.434 -26.791 -14.500  0.00  0.00    -0.243 OA
ATOM      6  O   UNL     1      41.045 -24.595 -14.337  0.00  0.00    -0.243 OA
ATOM      7  C   UNL     1      40.246 -25.542 -14.583  0.00  0.00    +0.391 C 
ENDBRANCH   4   7
BRANCH   4   8
ATOM      8  O   UNL     1      38.927 -23.837 -15.627  0.00  0.00    -0.374 OA
ATOM      9  H   UNL     1      38.512 -23.184 -15.042  0.00  0.00    +0.211 HD
ENDBRANCH   4   8
ENDBRANCH   1   4
BRANCH   1  10
ATOM     10  C   UNL     1      36.557 -24.233 -14.281  0.00  0.00    +0.140 C 
BRANCH  10  11
ATOM     11  O   UNL     1      36.126 -24.487 -15.612  0.00  0.00    -0.382 OA
ATOM     12  H   UNL     1      36.883 -24.771 -16.149  0.00  0.00    +0.210 HD
ENDBRANCH  10  11
ENDBRANCH   1  10
TORSDOF 5
ENDMDL
MODEL 7
REMARK VINA RESULT:      -5.3      2.270      2.608
REMARK  Name = 5289105
REMARK  5 active torsions:
REMARK  status: ('A' for Active; 'I' for Inactive)
REMARK    1  A    between atoms: C_1  and  C_4
REMARK    2  A    between atoms: C_1  and  C_10
REMARK    3  A    between atoms: C_4  and  C_7
REMARK    4  A    between atoms: C_4  and  O_8
REMARK    5  A    between atoms: C_10  and  O_11
REMARK                            x       y       z     vdW  Elec       q    Type
REMARK                         _______ _______ _______ _____ _____    ______ ____
ROOT
ATOM      1  C   UNL     1      36.796 -24.299 -12.651  0.00  0.00    +0.062 C 
ATOM      2  C   UNL     1      36.674 -23.787 -14.101  0.00  0.00    +0.005 C 
ATOM      3  C   UNL     1      37.450 -23.176 -11.812  0.00  0.00    +0.005 C 
ENDROOT
BRANCH   1   4
ATOM      4  C   UNL     1      37.688 -25.567 -12.560  0.00  0.00    +0.216 C 
BRANCH   4   7
ATOM      5  O   UNL     1      38.577 -26.601 -14.491  0.00  0.00    -0.243 OA
ATOM      6  O   UNL     1      39.724 -24.854 -13.567  0.00  0.00    -0.243 OA
ATOM      7  C   UNL     1      38.770 -25.678 -13.648  0.00  0.00    +0.391 C 
ENDBRANCH   4   7
BRANCH   4   8
ATOM      8  O   UNL     1      36.875 -26.740 -12.638  0.00  0.00    -0.374 OA
ATOM      9  H   UNL     1      36.180 -26.609 -13.303  0.00  0.00    +0.211 HD
ENDBRANCH   4   8
ENDBRANCH   1   4
BRANCH   1  10
ATOM     10  C   UNL     1      35.374 -24.565 -12.107  0.00  0.00    +0.140 C 
BRANCH  10  11
ATOM     11  O   UNL     1      35.424 -25.059 -10.774  0.00  0.00    -0.382 OA
ATOM     12  H   UNL     1      35.536 -26.023 -10.790  0.00  0.00    +0.210 HD
ENDBRANCH  10  11
ENDBRANCH   1  10
TORSDOF 5
ENDMDL
MODEL 8
REMARK VINA RESULT:      -5.3      8.727     10.381
REMARK  Name = 5289105
REMARK  5 active torsions:
REMARK  status: ('A' for Active; 'I' for Inactive)
REMARK    1  A    between atoms: C_1  and  C_4
REMARK    2  A    between atoms: C_1  and  C_10
REMARK    3  A    between atoms: C_4  and  C_7
REMARK    4  A    between atoms: C_4  and  O_8
REMARK    5  A    between atoms: C_10  and  O_11
REMARK                            x       y       z     vdW  Elec       q    Type
REMARK                         _______ _______ _______ _____ _____    ______ ____
ROOT
ATOM      1  C   UNL     1      29.900 -23.528 -15.482  0.00  0.00    +0.062 C 
ATOM      2  C   UNL     1      30.568 -23.199 -14.131  0.00  0.00    +0.005 C 
ATOM      3  C   UNL     1      30.726 -22.838 -16.593  0.00  0.00    +0.005 C 
ENDROOT
BRANCH   1   4
ATOM      4  C   UNL     1      28.442 -22.996 -15.549  0.00  0.00    +0.216 C 
BRANCH   4   7
ATOM      5  O   UNL     1      27.610 -21.665 -17.317  0.00  0.00    -0.243 OA
ATOM      6  O   UNL     1      27.710 -23.929 -17.614  0.00  0.00    -0.243 OA
ATOM      7  C   UNL     1      27.868 -22.854 -16.969  0.00  0.00    +0.391 C 
ENDBRANCH   4   7
BRANCH   4   8
ATOM      8  O   UNL     1      28.361 -21.715 -14.920  0.00  0.00    -0.374 OA
ATOM      9  H   UNL     1      29.063 -21.140 -15.265  0.00  0.00    +0.211 HD
ENDBRANCH   4   8
ENDBRANCH   1   4
BRANCH   1  10
ATOM     10  C   UNL     1      29.956 -25.058 -15.695  0.00  0.00    +0.140 C 
BRANCH  10  11
ATOM     11  O   UNL     1      29.686 -25.751 -14.482  0.00  0.00    -0.382 OA
ATOM     12  H   UNL     1      29.083 -25.221 -13.935  0.00  0.00    +0.210 HD
ENDBRANCH  10  11
ENDBRANCH   1  10
TORSDOF 5
ENDMDL
MODEL 9
REMARK VINA RESULT:      -5.2      2.427      3.517
REMARK  Name = 5289105
REMARK  5 active torsions:
REMARK  status: ('A' for Active; 'I' for Inactive)
REMARK    1  A    between atoms: C_1  and  C_4
REMARK    2  A    between atoms: C_1  and  C_10
REMARK    3  A    between atoms: C_4  and  C_7
REMARK    4  A    between atoms: C_4  and  O_8
REMARK    5  A    between atoms: C_10  and  O_11
REMARK                            x       y       z     vdW  Elec       q    Type
REMARK                         _______ _______ _______ _____ _____    ______ ____
ROOT
ATOM      1  C   UNL     1      37.384 -24.125 -14.414  0.00  0.00    +0.062 C 
ATOM      2  C   UNL     1      38.711 -24.902 -14.303  0.00  0.00    +0.005 C 
ATOM      3  C   UNL     1      37.490 -23.192 -15.644  0.00  0.00    +0.005 C 
ENDROOT
BRANCH   1   4
ATOM      4  C   UNL     1      37.117 -23.256 -13.156  0.00  0.00    +0.216 C 
BRANCH   4   7
ATOM      5  O   UNL     1      38.911 -22.992 -11.639  0.00  0.00    -0.243 OA
ATOM      6  O   UNL     1      37.418 -24.682 -11.273  0.00  0.00    -0.243 OA
ATOM      7  C   UNL     1      37.885 -23.687 -11.895  0.00  0.00    +0.391 C 
ENDBRANCH   4   7
BRANCH   4   8
ATOM      8  O   UNL     1      35.723 -23.274 -12.839  0.00  0.00    -0.374 OA
ATOM      9  H   UNL     1      35.205 -23.158 -13.651  0.00  0.00    +0.211 HD
ENDBRANCH   4   8
ENDBRANCH   1   4
BRANCH   1  10
ATOM     10  C   UNL     1      36.243 -25.140 -14.655  0.00  0.00    +0.140 C 
BRANCH  10  11
ATOM     11  O   UNL     1      36.261 -26.169 -13.674  0.00  0.00    -0.382 OA
ATOM     12  H   UNL     1      35.661 -26.883 -13.943  0.00  0.00    +0.210 HD
ENDBRANCH  10  11
ENDBRANCH   1  10
TORSDOF 5
ENDMDL
