MODEL 1
REMARK VINA RESULT:     -10.7      0.000      0.000
REMARK  Name = 2952
REMARK  5 active torsions:
REMARK  status: ('A' for Active; 'I' for Inactive)
REMARK    1  A    between atoms: C_2  and  C_6
REMARK    2  A    between atoms: C_3  and  C_16
REMARK    3  A    between atoms: C_9  and  N_14
REMARK    4  A    between atoms: N_15  and  C_16
REMARK    5  A    between atoms: N_15  and  N_19
REMARK                            x       y       z     vdW  Elec       q    Type
REMARK                         _______ _______ _______ _____ _____    ______ ____
ROOT
ATOM      1  O   UNL     1      35.542 -22.825 -16.984  0.00  0.00    -0.456 OA
ATOM      2  C   UNL     1      34.435 -22.570 -17.724  0.00  0.00    +0.145 C 
ATOM      3  C   UNL     1      35.148 -23.648 -15.978  0.00  0.00    +0.142 C 
ATOM      4  C   UNL     1      33.339 -23.215 -17.211  0.00  0.00    +0.040 C 
ATOM      5  C   UNL     1      33.803 -23.918 -16.072  0.00  0.00    +0.038 C 
ENDROOT
BRANCH   2   6
ATOM      6  C   UNL     1      34.640 -21.702 -18.858  0.00  0.00    +0.035 C 
ATOM      7  C   UNL     1      33.546 -21.201 -19.561  0.00  0.00    +0.005 C 
ATOM      8  C   UNL     1      35.935 -21.365 -19.251  0.00  0.00    +0.005 C 
ATOM      9  C   UNL     1      35.040 -20.024 -21.050  0.00  0.00    +0.143 C 
ATOM     10  C   UNL     1      33.745 -20.361 -20.658  0.00  0.00    +0.024 C 
ATOM     11  C   UNL     1      36.135 -20.525 -20.347  0.00  0.00    +0.024 C 
BRANCH   9  14
ATOM     12  O   UNL     1      34.529 -19.326 -23.184  0.00  0.00    -0.126 OA
ATOM     13  O   UNL     1      36.132 -18.287 -22.095  0.00  0.00    -0.126 OA
ATOM     14  N   UNL     1      35.244 -19.169 -22.166  0.00  0.00    +0.058 N 
ENDBRANCH   9  14
ENDBRANCH   2   6
BRANCH   3  15
ATOM     15  C   UNL     1      36.133 -24.074 -15.043  0.00  0.00    +0.176 C 
BRANCH  15  16
ATOM     16  N   UNL     1      36.730 -23.256 -14.210  0.00  0.00    -0.118 NA
BRANCH  16  19
ATOM     17  O   UNL     1      35.198 -25.037 -10.114  0.00  0.00    -0.273 OA
ATOM     18  O   UNL     1      38.290 -22.236 -12.025  0.00  0.00    -0.251 OA
ATOM     19  N   UNL     1      36.563 -23.558 -12.907  0.00  0.00    -0.181 N 
ATOM     20  N   UNL     1      36.887 -23.561 -10.725  0.00  0.00    -0.237 N 
ATOM     21  C   UNL     1      35.549 -24.456 -12.444  0.00  0.00    +0.199 C 
ATOM     22  C   UNL     1      35.829 -24.410 -10.953  0.00  0.00    +0.251 C 
ATOM     23  C   UNL     1      37.361 -23.021 -11.905  0.00  0.00    +0.325 C 
ATOM     24  H   UNL     1      37.259 -23.364  -9.835  0.00  0.00    +0.159 HD
ENDBRANCH  16  19
ENDBRANCH  15  16
ENDBRANCH   3  15
TORSDOF 5
ENDMDL
MODEL 2
REMARK VINA RESULT:     -10.6      1.924      2.415
REMARK  Name = 2952
REMARK  5 active torsions:
REMARK  status: ('A' for Active; 'I' for Inactive)
REMARK    1  A    between atoms: C_2  and  C_6
REMARK    2  A    between atoms: C_3  and  C_16
REMARK    3  A    between atoms: C_9  and  N_14
REMARK    4  A    between atoms: N_15  and  C_16
REMARK    5  A    between atoms: N_15  and  N_19
REMARK                            x       y       z     vdW  Elec       q    Type
REMARK                         _______ _______ _______ _____ _____    ______ ____
ROOT
ATOM      1  O   UNL     1      35.018 -22.353 -17.550  0.00  0.00    -0.456 OA
ATOM      2  C   UNL     1      33.989 -22.110 -18.399  0.00  0.00    +0.145 C 
ATOM      3  C   UNL     1      34.533 -23.180 -16.588  0.00  0.00    +0.142 C 
ATOM      4  C   UNL     1      32.854 -22.767 -17.998  0.00  0.00    +0.040 C 
ATOM      5  C   UNL     1      33.207 -23.464 -16.818  0.00  0.00    +0.038 C 
ENDROOT
BRANCH   2   6
ATOM      6  C   UNL     1      34.300 -21.240 -19.508  0.00  0.00    +0.035 C 
ATOM      7  C   UNL     1      33.275 -20.598 -20.199  0.00  0.00    +0.005 C 
ATOM      8  C   UNL     1      35.628 -21.043 -19.887  0.00  0.00    +0.005 C 
ATOM      9  C   UNL     1      34.904 -19.560 -21.650  0.00  0.00    +0.143 C 
ATOM     10  C   UNL     1      33.576 -19.757 -21.271  0.00  0.00    +0.024 C 
ATOM     11  C   UNL     1      35.930 -20.202 -20.958  0.00  0.00    +0.024 C 
BRANCH   9  14
ATOM     12  O   UNL     1      35.005 -19.116 -23.907  0.00  0.00    -0.126 OA
ATOM     13  O   UNL     1      35.677 -17.565 -22.500  0.00  0.00    -0.126 OA
ATOM     14  N   UNL     1      35.211 -18.704 -22.741  0.00  0.00    +0.058 N 
ENDBRANCH   9  14
ENDBRANCH   2   6
BRANCH   3  15
ATOM     15  C   UNL     1      35.422 -23.595 -15.557  0.00  0.00    +0.176 C 
BRANCH  15  16
ATOM     16  N   UNL     1      36.467 -24.355 -15.776  0.00  0.00    -0.118 NA
BRANCH  16  19
ATOM     17  O   UNL     1      37.343 -26.502 -11.663  0.00  0.00    -0.273 OA
ATOM     18  O   UNL     1      36.700 -27.193 -16.154  0.00  0.00    -0.251 OA
ATOM     19  N   UNL     1      36.714 -25.266 -14.813  0.00  0.00    -0.181 N 
ATOM     20  N   UNL     1      37.067 -27.222 -13.856  0.00  0.00    -0.237 N 
ATOM     21  C   UNL     1      36.896 -24.910 -13.439  0.00  0.00    +0.199 C 
ATOM     22  C   UNL     1      37.131 -26.288 -12.848  0.00  0.00    +0.251 C 
ATOM     23  C   UNL     1      36.812 -26.627 -15.076  0.00  0.00    +0.325 C 
ATOM     24  H   UNL     1      37.188 -28.190 -13.724  0.00  0.00    +0.159 HD
ENDBRANCH  16  19
ENDBRANCH  15  16
ENDBRANCH   3  15
TORSDOF 5
ENDMDL
MODEL 3
REMARK VINA RESULT:     -10.4      4.809     11.523
REMARK  Name = 2952
REMARK  5 active torsions:
REMARK  status: ('A' for Active; 'I' for Inactive)
REMARK    1  A    between atoms: C_2  and  C_6
REMARK    2  A    between atoms: C_3  and  C_16
REMARK    3  A    between atoms: C_9  and  N_14
REMARK    4  A    between atoms: N_15  and  C_16
REMARK    5  A    between atoms: N_15  and  N_19
REMARK                            x       y       z     vdW  Elec       q    Type
REMARK                         _______ _______ _______ _____ _____    ______ ____
ROOT
ATOM      1  O   UNL     1      34.443 -17.547 -21.987  0.00  0.00    -0.456 OA
ATOM      2  C   UNL     1      34.661 -18.837 -22.342  0.00  0.00    +0.145 C 
ATOM      3  C   UNL     1      34.623 -16.806 -23.111  0.00  0.00    +0.142 C 
ATOM      4  C   UNL     1      34.978 -18.935 -23.672  0.00  0.00    +0.040 C 
ATOM      5  C   UNL     1      34.953 -17.612 -24.175  0.00  0.00    +0.038 C 
ENDROOT
BRANCH   2   6
ATOM      6  C   UNL     1      34.518 -19.799 -21.276  0.00  0.00    +0.035 C 
ATOM      7  C   UNL     1      33.252 -20.118 -20.789  0.00  0.00    +0.005 C 
ATOM      8  C   UNL     1      35.648 -20.411 -20.734  0.00  0.00    +0.005 C 
ATOM      9  C   UNL     1      34.244 -21.660 -19.216  0.00  0.00    +0.143 C 
ATOM     10  C   UNL     1      33.114 -21.048 -19.758  0.00  0.00    +0.024 C 
ATOM     11  C   UNL     1      35.511 -21.341 -19.703  0.00  0.00    +0.024 C 
BRANCH   9  14
ATOM     12  O   UNL     1      35.084 -22.823 -17.415  0.00  0.00    -0.126 OA
ATOM     13  O   UNL     1      33.005 -23.195 -18.029  0.00  0.00    -0.126 OA
ATOM     14  N   UNL     1      34.104 -22.607 -18.167  0.00  0.00    +0.058 N 
ENDBRANCH   9  14
ENDBRANCH   2   6
BRANCH   3  15
ATOM     15  C   UNL     1      34.452 -15.396 -23.013  0.00  0.00    +0.176 C 
BRANCH  15  16
ATOM     16  N   UNL     1      33.331 -14.788 -23.320  0.00  0.00    -0.118 NA
BRANCH  16  19
ATOM     17  O   UNL     1      33.283 -13.357 -27.820  0.00  0.00    -0.273 OA
ATOM     18  O   UNL     1      33.778 -11.955 -23.479  0.00  0.00    -0.251 OA
ATOM     19  N   UNL     1      33.379 -14.054 -24.450  0.00  0.00    -0.181 N 
ATOM     20  N   UNL     1      33.580 -12.300 -25.771  0.00  0.00    -0.237 N 
ATOM     21  C   UNL     1      33.207 -14.624 -25.751  0.00  0.00    +0.199 C 
ATOM     22  C   UNL     1      33.355 -13.375 -26.599  0.00  0.00    +0.251 C 
ATOM     23  C   UNL     1      33.601 -12.683 -24.445  0.00  0.00    +0.325 C 
ATOM     24  H   UNL     1      33.710 -11.375 -26.085  0.00  0.00    +0.159 HD
ENDBRANCH  16  19
ENDBRANCH  15  16
ENDBRANCH   3  15
TORSDOF 5
ENDMDL
MODEL 4
REMARK VINA RESULT:     -10.4      3.837      4.717
REMARK  Name = 2952
REMARK  5 active torsions:
REMARK  status: ('A' for Active; 'I' for Inactive)
REMARK    1  A    between atoms: C_2  and  C_6
REMARK    2  A    between atoms: C_3  and  C_16
REMARK    3  A    between atoms: C_9  and  N_14
REMARK    4  A    between atoms: N_15  and  C_16
REMARK    5  A    between atoms: N_15  and  N_19
REMARK                            x       y       z     vdW  Elec       q    Type
REMARK                         _______ _______ _______ _____ _____    ______ ____
ROOT
ATOM      1  O   UNL     1      36.147 -24.076 -15.263  0.00  0.00    -0.456 OA
ATOM      2  C   UNL     1      35.585 -23.070 -15.977  0.00  0.00    +0.145 C 
ATOM      3  C   UNL     1      37.491 -23.889 -15.331  0.00  0.00    +0.142 C 
ATOM      4  C   UNL     1      36.545 -22.242 -16.501  0.00  0.00    +0.040 C 
ATOM      5  C   UNL     1      37.787 -22.775 -16.080  0.00  0.00    +0.038 C 
ENDROOT
BRANCH   2   6
ATOM      6  C   UNL     1      34.143 -23.085 -16.030  0.00  0.00    +0.035 C 
ATOM      7  C   UNL     1      33.403 -23.209 -14.856  0.00  0.00    +0.005 C 
ATOM      8  C   UNL     1      33.491 -22.976 -17.258  0.00  0.00    +0.005 C 
ATOM      9  C   UNL     1      31.357 -23.115 -16.136  0.00  0.00    +0.143 C 
ATOM     10  C   UNL     1      32.009 -23.224 -14.908  0.00  0.00    +0.024 C 
ATOM     11  C   UNL     1      32.097 -22.991 -17.311  0.00  0.00    +0.024 C 
BRANCH   9  14
ATOM     12  O   UNL     1      29.308 -23.776 -15.318  0.00  0.00    -0.126 OA
ATOM     13  O   UNL     1      29.362 -22.498 -17.107  0.00  0.00    -0.126 OA
ATOM     14  N   UNL     1      29.937 -23.131 -16.190  0.00  0.00    +0.058 N 
ENDBRANCH   9  14
ENDBRANCH   2   6
BRANCH   3  15
ATOM     15  C   UNL     1      38.327 -24.822 -14.656  0.00  0.00    +0.176 C 
BRANCH  15  16
ATOM     16  N   UNL     1      38.797 -24.619 -13.448  0.00  0.00    -0.118 NA
BRANCH  16  19
ATOM     17  O   UNL     1      35.184 -25.163 -10.458  0.00  0.00    -0.273 OA
ATOM     18  O   UNL     1      38.419 -22.238 -11.886  0.00  0.00    -0.251 OA
ATOM     19  N   UNL     1      37.856 -24.433 -12.501  0.00  0.00    -0.181 N 
ATOM     20  N   UNL     1      36.675 -23.442 -10.924  0.00  0.00    -0.237 N 
ATOM     21  C   UNL     1      36.900 -25.439 -12.151  0.00  0.00    +0.199 C 
ATOM     22  C   UNL     1      36.131 -24.696 -11.075  0.00  0.00    +0.251 C 
ATOM     23  C   UNL     1      37.737 -23.248 -11.786  0.00  0.00    +0.325 C 
ATOM     24  H   UNL     1      36.349 -22.768 -10.284  0.00  0.00    +0.159 HD
ENDBRANCH  16  19
ENDBRANCH  15  16
ENDBRANCH   3  15
TORSDOF 5
ENDMDL
MODEL 5
REMARK VINA RESULT:     -10.4      5.020     11.010
REMARK  Name = 2952
REMARK  5 active torsions:
REMARK  status: ('A' for Active; 'I' for Inactive)
REMARK    1  A    between atoms: C_2  and  C_6
REMARK    2  A    between atoms: C_3  and  C_16
REMARK    3  A    between atoms: C_9  and  N_14
REMARK    4  A    between atoms: N_15  and  C_16
REMARK    5  A    between atoms: N_15  and  N_19
REMARK                            x       y       z     vdW  Elec       q    Type
REMARK                         _______ _______ _______ _____ _____    ______ ____
ROOT
ATOM      1  O   UNL     1      34.470 -17.301 -22.087  0.00  0.00    -0.456 OA
ATOM      2  C   UNL     1      34.633 -18.594 -22.459  0.00  0.00    +0.145 C 
ATOM      3  C   UNL     1      34.722 -16.551 -23.191  0.00  0.00    +0.142 C 
ATOM      4  C   UNL     1      34.986 -18.686 -23.781  0.00  0.00    +0.040 C 
ATOM      5  C   UNL     1      35.044 -17.355 -24.259  0.00  0.00    +0.038 C 
ENDROOT
BRANCH   2   6
ATOM      6  C   UNL     1      34.408 -19.566 -21.416  0.00  0.00    +0.035 C 
ATOM      7  C   UNL     1      33.115 -19.806 -20.954  0.00  0.00    +0.005 C 
ATOM      8  C   UNL     1      35.485 -20.265 -20.872  0.00  0.00    +0.005 C 
ATOM      9  C   UNL     1      33.976 -21.445 -19.401  0.00  0.00    +0.143 C 
ATOM     10  C   UNL     1      32.899 -20.746 -19.945  0.00  0.00    +0.024 C 
ATOM     11  C   UNL     1      35.269 -21.205 -19.863  0.00  0.00    +0.024 C 
BRANCH   9  14
ATOM     12  O   UNL     1      32.576 -22.726 -18.096  0.00  0.00    -0.126 OA
ATOM     13  O   UNL     1      34.747 -22.889 -17.782  0.00  0.00    -0.126 OA
ATOM     14  N   UNL     1      33.755 -22.402 -18.375  0.00  0.00    +0.058 N 
ENDBRANCH   9  14
ENDBRANCH   2   6
BRANCH   3  15
ATOM     15  C   UNL     1      34.620 -15.136 -23.072  0.00  0.00    +0.176 C 
BRANCH  15  16
ATOM     16  N   UNL     1      33.960 -14.392 -23.926  0.00  0.00    -0.118 NA
BRANCH  16  19
ATOM     17  O   UNL     1      31.094 -11.738 -21.273  0.00  0.00    -0.273 OA
ATOM     18  O   UNL     1      34.166 -11.627 -24.680  0.00  0.00    -0.251 OA
ATOM     19  N   UNL     1      33.281 -13.366 -23.374  0.00  0.00    -0.181 N 
ATOM     20  N   UNL     1      32.587 -11.306 -23.001  0.00  0.00    -0.237 N 
ATOM     21  C   UNL     1      32.344 -13.543 -22.307  0.00  0.00    +0.199 C 
ATOM     22  C   UNL     1      31.913 -12.102 -22.105  0.00  0.00    +0.251 C 
ATOM     23  C   UNL     1      33.436 -12.051 -23.795  0.00  0.00    +0.325 C 
ATOM     24  H   UNL     1      32.479 -10.329 -23.067  0.00  0.00    +0.159 HD
ENDBRANCH  16  19
ENDBRANCH  15  16
ENDBRANCH   3  15
TORSDOF 5
ENDMDL
MODEL 6
REMARK VINA RESULT:     -10.4      2.982      4.512
REMARK  Name = 2952
REMARK  5 active torsions:
REMARK  status: ('A' for Active; 'I' for Inactive)
REMARK    1  A    between atoms: C_2  and  C_6
REMARK    2  A    between atoms: C_3  and  C_16
REMARK    3  A    between atoms: C_9  and  N_14
REMARK    4  A    between atoms: N_15  and  C_16
REMARK    5  A    between atoms: N_15  and  N_19
REMARK                            x       y       z     vdW  Elec       q    Type
REMARK                         _______ _______ _______ _____ _____    ______ ____
ROOT
ATOM      1  O   UNL     1      34.112 -20.704 -20.316  0.00  0.00    -0.456 OA
ATOM      2  C   UNL     1      35.232 -20.069 -20.744  0.00  0.00    +0.145 C 
ATOM      3  C   UNL     1      34.517 -21.605 -19.383  0.00  0.00    +0.142 C 
ATOM      4  C   UNL     1      36.345 -20.548 -20.103  0.00  0.00    +0.040 C 
ATOM      5  C   UNL     1      35.881 -21.549 -19.216  0.00  0.00    +0.038 C 
ENDROOT
BRANCH   2   6
ATOM      6  C   UNL     1      35.017 -19.058 -21.751  0.00  0.00    +0.035 C 
ATOM      7  C   UNL     1      34.935 -19.419 -23.095  0.00  0.00    +0.005 C 
ATOM      8  C   UNL     1      34.892 -17.720 -21.378  0.00  0.00    +0.005 C 
ATOM      9  C   UNL     1      34.602 -17.102 -23.695  0.00  0.00    +0.143 C 
ATOM     10  C   UNL     1      34.727 -18.440 -24.068  0.00  0.00    +0.024 C 
ATOM     11  C   UNL     1      34.685 -16.742 -22.351  0.00  0.00    +0.024 C 
BRANCH   9  14
ATOM     12  O   UNL     1      34.590 -16.400 -25.888  0.00  0.00    -0.126 OA
ATOM     13  O   UNL     1      34.013 -14.967 -24.323  0.00  0.00    -0.126 OA
ATOM     14  N   UNL     1      34.391 -16.106 -24.686  0.00  0.00    +0.058 N 
ENDBRANCH   9  14
ENDBRANCH   2   6
BRANCH   3  15
ATOM     15  C   UNL     1      33.523 -22.415 -18.766  0.00  0.00    +0.176 C 
BRANCH  15  16
ATOM     16  N   UNL     1      33.804 -23.504 -18.092  0.00  0.00    -0.118 NA
BRANCH  16  19
ATOM     17  O   UNL     1      31.988 -23.164 -13.746  0.00  0.00    -0.273 OA
ATOM     18  O   UNL     1      35.902 -23.351 -16.135  0.00  0.00    -0.251 OA
ATOM     19  N   UNL     1      33.639 -23.400 -16.758  0.00  0.00    -0.181 N 
ATOM     20  N   UNL     1      34.142 -23.233 -14.617  0.00  0.00    -0.237 N 
ATOM     21  C   UNL     1      32.349 -23.352 -16.139  0.00  0.00    +0.199 C 
ATOM     22  C   UNL     1      32.769 -23.238 -14.685  0.00  0.00    +0.251 C 
ATOM     23  C   UNL     1      34.708 -23.331 -15.873  0.00  0.00    +0.325 C 
ATOM     24  H   UNL     1      34.656 -23.167 -13.779  0.00  0.00    +0.159 HD
ENDBRANCH  16  19
ENDBRANCH  15  16
ENDBRANCH   3  15
TORSDOF 5
ENDMDL
MODEL 7
REMARK VINA RESULT:     -10.4      5.123     11.140
REMARK  Name = 2952
REMARK  5 active torsions:
REMARK  status: ('A' for Active; 'I' for Inactive)
REMARK    1  A    between atoms: C_2  and  C_6
REMARK    2  A    between atoms: C_3  and  C_16
REMARK    3  A    between atoms: C_9  and  N_14
REMARK    4  A    between atoms: N_15  and  C_16
REMARK    5  A    between atoms: N_15  and  N_19
REMARK                            x       y       z     vdW  Elec       q    Type
REMARK                         _______ _______ _______ _____ _____    ______ ____
ROOT
ATOM      1  O   UNL     1      34.444 -17.173 -22.005  0.00  0.00    -0.456 OA
ATOM      2  C   UNL     1      34.601 -18.454 -22.421  0.00  0.00    +0.145 C 
ATOM      3  C   UNL     1      34.665 -16.389 -23.092  0.00  0.00    +0.142 C 
ATOM      4  C   UNL     1      34.919 -18.504 -23.754  0.00  0.00    +0.040 C 
ATOM      5  C   UNL     1      34.961 -17.159 -24.193  0.00  0.00    +0.038 C 
ENDROOT
BRANCH   2   6
ATOM      6  C   UNL     1      34.407 -19.458 -21.403  0.00  0.00    +0.035 C 
ATOM      7  C   UNL     1      35.500 -20.158 -20.896  0.00  0.00    +0.005 C 
ATOM      8  C   UNL     1      33.124 -19.728 -20.928  0.00  0.00    +0.005 C 
ATOM      9  C   UNL     1      34.028 -21.399 -19.436  0.00  0.00    +0.143 C 
ATOM     10  C   UNL     1      35.311 -21.129 -19.912  0.00  0.00    +0.024 C 
ATOM     11  C   UNL     1      32.935 -20.699 -19.944  0.00  0.00    +0.024 C 
BRANCH   9  14
ATOM     12  O   UNL     1      34.840 -22.848 -17.841  0.00  0.00    -0.126 OA
ATOM     13  O   UNL     1      32.668 -22.765 -18.178  0.00  0.00    -0.126 OA
ATOM     14  N   UNL     1      33.836 -22.387 -18.434  0.00  0.00    +0.058 N 
ENDBRANCH   9  14
ENDBRANCH   2   6
BRANCH   3  15
ATOM     15  C   UNL     1      34.561 -14.979 -22.927  0.00  0.00    +0.176 C 
BRANCH  15  16
ATOM     16  N   UNL     1      34.025 -14.190 -23.827  0.00  0.00    -0.118 NA
BRANCH  16  19
ATOM     17  O   UNL     1      30.970 -11.560 -21.370  0.00  0.00    -0.273 OA
ATOM     18  O   UNL     1      34.236 -11.429 -24.591  0.00  0.00    -0.251 OA
ATOM     19  N   UNL     1      33.301 -13.171 -23.325  0.00  0.00    -0.181 N 
ATOM     20  N   UNL     1      32.557 -11.118 -23.010  0.00  0.00    -0.237 N 
ATOM     21  C   UNL     1      32.305 -13.353 -22.313  0.00  0.00    +0.199 C 
ATOM     22  C   UNL     1      31.842 -11.918 -22.149  0.00  0.00    +0.251 C 
ATOM     23  C   UNL     1      33.462 -11.857 -23.747  0.00  0.00    +0.325 C 
ATOM     24  H   UNL     1      32.438 -10.144 -23.091  0.00  0.00    +0.159 HD
ENDBRANCH  16  19
ENDBRANCH  15  16
ENDBRANCH   3  15
TORSDOF 5
ENDMDL
MODEL 8
REMARK VINA RESULT:     -10.2      4.797     11.518
REMARK  Name = 2952
REMARK  5 active torsions:
REMARK  status: ('A' for Active; 'I' for Inactive)
REMARK    1  A    between atoms: C_2  and  C_6
REMARK    2  A    between atoms: C_3  and  C_16
REMARK    3  A    between atoms: C_9  and  N_14
REMARK    4  A    between atoms: N_15  and  C_16
REMARK    5  A    between atoms: N_15  and  N_19
REMARK                            x       y       z     vdW  Elec       q    Type
REMARK                         _______ _______ _______ _____ _____    ______ ____
ROOT
ATOM      1  O   UNL     1      34.440 -17.613 -21.944  0.00  0.00    -0.456 OA
ATOM      2  C   UNL     1      34.700 -18.899 -22.284  0.00  0.00    +0.145 C 
ATOM      3  C   UNL     1      34.634 -16.874 -23.067  0.00  0.00    +0.142 C 
ATOM      4  C   UNL     1      35.057 -18.997 -23.604  0.00  0.00    +0.040 C 
ATOM      5  C   UNL     1      35.014 -17.678 -24.116  0.00  0.00    +0.038 C 
ENDROOT
BRANCH   2   6
ATOM      6  C   UNL     1      34.550 -19.859 -21.217  0.00  0.00    +0.035 C 
ATOM      7  C   UNL     1      33.279 -20.187 -20.748  0.00  0.00    +0.005 C 
ATOM      8  C   UNL     1      35.677 -20.457 -20.655  0.00  0.00    +0.005 C 
ATOM      9  C   UNL     1      34.262 -21.713 -19.154  0.00  0.00    +0.143 C 
ATOM     10  C   UNL     1      33.134 -21.115 -19.716  0.00  0.00    +0.024 C 
ATOM     11  C   UNL     1      35.533 -21.384 -19.623  0.00  0.00    +0.024 C 
BRANCH   9  14
ATOM     12  O   UNL     1      35.085 -22.862 -17.336  0.00  0.00    -0.126 OA
ATOM     13  O   UNL     1      33.020 -23.255 -17.979  0.00  0.00    -0.126 OA
ATOM     14  N   UNL     1      34.115 -22.658 -18.103  0.00  0.00    +0.058 N 
ENDBRANCH   9  14
ENDBRANCH   2   6
BRANCH   3  15
ATOM     15  C   UNL     1      34.425 -15.468 -22.983  0.00  0.00    +0.176 C 
BRANCH  15  16
ATOM     16  N   UNL     1      33.305 -14.888 -23.342  0.00  0.00    -0.118 NA
BRANCH  16  19
ATOM     17  O   UNL     1      34.186 -10.747 -25.432  0.00  0.00    -0.273 OA
ATOM     18  O   UNL     1      32.757 -15.047 -26.158  0.00  0.00    -0.251 OA
ATOM     19  N   UNL     1      33.448 -13.889 -24.236  0.00  0.00    -0.181 N 
ATOM     20  N   UNL     1      33.430 -12.819 -26.164  0.00  0.00    -0.237 N 
ATOM     21  C   UNL     1      33.908 -12.584 -23.871  0.00  0.00    +0.199 C 
ATOM     22  C   UNL     1      33.870 -11.911 -25.230  0.00  0.00    +0.251 C 
ATOM     23  C   UNL     1      33.162 -14.045 -25.586  0.00  0.00    +0.325 C 
ATOM     24  H   UNL     1      33.320 -12.621 -27.123  0.00  0.00    +0.159 HD
ENDBRANCH  16  19
ENDBRANCH  15  16
ENDBRANCH   3  15
TORSDOF 5
ENDMDL
MODEL 9
REMARK VINA RESULT:     -10.2      1.655      2.391
REMARK  Name = 2952
REMARK  5 active torsions:
REMARK  status: ('A' for Active; 'I' for Inactive)
REMARK    1  A    between atoms: C_2  and  C_6
REMARK    2  A    between atoms: C_3  and  C_16
REMARK    3  A    between atoms: C_9  and  N_14
REMARK    4  A    between atoms: N_15  and  C_16
REMARK    5  A    between atoms: N_15  and  N_19
REMARK                            x       y       z     vdW  Elec       q    Type
REMARK                         _______ _______ _______ _____ _____    ______ ____
ROOT
ATOM      1  O   UNL     1      34.828 -22.894 -17.092  0.00  0.00    -0.456 OA
ATOM      2  C   UNL     1      33.832 -22.544 -17.943  0.00  0.00    +0.145 C 
ATOM      3  C   UNL     1      34.264 -23.698 -16.154  0.00  0.00    +0.142 C 
ATOM      4  C   UNL     1      32.641 -23.109 -17.566  0.00  0.00    +0.040 C 
ATOM      5  C   UNL     1      32.921 -23.861 -16.400  0.00  0.00    +0.038 C 
ENDROOT
BRANCH   2   6
ATOM      6  C   UNL     1      34.228 -21.679 -19.028  0.00  0.00    +0.035 C 
ATOM      7  C   UNL     1      35.572 -21.576 -19.384  0.00  0.00    +0.005 C 
ATOM      8  C   UNL     1      33.264 -20.946 -19.720  0.00  0.00    +0.005 C 
ATOM      9  C   UNL     1      34.990 -20.007 -21.126  0.00  0.00    +0.143 C 
ATOM     10  C   UNL     1      35.953 -20.740 -20.434  0.00  0.00    +0.024 C 
ATOM     11  C   UNL     1      33.646 -20.109 -20.770  0.00  0.00    +0.024 C 
BRANCH   9  14
ATOM     12  O   UNL     1      36.372 -18.407 -22.038  0.00  0.00    -0.126 OA
ATOM     13  O   UNL     1      34.713 -19.180 -23.257  0.00  0.00    -0.126 OA
ATOM     14  N   UNL     1      35.378 -19.155 -22.195  0.00  0.00    +0.058 N 
ENDBRANCH   9  14
ENDBRANCH   2   6
BRANCH   3  15
ATOM     15  C   UNL     1      35.104 -24.212 -15.126  0.00  0.00    +0.176 C 
BRANCH  15  16
ATOM     16  N   UNL     1      36.228 -24.843 -15.368  0.00  0.00    -0.118 NA
BRANCH  16  19
ATOM     17  O   UNL     1      38.824 -23.520 -11.653  0.00  0.00    -0.273 OA
ATOM     18  O   UNL     1      38.200 -26.841 -14.758  0.00  0.00    -0.251 OA
ATOM     19  N   UNL     1      37.133 -24.786 -14.371  0.00  0.00    -0.181 N 
ATOM     20  N   UNL     1      38.797 -25.378 -13.050  0.00  0.00    -0.237 N 
ATOM     21  C   UNL     1      37.219 -23.681 -13.466  0.00  0.00    +0.199 C 
ATOM     22  C   UNL     1      38.370 -24.152 -12.597  0.00  0.00    +0.251 C 
ATOM     23  C   UNL     1      38.057 -25.796 -14.139  0.00  0.00    +0.325 C 
ATOM     24  H   UNL     1      39.535 -25.892 -12.649  0.00  0.00    +0.159 HD
ENDBRANCH  16  19
ENDBRANCH  15  16
ENDBRANCH   3  15
TORSDOF 5
ENDMDL
