MODEL 1
REMARK VINA RESULT:     -12.2      0.000      0.000
REMARK  Name = 11790
REMARK  1 active torsions:
REMARK  status: ('A' for Active; 'I' for Inactive)
REMARK    1  A    between atoms: C_7  and  C_16
REMARK                            x       y       z     vdW  Elec       q    Type
REMARK                         _______ _______ _______ _____ _____    ______ ____
ROOT
ATOM      1  O   UNL     1      34.100 -16.897 -21.924  0.00  0.00    -0.453 OA
ATOM      2  O   UNL     1      34.847 -17.216 -25.910  0.00  0.00    -0.286 OA
ATOM      3  C   UNL     1      33.751 -15.859 -22.759  0.00  0.00    +0.148 C 
ATOM      4  C   UNL     1      33.141 -14.724 -22.176  0.00  0.00    +0.035 C 
ATOM      5  C   UNL     1      33.986 -15.913 -24.134  0.00  0.00    +0.074 C 
ATOM      6  C   UNL     1      32.773 -13.644 -23.016  0.00  0.00    +0.003 C 
ATOM      7  C   UNL     1      34.705 -18.021 -22.462  0.00  0.00    +0.148 C 
ATOM      8  C   UNL     1      33.622 -14.847 -24.956  0.00  0.00    +0.006 C 
ATOM      9  C   UNL     1      33.020 -13.721 -24.396  0.00  0.00    +0.000 C 
ATOM     10  C   UNL     1      34.620 -17.109 -24.712  0.00  0.00    +0.202 C 
ATOM     11  C   UNL     1      32.879 -14.616 -20.794  0.00  0.00    +0.003 C 
ATOM     12  C   UNL     1      34.971 -18.185 -23.766  0.00  0.00    +0.080 C 
ATOM     13  C   UNL     1      32.164 -12.506 -22.460  0.00  0.00    +0.000 C 
ATOM     14  C   UNL     1      32.273 -13.479 -20.258  0.00  0.00    +0.000 C 
ATOM     15  C   UNL     1      31.916 -12.425 -21.091  0.00  0.00    +0.000 C 
ENDROOT
BRANCH   7  16
ATOM     16  C   UNL     1      35.022 -19.065 -21.466  0.00  0.00    +0.035 C 
ATOM     17  C   UNL     1      36.341 -19.258 -21.047  0.00  0.00    +0.003 C 
ATOM     18  C   UNL     1      34.005 -19.864 -20.939  0.00  0.00    +0.003 C 
ATOM     19  C   UNL     1      36.640 -20.243 -20.107  0.00  0.00    +0.000 C 
ATOM     20  C   UNL     1      34.304 -20.850 -19.998  0.00  0.00    +0.000 C 
ATOM     21  C   UNL     1      35.622 -21.040 -19.582  0.00  0.00    +0.000 C 
ENDBRANCH   7  16
TORSDOF 1
ENDMDL
MODEL 2
REMARK VINA RESULT:     -11.1      2.949      7.250
REMARK  Name = 11790
REMARK  1 active torsions:
REMARK  status: ('A' for Active; 'I' for Inactive)
REMARK    1  A    between atoms: C_7  and  C_16
REMARK                            x       y       z     vdW  Elec       q    Type
REMARK                         _______ _______ _______ _____ _____    ______ ____
ROOT
ATOM      1  O   UNL     1      33.972 -12.559 -23.599  0.00  0.00    -0.453 OA
ATOM      2  O   UNL     1      33.339 -13.369 -27.534  0.00  0.00    -0.286 OA
ATOM      3  C   UNL     1      33.981 -13.868 -24.026  0.00  0.00    +0.148 C 
ATOM      4  C   UNL     1      34.217 -14.872 -23.058  0.00  0.00    +0.035 C 
ATOM      5  C   UNL     1      33.767 -14.204 -25.364  0.00  0.00    +0.074 C 
ATOM      6  C   UNL     1      34.231 -16.227 -23.475  0.00  0.00    +0.003 C 
ATOM      7  C   UNL     1      33.739 -11.551 -24.520  0.00  0.00    +0.148 C 
ATOM      8  C   UNL     1      33.782 -15.538 -25.768  0.00  0.00    +0.006 C 
ATOM      9  C   UNL     1      34.013 -16.541 -24.826  0.00  0.00    +0.000 C 
ATOM     10  C   UNL     1      33.528 -13.137 -26.348  0.00  0.00    +0.202 C 
ATOM     11  C   UNL     1      34.441 -14.589 -21.694  0.00  0.00    +0.003 C 
ATOM     12  C   UNL     1      33.529 -11.756 -25.828  0.00  0.00    +0.080 C 
ATOM     13  C   UNL     1      34.465 -17.242 -22.532  0.00  0.00    +0.000 C 
ATOM     14  C   UNL     1      34.671 -15.611 -20.771  0.00  0.00    +0.000 C 
ATOM     15  C   UNL     1      34.683 -16.936 -21.191  0.00  0.00    +0.000 C 
ENDROOT
BRANCH   7  16
ATOM     16  C   UNL     1      33.762 -10.193 -23.939  0.00  0.00    +0.035 C 
ATOM     17  C   UNL     1      32.747  -9.781 -23.072  0.00  0.00    +0.003 C 
ATOM     18  C   UNL     1      34.799  -9.312 -24.257  0.00  0.00    +0.003 C 
ATOM     19  C   UNL     1      32.769  -8.499 -22.524  0.00  0.00    +0.000 C 
ATOM     20  C   UNL     1      34.822  -8.029 -23.708  0.00  0.00    +0.000 C 
ATOM     21  C   UNL     1      33.807  -7.622 -22.842  0.00  0.00    +0.000 C 
ENDBRANCH   7  16
TORSDOF 1
ENDMDL
MODEL 3
REMARK VINA RESULT:     -10.9      1.763      6.268
REMARK  Name = 11790
REMARK  1 active torsions:
REMARK  status: ('A' for Active; 'I' for Inactive)
REMARK    1  A    between atoms: C_7  and  C_16
REMARK                            x       y       z     vdW  Elec       q    Type
REMARK                         _______ _______ _______ _____ _____    ______ ____
ROOT
ATOM      1  O   UNL     1      33.359 -14.442 -22.516  0.00  0.00    -0.453 OA
ATOM      2  O   UNL     1      32.759 -14.093 -26.523  0.00  0.00    -0.286 OA
ATOM      3  C   UNL     1      33.823 -15.431 -23.354  0.00  0.00    +0.148 C 
ATOM      4  C   UNL     1      34.494 -16.528 -22.766  0.00  0.00    +0.035 C 
ATOM      5  C   UNL     1      33.643 -15.365 -24.737  0.00  0.00    +0.074 C 
ATOM      6  C   UNL     1      34.982 -17.558 -23.610  0.00  0.00    +0.003 C 
ATOM      7  C   UNL     1      32.691 -13.357 -23.058  0.00  0.00    +0.148 C 
ATOM      8  C   UNL     1      34.124 -16.380 -25.562  0.00  0.00    +0.006 C 
ATOM      9  C   UNL     1      34.788 -17.469 -24.998  0.00  0.00    +0.000 C 
ATOM     10  C   UNL     1      32.942 -14.209 -25.319  0.00  0.00    +0.202 C 
ATOM     11  C   UNL     1      34.706 -16.646 -21.376  0.00  0.00    +0.003 C 
ATOM     12  C   UNL     1      32.468 -13.184 -24.370  0.00  0.00    +0.080 C 
ATOM     13  C   UNL     1      35.654 -18.657 -23.049  0.00  0.00    +0.000 C 
ATOM     14  C   UNL     1      35.376 -17.745 -20.836  0.00  0.00    +0.000 C 
ATOM     15  C   UNL     1      35.849 -18.750 -21.672  0.00  0.00    +0.000 C 
ENDROOT
BRANCH   7  16
ATOM     16  C   UNL     1      32.251 -12.363 -22.058  0.00  0.00    +0.035 C 
ATOM     17  C   UNL     1      32.003 -11.042 -22.440  0.00  0.00    +0.003 C 
ATOM     18  C   UNL     1      32.081 -12.740 -20.723  0.00  0.00    +0.003 C 
ATOM     19  C   UNL     1      31.587 -10.105 -21.495  0.00  0.00    +0.000 C 
ATOM     20  C   UNL     1      31.665 -11.803 -19.777  0.00  0.00    +0.000 C 
ATOM     21  C   UNL     1      31.418 -10.485 -20.163  0.00  0.00    +0.000 C 
ENDBRANCH   7  16
TORSDOF 1
ENDMDL
MODEL 4
REMARK VINA RESULT:     -10.9      4.960      8.479
REMARK  Name = 11790
REMARK  1 active torsions:
REMARK  status: ('A' for Active; 'I' for Inactive)
REMARK    1  A    between atoms: C_7  and  C_16
REMARK                            x       y       z     vdW  Elec       q    Type
REMARK                         _______ _______ _______ _____ _____    ______ ____
ROOT
ATOM      1  O   UNL     1      32.659 -22.303 -17.847  0.00  0.00    -0.453 OA
ATOM      2  O   UNL     1      35.990 -23.685 -15.967  0.00  0.00    -0.286 OA
ATOM      3  C   UNL     1      33.899 -21.956 -18.335  0.00  0.00    +0.148 C 
ATOM      4  C   UNL     1      33.946 -21.129 -19.480  0.00  0.00    +0.035 C 
ATOM      5  C   UNL     1      35.075 -22.399 -17.728  0.00  0.00    +0.074 C 
ATOM      6  C   UNL     1      35.212 -20.759 -20.000  0.00  0.00    +0.003 C 
ATOM      7  C   UNL     1      32.577 -23.108 -16.723  0.00  0.00    +0.148 C 
ATOM      8  C   UNL     1      36.318 -22.033 -18.243  0.00  0.00    +0.006 C 
ATOM      9  C   UNL     1      36.381 -21.217 -19.373  0.00  0.00    +0.000 C 
ATOM     10  C   UNL     1      34.994 -23.262 -16.539  0.00  0.00    +0.202 C 
ATOM     11  C   UNL     1      32.789 -20.653 -20.135  0.00  0.00    +0.003 C 
ATOM     12  C   UNL     1      33.638 -23.597 -16.065  0.00  0.00    +0.080 C 
ATOM     13  C   UNL     1      35.284 -19.939 -21.139  0.00  0.00    +0.000 C 
ATOM     14  C   UNL     1      32.879 -19.839 -21.265  0.00  0.00    +0.000 C 
ATOM     15  C   UNL     1      34.126 -19.482 -21.766  0.00  0.00    +0.000 C 
ENDROOT
BRANCH   7  16
ATOM     16  C   UNL     1      31.193 -23.414 -16.306  0.00  0.00    +0.035 C 
ATOM     17  C   UNL     1      30.133 -22.618 -16.746  0.00  0.00    +0.003 C 
ATOM     18  C   UNL     1      30.939 -24.502 -15.467  0.00  0.00    +0.003 C 
ATOM     19  C   UNL     1      28.828 -22.907 -16.351  0.00  0.00    +0.000 C 
ATOM     20  C   UNL     1      29.632 -24.793 -15.072  0.00  0.00    +0.000 C 
ATOM     21  C   UNL     1      28.577 -23.995 -15.514  0.00  0.00    +0.000 C 
ENDBRANCH   7  16
TORSDOF 1
ENDMDL
MODEL 5
REMARK VINA RESULT:     -10.7      6.419      9.882
REMARK  Name = 11790
REMARK  1 active torsions:
REMARK  status: ('A' for Active; 'I' for Inactive)
REMARK    1  A    between atoms: C_7  and  C_16
REMARK                            x       y       z     vdW  Elec       q    Type
REMARK                         _______ _______ _______ _____ _____    ______ ____
ROOT
ATOM      1  O   UNL     1      33.145 -23.014 -16.701  0.00  0.00    -0.453 OA
ATOM      2  O   UNL     1      35.704 -24.047 -13.713  0.00  0.00    -0.286 OA
ATOM      3  C   UNL     1      34.486 -22.732 -16.836  0.00  0.00    +0.148 C 
ATOM      4  C   UNL     1      34.905 -22.092 -18.026  0.00  0.00    +0.035 C 
ATOM      5  C   UNL     1      35.409 -23.061 -15.842  0.00  0.00    +0.074 C 
ATOM      6  C   UNL     1      36.281 -21.792 -18.187  0.00  0.00    +0.003 C 
ATOM      7  C   UNL     1      32.700 -23.635 -15.547  0.00  0.00    +0.148 C 
ATOM      8  C   UNL     1      36.761 -22.764 -16.006  0.00  0.00    +0.006 C 
ATOM      9  C   UNL     1      37.191 -22.133 -17.173  0.00  0.00    +0.000 C 
ATOM     10  C   UNL     1      34.942 -23.730 -14.617  0.00  0.00    +0.202 C 
ATOM     11  C   UNL     1      34.018 -21.737 -19.064  0.00  0.00    +0.003 C 
ATOM     12  C   UNL     1      33.495 -24.004 -14.531  0.00  0.00    +0.080 C 
ATOM     13  C   UNL     1      36.722 -21.158 -19.361  0.00  0.00    +0.000 C 
ATOM     14  C   UNL     1      34.473 -21.108 -20.223  0.00  0.00    +0.000 C 
ATOM     15  C   UNL     1      35.825 -20.818 -20.371  0.00  0.00    +0.000 C 
ENDROOT
BRANCH   7  16
ATOM     16  C   UNL     1      31.245 -23.889 -15.526  0.00  0.00    +0.035 C 
ATOM     17  C   UNL     1      30.724 -24.936 -14.761  0.00  0.00    +0.003 C 
ATOM     18  C   UNL     1      30.382 -23.083 -16.274  0.00  0.00    +0.003 C 
ATOM     19  C   UNL     1      29.351 -25.175 -14.742  0.00  0.00    +0.000 C 
ATOM     20  C   UNL     1      29.007 -23.323 -16.255  0.00  0.00    +0.000 C 
ATOM     21  C   UNL     1      28.492 -24.369 -15.489  0.00  0.00    +0.000 C 
ENDBRANCH   7  16
TORSDOF 1
ENDMDL
MODEL 6
REMARK VINA RESULT:     -10.5      5.333      9.872
REMARK  Name = 11790
REMARK  1 active torsions:
REMARK  status: ('A' for Active; 'I' for Inactive)
REMARK    1  A    between atoms: C_7  and  C_16
REMARK                            x       y       z     vdW  Elec       q    Type
REMARK                         _______ _______ _______ _____ _____    ______ ____
ROOT
ATOM      1  O   UNL     1      33.055 -22.473 -17.550  0.00  0.00    -0.453 OA
ATOM      2  O   UNL     1      36.475 -23.705 -15.726  0.00  0.00    -0.286 OA
ATOM      3  C   UNL     1      32.970 -23.242 -16.411  0.00  0.00    +0.148 C 
ATOM      4  C   UNL     1      31.680 -23.564 -15.930  0.00  0.00    +0.035 C 
ATOM      5  C   UNL     1      34.111 -23.695 -15.745  0.00  0.00    +0.074 C 
ATOM      6  C   UNL     1      31.568 -24.354 -14.759  0.00  0.00    +0.003 C 
ATOM      7  C   UNL     1      34.303 -22.145 -18.051  0.00  0.00    +0.148 C 
ATOM      8  C   UNL     1      33.995 -24.472 -14.594  0.00  0.00    +0.006 C 
ATOM      9  C   UNL     1      32.730 -24.798 -14.107  0.00  0.00    +0.000 C 
ATOM     10  C   UNL     1      35.440 -23.341 -16.268  0.00  0.00    +0.202 C 
ATOM     11  C   UNL     1      30.493 -23.132 -16.561  0.00  0.00    +0.003 C 
ATOM     12  C   UNL     1      35.464 -22.517 -17.491  0.00  0.00    +0.080 C 
ATOM     13  C   UNL     1      30.297 -24.685 -14.261  0.00  0.00    +0.000 C 
ATOM     14  C   UNL     1      29.238 -23.470 -16.053  0.00  0.00    +0.000 C 
ATOM     15  C   UNL     1      29.141 -24.247 -14.904  0.00  0.00    +0.000 C 
ENDROOT
BRANCH   7  16
ATOM     16  C   UNL     1      34.259 -21.311 -19.269  0.00  0.00    +0.035 C 
ATOM     17  C   UNL     1      33.035 -20.866 -19.773  0.00  0.00    +0.003 C 
ATOM     18  C   UNL     1      35.444 -20.965 -19.925  0.00  0.00    +0.003 C 
ATOM     19  C   UNL     1      32.994 -20.079 -20.923  0.00  0.00    +0.000 C 
ATOM     20  C   UNL     1      35.403 -20.177 -21.076  0.00  0.00    +0.000 C 
ATOM     21  C   UNL     1      34.178 -19.735 -21.576  0.00  0.00    +0.000 C 
ENDBRANCH   7  16
TORSDOF 1
ENDMDL
MODEL 7
REMARK VINA RESULT:     -10.3      5.756     10.106
REMARK  Name = 11790
REMARK  1 active torsions:
REMARK  status: ('A' for Active; 'I' for Inactive)
REMARK    1  A    between atoms: C_7  and  C_16
REMARK                            x       y       z     vdW  Elec       q    Type
REMARK                         _______ _______ _______ _____ _____    ______ ____
ROOT
ATOM      1  O   UNL     1      33.244 -22.730 -17.170  0.00  0.00    -0.453 OA
ATOM      2  O   UNL     1      36.194 -24.088 -14.720  0.00  0.00    -0.286 OA
ATOM      3  C   UNL     1      32.907 -23.445 -16.042  0.00  0.00    +0.148 C 
ATOM      4  C   UNL     1      31.533 -23.668 -15.794  0.00  0.00    +0.035 C 
ATOM      5  C   UNL     1      33.877 -23.937 -15.168  0.00  0.00    +0.074 C 
ATOM      6  C   UNL     1      31.161 -24.401 -14.639  0.00  0.00    +0.003 C 
ATOM      7  C   UNL     1      34.582 -22.498 -17.446  0.00  0.00    +0.148 C 
ATOM      8  C   UNL     1      33.506 -24.658 -14.034  0.00  0.00    +0.006 C 
ATOM      9  C   UNL     1      32.155 -24.886 -13.775  0.00  0.00    +0.000 C 
ATOM     10  C   UNL     1      35.299 -23.686 -15.452  0.00  0.00    +0.202 C 
ATOM     11  C   UNL     1      30.509 -23.193 -16.642  0.00  0.00    +0.003 C 
ATOM     12  C   UNL     1      35.596 -22.916 -16.674  0.00  0.00    +0.080 C 
ATOM     13  C   UNL     1      29.802 -24.634 -14.370  0.00  0.00    +0.000 C 
ATOM     14  C   UNL     1      29.164 -23.433 -16.360  0.00  0.00    +0.000 C 
ATOM     15  C   UNL     1      28.811 -24.154 -15.225  0.00  0.00    +0.000 C 
ENDROOT
BRANCH   7  16
ATOM     16  C   UNL     1      34.812 -21.715 -18.677  0.00  0.00    +0.035 C 
ATOM     17  C   UNL     1      36.114 -21.416 -19.086  0.00  0.00    +0.003 C 
ATOM     18  C   UNL     1      33.728 -21.269 -19.437  0.00  0.00    +0.003 C 
ATOM     19  C   UNL     1      36.331 -20.677 -20.249  0.00  0.00    +0.000 C 
ATOM     20  C   UNL     1      33.945 -20.529 -20.601  0.00  0.00    +0.000 C 
ATOM     21  C   UNL     1      35.247 -20.233 -21.006  0.00  0.00    +0.000 C 
ENDBRANCH   7  16
TORSDOF 1
ENDMDL
MODEL 8
REMARK VINA RESULT:     -10.2      8.499     11.185
REMARK  Name = 11790
REMARK  1 active torsions:
REMARK  status: ('A' for Active; 'I' for Inactive)
REMARK    1  A    between atoms: C_7  and  C_16
REMARK                            x       y       z     vdW  Elec       q    Type
REMARK                         _______ _______ _______ _____ _____    ______ ____
ROOT
ATOM      1  O   UNL     1      33.329 -23.590 -14.969  0.00  0.00    -0.453 OA
ATOM      2  O   UNL     1      35.045 -22.440 -18.472  0.00  0.00    -0.286 OA
ATOM      3  C   UNL     1      34.692 -23.405 -15.021  0.00  0.00    +0.148 C 
ATOM      4  C   UNL     1      35.430 -23.626 -13.835  0.00  0.00    +0.035 C 
ATOM      5  C   UNL     1      35.335 -23.013 -16.197  0.00  0.00    +0.074 C 
ATOM      6  C   UNL     1      36.836 -23.441 -13.865  0.00  0.00    +0.003 C 
ATOM      7  C   UNL     1      32.577 -23.387 -16.114  0.00  0.00    +0.148 C 
ATOM      8  C   UNL     1      36.717 -22.833 -16.220  0.00  0.00    +0.006 C 
ATOM      9  C   UNL     1      37.459 -23.047 -15.060  0.00  0.00    +0.000 C 
ATOM     10  C   UNL     1      34.539 -22.788 -17.414  0.00  0.00    +0.202 C 
ATOM     11  C   UNL     1      34.834 -24.021 -12.619  0.00  0.00    +0.003 C 
ATOM     12  C   UNL     1      33.085 -23.003 -17.294  0.00  0.00    +0.080 C 
ATOM     13  C   UNL     1      37.590 -23.653 -12.699  0.00  0.00    +0.000 C 
ATOM     14  C   UNL     1      35.598 -24.227 -11.470  0.00  0.00    +0.000 C 
ATOM     15  C   UNL     1      36.976 -24.044 -11.511  0.00  0.00    +0.000 C 
ENDROOT
BRANCH   7  16
ATOM     16  C   UNL     1      31.128 -23.610 -15.926  0.00  0.00    +0.035 C 
ATOM     17  C   UNL     1      30.677 -24.666 -15.131  0.00  0.00    +0.003 C 
ATOM     18  C   UNL     1      30.203 -22.765 -16.544  0.00  0.00    +0.003 C 
ATOM     19  C   UNL     1      29.310 -24.876 -14.954  0.00  0.00    +0.000 C 
ATOM     20  C   UNL     1      28.835 -22.974 -16.367  0.00  0.00    +0.000 C 
ATOM     21  C   UNL     1      28.388 -24.030 -15.572  0.00  0.00    +0.000 C 
ENDBRANCH   7  16
TORSDOF 1
ENDMDL
MODEL 9
REMARK VINA RESULT:     -10.1      6.700     11.901
REMARK  Name = 11790
REMARK  1 active torsions:
REMARK  status: ('A' for Active; 'I' for Inactive)
REMARK    1  A    between atoms: C_7  and  C_16
REMARK                            x       y       z     vdW  Elec       q    Type
REMARK                         _______ _______ _______ _____ _____    ______ ____
ROOT
ATOM      1  O   UNL     1      36.159 -23.556 -16.038  0.00  0.00    -0.453 OA
ATOM      2  O   UNL     1      33.026 -23.918 -13.470  0.00  0.00    -0.286 OA
ATOM      3  C   UNL     1      36.353 -24.173 -14.822  0.00  0.00    +0.148 C 
ATOM      4  C   UNL     1      37.650 -24.656 -14.532  0.00  0.00    +0.035 C 
ATOM      5  C   UNL     1      35.315 -24.323 -13.901  0.00  0.00    +0.074 C 
ATOM      6  C   UNL     1      37.874 -25.296 -13.286  0.00  0.00    +0.003 C 
ATOM      7  C   UNL     1      34.902 -23.066 -16.352  0.00  0.00    +0.148 C 
ATOM      8  C   UNL     1      35.540 -24.952 -12.678  0.00  0.00    +0.006 C 
ATOM      9  C   UNL     1      36.814 -25.434 -12.376  0.00  0.00    +0.000 C 
ATOM     10  C   UNL     1      33.976 -23.812 -14.234  0.00  0.00    +0.202 C 
ATOM     11  C   UNL     1      38.736 -24.534 -15.425  0.00  0.00    +0.003 C 
ATOM     12  C   UNL     1      33.832 -23.160 -15.550  0.00  0.00    +0.080 C 
ATOM     13  C   UNL     1      39.153 -25.785 -12.975  0.00  0.00    +0.000 C 
ATOM     14  C   UNL     1      40.001 -25.027 -15.100  0.00  0.00    +0.000 C 
ATOM     15  C   UNL     1      40.209 -25.651 -13.875  0.00  0.00    +0.000 C 
ENDROOT
BRANCH   7  16
ATOM     16  C   UNL     1      34.822 -22.435 -17.685  0.00  0.00    +0.035 C 
ATOM     17  C   UNL     1      33.604 -22.387 -18.368  0.00  0.00    +0.003 C 
ATOM     18  C   UNL     1      35.965 -21.882 -18.269  0.00  0.00    +0.003 C 
ATOM     19  C   UNL     1      33.529 -21.790 -19.626  0.00  0.00    +0.000 C 
ATOM     20  C   UNL     1      35.889 -21.285 -19.528  0.00  0.00    +0.000 C 
ATOM     21  C   UNL     1      34.671 -21.240 -20.207  0.00  0.00    +0.000 C 
ENDBRANCH   7  16
TORSDOF 1
ENDMDL
