MODEL 1
REMARK VINA RESULT:      -8.6      0.000      0.000
REMARK  Name = 3364665
REMARK  5 active torsions:
REMARK  status: ('A' for Active; 'I' for Inactive)
REMARK    1  A    between atoms: C_1  and  N_8
REMARK    2  A    between atoms: C_2  and  N_14
REMARK    3  A    between atoms: C_3  and  O_15
REMARK    4  A    between atoms: C_4  and  C_18
REMARK    5  A    between atoms: C_18  and  O_19
REMARK                            x       y       z     vdW  Elec       q    Type
REMARK                         _______ _______ _______ _____ _____    ______ ____
ROOT
ATOM      1  C   UNL     1      36.400 -25.098 -13.508  0.00  0.00    +0.107 C 
ATOM      2  C   UNL     1      37.357 -24.531 -12.667  0.00  0.00    +0.159 C 
ATOM      3  C   UNL     1      36.800 -25.879 -14.593  0.00  0.00    +0.149 C 
ATOM      4  C   UNL     1      39.113 -25.524 -13.996  0.00  0.00    +0.080 C 
ATOM      5  C   UNL     1      38.714 -24.744 -12.911  0.00  0.00    +0.032 C 
ATOM      6  C   UNL     1      38.157 -26.091 -14.837  0.00  0.00    +0.044 C 
ENDROOT
BRANCH   1   8
ATOM      7  O   UNL     1      34.335 -23.642 -15.144  0.00  0.00    -0.275 OA
ATOM      8  N   UNL     1      35.035 -24.893 -13.274  0.00  0.00    -0.280 N 
ATOM      9  C   UNL     1      34.120 -24.202 -14.074  0.00  0.00    +0.227 C 
ATOM     10  C   UNL     1      32.738 -24.207 -13.468  0.00  0.00    +0.095 C 
ATOM     11  H   UNL     1      34.676 -25.282 -12.444  0.00  0.00    +0.155 HD
ENDBRANCH   1   8
BRANCH   2  14
ATOM     12  O   UNL     1      37.231 -22.504 -11.574  0.00  0.00    -0.126 OA
ATOM     13  O   UNL     1      36.406 -24.280 -10.582  0.00  0.00    -0.126 OA
ATOM     14  N   UNL     1      36.979 -23.732 -11.552  0.00  0.00    +0.059 N 
ENDBRANCH   2  14
BRANCH   3  15
ATOM     15  O   UNL     1      35.882 -26.444 -15.428  0.00  0.00    -0.504 OA
ATOM     16  H   UNL     1      35.004 -26.586 -15.132  0.00  0.00    +0.292 HD
ENDBRANCH   3  15
BRANCH   4  18
ATOM     17  O   UNL     1      41.119 -26.824 -14.115  0.00  0.00    -0.245 OA
ATOM     18  C   UNL     1      40.528 -25.747 -14.251  0.00  0.00    +0.338 C 
BRANCH  18  19
ATOM     19  O   UNL     1      41.166 -24.619 -14.668  0.00  0.00    -0.477 OA
ATOM     20  H   UNL     1      40.759 -24.057 -15.297  0.00  0.00    +0.295 HD
ENDBRANCH  18  19
ENDBRANCH   4  18
TORSDOF 5
ENDMDL
MODEL 2
REMARK VINA RESULT:      -8.0      1.906      5.225
REMARK  Name = 3364665
REMARK  5 active torsions:
REMARK  status: ('A' for Active; 'I' for Inactive)
REMARK    1  A    between atoms: C_1  and  N_8
REMARK    2  A    between atoms: C_2  and  N_14
REMARK    3  A    between atoms: C_3  and  O_15
REMARK    4  A    between atoms: C_4  and  C_18
REMARK    5  A    between atoms: C_18  and  O_19
REMARK                            x       y       z     vdW  Elec       q    Type
REMARK                         _______ _______ _______ _____ _____    ______ ____
ROOT
ATOM      1  C   UNL     1      36.878 -24.299 -14.163  0.00  0.00    +0.107 C 
ATOM      2  C   UNL     1      36.137 -24.610 -13.024  0.00  0.00    +0.159 C 
ATOM      3  C   UNL     1      36.248 -23.741 -15.275  0.00  0.00    +0.149 C 
ATOM      4  C   UNL     1      34.133 -23.807 -14.110  0.00  0.00    +0.080 C 
ATOM      5  C   UNL     1      34.764 -24.364 -12.997  0.00  0.00    +0.032 C 
ATOM      6  C   UNL     1      34.875 -23.496 -15.249  0.00  0.00    +0.044 C 
ENDROOT
BRANCH   1   8
ATOM      7  O   UNL     1      38.403 -26.822 -14.778  0.00  0.00    -0.275 OA
ATOM      8  N   UNL     1      38.257 -24.541 -14.203  0.00  0.00    -0.280 N 
ATOM      9  C   UNL     1      38.911 -25.742 -14.495  0.00  0.00    +0.227 C 
ATOM     10  C   UNL     1      40.411 -25.587 -14.433  0.00  0.00    +0.095 C 
ATOM     11  H   UNL     1      38.837 -23.772 -14.001  0.00  0.00    +0.155 HD
ENDBRANCH   1   8
BRANCH   2  14
ATOM     12  O   UNL     1      37.149 -24.417 -10.961  0.00  0.00    -0.126 OA
ATOM     13  O   UNL     1      36.881 -26.424 -11.810  0.00  0.00    -0.126 OA
ATOM     14  N   UNL     1      36.753 -25.179 -11.874  0.00  0.00    +0.059 N 
ENDBRANCH   2  14
BRANCH   3  15
ATOM     15  O   UNL     1      36.953 -23.429 -16.400  0.00  0.00    -0.504 OA
ATOM     16  H   UNL     1      37.534 -22.693 -16.399  0.00  0.00    +0.292 HD
ENDBRANCH   3  15
BRANCH   4  18
ATOM     17  O   UNL     1      31.919 -23.757 -15.016  0.00  0.00    -0.245 OA
ATOM     18  C   UNL     1      32.702 -23.550 -14.082  0.00  0.00    +0.338 C 
BRANCH  18  19
ATOM     19  O   UNL     1      32.287 -23.042 -12.890  0.00  0.00    -0.477 OA
ATOM     20  H   UNL     1      31.442 -22.642 -12.820  0.00  0.00    +0.295 HD
ENDBRANCH  18  19
ENDBRANCH   4  18
TORSDOF 5
ENDMDL
MODEL 3
REMARK VINA RESULT:      -7.8      3.333      7.447
REMARK  Name = 3364665
REMARK  5 active torsions:
REMARK  status: ('A' for Active; 'I' for Inactive)
REMARK    1  A    between atoms: C_1  and  N_8
REMARK    2  A    between atoms: C_2  and  N_14
REMARK    3  A    between atoms: C_3  and  O_15
REMARK    4  A    between atoms: C_4  and  C_18
REMARK    5  A    between atoms: C_18  and  O_19
REMARK                            x       y       z     vdW  Elec       q    Type
REMARK                         _______ _______ _______ _____ _____    ______ ____
ROOT
ATOM      1  C   UNL     1      33.749 -23.333 -15.454  0.00  0.00    +0.107 C 
ATOM      2  C   UNL     1      33.234 -23.221 -16.745  0.00  0.00    +0.159 C 
ATOM      3  C   UNL     1      32.885 -23.385 -14.360  0.00  0.00    +0.149 C 
ATOM      4  C   UNL     1      30.990 -23.212 -15.848  0.00  0.00    +0.080 C 
ATOM      5  C   UNL     1      31.854 -23.161 -16.942  0.00  0.00    +0.032 C 
ATOM      6  C   UNL     1      31.506 -23.324 -14.557  0.00  0.00    +0.044 C 
ENDROOT
BRANCH   1   8
ATOM      7  O   UNL     1      35.624 -25.689 -15.463  0.00  0.00    -0.275 OA
ATOM      8  N   UNL     1      35.132 -23.395 -15.243  0.00  0.00    -0.280 N 
ATOM      9  C   UNL     1      35.954 -24.525 -15.258  0.00  0.00    +0.227 C 
ATOM     10  C   UNL     1      37.394 -24.168 -14.984  0.00  0.00    +0.095 C 
ATOM     11  H   UNL     1      35.580 -22.537 -15.062  0.00  0.00    +0.155 HD
ENDBRANCH   1   8
BRANCH   2  14
ATOM     12  O   UNL     1      35.077 -22.394 -17.858  0.00  0.00    -0.126 OA
ATOM     13  O   UNL     1      33.832 -23.895 -18.867  0.00  0.00    -0.126 OA
ATOM     14  N   UNL     1      34.090 -23.167 -17.880  0.00  0.00    +0.059 N 
ENDBRANCH   2  14
BRANCH   3  15
ATOM     15  O   UNL     1      33.366 -23.495 -13.089  0.00  0.00    -0.504 OA
ATOM     16  H   UNL     1      34.050 -22.924 -12.796  0.00  0.00    +0.292 HD
ENDBRANCH   3  15
BRANCH   4  18
ATOM     17  O   UNL     1      28.709 -23.798 -15.422  0.00  0.00    -0.245 OA
ATOM     18  C   UNL     1      29.551 -23.150 -16.053  0.00  0.00    +0.338 C 
BRANCH  18  19
ATOM     19  O   UNL     1      29.203 -22.281 -17.040  0.00  0.00    -0.477 OA
ATOM     20  H   UNL     1      28.388 -21.821 -16.993  0.00  0.00    +0.295 HD
ENDBRANCH  18  19
ENDBRANCH   4  18
TORSDOF 5
ENDMDL
MODEL 4
REMARK VINA RESULT:      -7.7     11.394     13.106
REMARK  Name = 3364665
REMARK  5 active torsions:
REMARK  status: ('A' for Active; 'I' for Inactive)
REMARK    1  A    between atoms: C_1  and  N_8
REMARK    2  A    between atoms: C_2  and  N_14
REMARK    3  A    between atoms: C_3  and  O_15
REMARK    4  A    between atoms: C_4  and  C_18
REMARK    5  A    between atoms: C_18  and  O_19
REMARK                            x       y       z     vdW  Elec       q    Type
REMARK                         _______ _______ _______ _____ _____    ______ ____
ROOT
ATOM      1  C   UNL     1      34.701 -17.866 -22.743  0.00  0.00    +0.107 C 
ATOM      2  C   UNL     1      34.326 -16.584 -22.344  0.00  0.00    +0.159 C 
ATOM      3  C   UNL     1      34.690 -18.207 -24.096  0.00  0.00    +0.149 C 
ATOM      4  C   UNL     1      33.928 -15.983 -24.650  0.00  0.00    +0.080 C 
ATOM      5  C   UNL     1      33.940 -15.642 -23.298  0.00  0.00    +0.032 C 
ATOM      6  C   UNL     1      34.303 -17.265 -25.049  0.00  0.00    +0.044 C 
ENDROOT
BRANCH   1   8
ATOM      7  O   UNL     1      33.066 -19.866 -21.197  0.00  0.00    -0.275 OA
ATOM      8  N   UNL     1      35.091 -18.821 -21.796  0.00  0.00    -0.280 N 
ATOM      9  C   UNL     1      34.282 -19.728 -21.105  0.00  0.00    +0.227 C 
ATOM     10  C   UNL     1      35.089 -20.591 -20.168  0.00  0.00    +0.095 C 
ATOM     11  H   UNL     1      36.054 -18.858 -21.592  0.00  0.00    +0.155 HD
ENDBRANCH   1   8
BRANCH   2  14
ATOM     12  O   UNL     1      35.327 -16.490 -20.268  0.00  0.00    -0.126 OA
ATOM     13  O   UNL     1      33.333 -15.604 -20.508  0.00  0.00    -0.126 OA
ATOM     14  N   UNL     1      34.329 -16.207 -20.972  0.00  0.00    +0.059 N 
ENDBRANCH   2  14
BRANCH   3  15
ATOM     15  O   UNL     1      35.053 -19.455 -24.510  0.00  0.00    -0.504 OA
ATOM     16  H   UNL     1      34.630 -20.209 -24.149  0.00  0.00    +0.292 HD
ENDBRANCH   3  15
BRANCH   4  18
ATOM     17  O   UNL     1      33.558 -15.167 -26.869  0.00  0.00    -0.245 OA
ATOM     18  C   UNL     1      33.526 -15.001 -25.645  0.00  0.00    +0.338 C 
BRANCH  18  19
ATOM     19  O   UNL     1      33.094 -13.839 -25.085  0.00  0.00    -0.477 OA
ATOM     20  H   UNL     1      33.121 -13.729 -24.154  0.00  0.00    +0.295 HD
ENDBRANCH  18  19
ENDBRANCH   4  18
TORSDOF 5
ENDMDL
MODEL 5
REMARK VINA RESULT:      -7.7     11.940     13.570
REMARK  Name = 3364665
REMARK  5 active torsions:
REMARK  status: ('A' for Active; 'I' for Inactive)
REMARK    1  A    between atoms: C_1  and  N_8
REMARK    2  A    between atoms: C_2  and  N_14
REMARK    3  A    between atoms: C_3  and  O_15
REMARK    4  A    between atoms: C_4  and  C_18
REMARK    5  A    between atoms: C_18  and  O_19
REMARK                            x       y       z     vdW  Elec       q    Type
REMARK                         _______ _______ _______ _____ _____    ______ ____
ROOT
ATOM      1  C   UNL     1      34.567 -15.378 -22.784  0.00  0.00    +0.107 C 
ATOM      2  C   UNL     1      34.509 -16.490 -23.622  0.00  0.00    +0.159 C 
ATOM      3  C   UNL     1      34.748 -15.547 -21.411  0.00  0.00    +0.149 C 
ATOM      4  C   UNL     1      34.813 -17.942 -21.716  0.00  0.00    +0.080 C 
ATOM      5  C   UNL     1      34.632 -17.773 -23.088  0.00  0.00    +0.032 C 
ATOM      6  C   UNL     1      34.871 -16.830 -20.877  0.00  0.00    +0.044 C 
ENDROOT
BRANCH   1   8
ATOM      7  O   UNL     1      32.221 -13.491 -22.804  0.00  0.00    -0.275 OA
ATOM      8  N   UNL     1      34.445 -14.085 -23.307  0.00  0.00    -0.280 N 
ATOM      9  C   UNL     1      33.322 -13.252 -23.288  0.00  0.00    +0.227 C 
ATOM     10  C   UNL     1      33.599 -11.930 -23.961  0.00  0.00    +0.095 C 
ATOM     11  H   UNL     1      35.248 -13.717 -23.742  0.00  0.00    +0.155 HD
ENDBRANCH   1   8
BRANCH   2  14
ATOM     12  O   UNL     1      35.095 -16.961 -25.803  0.00  0.00    -0.126 OA
ATOM     13  O   UNL     1      33.401 -15.612 -25.444  0.00  0.00    -0.126 OA
ATOM     14  N   UNL     1      34.326 -16.348 -25.026  0.00  0.00    +0.059 N 
ENDBRANCH   2  14
BRANCH   3  15
ATOM     15  O   UNL     1      34.809 -14.474 -20.572  0.00  0.00    -0.504 OA
ATOM     16  H   UNL     1      35.523 -14.390 -19.970  0.00  0.00    +0.292 HD
ENDBRANCH   3  15
BRANCH   4  18
ATOM     17  O   UNL     1      34.092 -20.174 -21.239  0.00  0.00    -0.245 OA
ATOM     18  C   UNL     1      34.942 -19.280 -21.158  0.00  0.00    +0.338 C 
BRANCH  18  19
ATOM     19  O   UNL     1      36.127 -19.465 -20.516  0.00  0.00    -0.477 OA
ATOM     20  H   UNL     1      36.814 -18.834 -20.610  0.00  0.00    +0.295 HD
ENDBRANCH  18  19
ENDBRANCH   4  18
TORSDOF 5
ENDMDL
MODEL 6
REMARK VINA RESULT:      -7.5     11.845     13.933
REMARK  Name = 3364665
REMARK  5 active torsions:
REMARK  status: ('A' for Active; 'I' for Inactive)
REMARK    1  A    between atoms: C_1  and  N_8
REMARK    2  A    between atoms: C_2  and  N_14
REMARK    3  A    between atoms: C_3  and  O_15
REMARK    4  A    between atoms: C_4  and  C_18
REMARK    5  A    between atoms: C_18  and  O_19
REMARK                            x       y       z     vdW  Elec       q    Type
REMARK                         _______ _______ _______ _____ _____    ______ ____
ROOT
ATOM      1  C   UNL     1      34.790 -16.645 -22.283  0.00  0.00    +0.107 C 
ATOM      2  C   UNL     1      34.398 -16.383 -23.595  0.00  0.00    +0.159 C 
ATOM      3  C   UNL     1      34.588 -15.686 -21.290  0.00  0.00    +0.149 C 
ATOM      4  C   UNL     1      33.605 -14.202 -22.922  0.00  0.00    +0.080 C 
ATOM      5  C   UNL     1      33.805 -15.161 -23.915  0.00  0.00    +0.032 C 
ATOM      6  C   UNL     1      33.996 -14.464 -21.610  0.00  0.00    +0.044 C 
ENDROOT
BRANCH   1   8
ATOM      7  O   UNL     1      33.649 -19.058 -20.890  0.00  0.00    -0.275 OA
ATOM      8  N   UNL     1      35.385 -17.867 -21.948  0.00  0.00    -0.280 N 
ATOM      9  C   UNL     1      34.803 -18.958 -21.296  0.00  0.00    +0.227 C 
ATOM     10  C   UNL     1      35.784 -20.090 -21.123  0.00  0.00    +0.095 C 
ATOM     11  H   UNL     1      36.330 -17.972 -22.204  0.00  0.00    +0.155 HD
ENDBRANCH   1   8
BRANCH   2  14
ATOM     12  O   UNL     1      35.088 -16.970 -25.716  0.00  0.00    -0.126 OA
ATOM     13  O   UNL     1      34.254 -18.531 -24.418  0.00  0.00    -0.126 OA
ATOM     14  N   UNL     1      34.590 -17.342 -24.628  0.00  0.00    +0.059 N 
ENDBRANCH   2  14
BRANCH   3  15
ATOM     15  O   UNL     1      34.962 -15.920 -19.999  0.00  0.00    -0.504 OA
ATOM     16  H   UNL     1      34.816 -15.266 -19.344  0.00  0.00    +0.292 HD
ENDBRANCH   3  15
BRANCH   4  18
ATOM     17  O   UNL     1      33.483 -12.059 -23.981  0.00  0.00    -0.245 OA
ATOM     18  C   UNL     1      32.986 -12.928 -23.256  0.00  0.00    +0.338 C 
BRANCH  18  19
ATOM     19  O   UNL     1      31.765 -12.774 -22.675  0.00  0.00    -0.477 OA
ATOM     20  H   UNL     1      31.683 -12.284 -21.881  0.00  0.00    +0.295 HD
ENDBRANCH  18  19
ENDBRANCH   4  18
TORSDOF 5
ENDMDL
MODEL 7
REMARK VINA RESULT:      -7.5      1.860      2.710
REMARK  Name = 3364665
REMARK  5 active torsions:
REMARK  status: ('A' for Active; 'I' for Inactive)
REMARK    1  A    between atoms: C_1  and  N_8
REMARK    2  A    between atoms: C_2  and  N_14
REMARK    3  A    between atoms: C_3  and  O_15
REMARK    4  A    between atoms: C_4  and  C_18
REMARK    5  A    between atoms: C_18  and  O_19
REMARK                            x       y       z     vdW  Elec       q    Type
REMARK                         _______ _______ _______ _____ _____    ______ ____
ROOT
ATOM      1  C   UNL     1      36.324 -24.126 -14.000  0.00  0.00    +0.107 C 
ATOM      2  C   UNL     1      37.087 -23.736 -15.100  0.00  0.00    +0.159 C 
ATOM      3  C   UNL     1      36.808 -25.098 -13.125  0.00  0.00    +0.149 C 
ATOM      4  C   UNL     1      38.818 -25.291 -14.450  0.00  0.00    +0.080 C 
ATOM      5  C   UNL     1      38.335 -24.318 -15.324  0.00  0.00    +0.032 C 
ATOM      6  C   UNL     1      38.055 -25.681 -13.350  0.00  0.00    +0.044 C 
ENDROOT
BRANCH   1   8
ATOM      7  O   UNL     1      33.560 -25.115 -14.670  0.00  0.00    -0.275 OA
ATOM      8  N   UNL     1      35.070 -23.549 -13.763  0.00  0.00    -0.280 N 
ATOM      9  C   UNL     1      33.812 -24.057 -14.100  0.00  0.00    +0.227 C 
ATOM     10  C   UNL     1      32.704 -23.129 -13.669  0.00  0.00    +0.095 C 
ATOM     11  H   UNL     1      35.075 -22.680 -13.302  0.00  0.00    +0.155 HD
ENDBRANCH   1   8
BRANCH   2  14
ATOM     12  O   UNL     1      37.224 -21.649 -16.072  0.00  0.00    -0.126 OA
ATOM     13  O   UNL     1      35.618 -22.999 -16.717  0.00  0.00    -0.126 OA
ATOM     14  N   UNL     1      36.620 -22.745 -16.008  0.00  0.00    +0.059 N 
ENDBRANCH   2  14
BRANCH   3  15
ATOM     15  O   UNL     1      36.079 -25.496 -12.043  0.00  0.00    -0.504 OA
ATOM     16  H   UNL     1      35.374 -26.104 -12.151  0.00  0.00    +0.292 HD
ENDBRANCH   3  15
BRANCH   4  18
ATOM     17  O   UNL     1      40.867 -26.348 -13.809  0.00  0.00    -0.245 OA
ATOM     18  C   UNL     1      40.120 -25.898 -14.684  0.00  0.00    +0.338 C 
BRANCH  18  19
ATOM     19  O   UNL     1      40.451 -25.926 -16.003  0.00  0.00    -0.477 OA
ATOM     20  H   UNL     1      39.795 -25.773 -16.655  0.00  0.00    +0.295 HD
ENDBRANCH  18  19
ENDBRANCH   4  18
TORSDOF 5
ENDMDL
MODEL 8
REMARK VINA RESULT:      -7.5     12.531     13.946
REMARK  Name = 3364665
REMARK  5 active torsions:
REMARK  status: ('A' for Active; 'I' for Inactive)
REMARK    1  A    between atoms: C_1  and  N_8
REMARK    2  A    between atoms: C_2  and  N_14
REMARK    3  A    between atoms: C_3  and  O_15
REMARK    4  A    between atoms: C_4  and  C_18
REMARK    5  A    between atoms: C_18  and  O_19
REMARK                            x       y       z     vdW  Elec       q    Type
REMARK                         _______ _______ _______ _____ _____    ______ ____
ROOT
ATOM      1  C   UNL     1      34.117 -15.690 -24.162  0.00  0.00    +0.107 C 
ATOM      2  C   UNL     1      33.809 -15.470 -22.820  0.00  0.00    +0.159 C 
ATOM      3  C   UNL     1      34.722 -16.884 -24.553  0.00  0.00    +0.149 C 
ATOM      4  C   UNL     1      34.713 -17.639 -22.258  0.00  0.00    +0.080 C 
ATOM      5  C   UNL     1      34.106 -16.445 -21.868  0.00  0.00    +0.032 C 
ATOM      6  C   UNL     1      35.021 -17.859 -23.600  0.00  0.00    +0.044 C 
ENDROOT
BRANCH   1   8
ATOM      7  O   UNL     1      32.496 -15.880 -26.692  0.00  0.00    -0.275 OA
ATOM      8  N   UNL     1      33.823 -14.720 -25.128  0.00  0.00    -0.280 N 
ATOM      9  C   UNL     1      33.060 -14.867 -26.291  0.00  0.00    +0.227 C 
ATOM     10  C   UNL     1      32.980 -13.578 -27.070  0.00  0.00    +0.095 C 
ATOM     11  H   UNL     1      34.198 -13.824 -24.969  0.00  0.00    +0.155 HD
ENDBRANCH   1   8
BRANCH   2  14
ATOM     12  O   UNL     1      33.648 -13.169 -22.801  0.00  0.00    -0.126 OA
ATOM     13  O   UNL     1      32.203 -14.328 -21.623  0.00  0.00    -0.126 OA
ATOM     14  N   UNL     1      33.189 -14.262 -22.394  0.00  0.00    +0.059 N 
ENDBRANCH   2  14
BRANCH   3  15
ATOM     15  O   UNL     1      35.033 -17.122 -25.859  0.00  0.00    -0.504 OA
ATOM     16  H   UNL     1      35.542 -16.499 -26.340  0.00  0.00    +0.292 HD
ENDBRANCH   3  15
BRANCH   4  18
ATOM     17  O   UNL     1      36.030 -18.673 -20.548  0.00  0.00    -0.245 OA
ATOM     18  C   UNL     1      35.023 -18.656 -21.265  0.00  0.00    +0.338 C 
BRANCH  18  19
ATOM     19  O   UNL     1      34.069 -19.623 -21.194  0.00  0.00    -0.477 OA
ATOM     20  H   UNL     1      34.067 -20.228 -20.478  0.00  0.00    +0.295 HD
ENDBRANCH  18  19
ENDBRANCH   4  18
TORSDOF 5
ENDMDL
MODEL 9
REMARK VINA RESULT:      -7.3     11.667     13.379
REMARK  Name = 3364665
REMARK  5 active torsions:
REMARK  status: ('A' for Active; 'I' for Inactive)
REMARK    1  A    between atoms: C_1  and  N_8
REMARK    2  A    between atoms: C_2  and  N_14
REMARK    3  A    between atoms: C_3  and  O_15
REMARK    4  A    between atoms: C_4  and  C_18
REMARK    5  A    between atoms: C_18  and  O_19
REMARK                            x       y       z     vdW  Elec       q    Type
REMARK                         _______ _______ _______ _____ _____    ______ ____
ROOT
ATOM      1  C   UNL     1      34.531 -17.635 -22.743  0.00  0.00    +0.107 C 
ATOM      2  C   UNL     1      34.114 -16.355 -22.378  0.00  0.00    +0.159 C 
ATOM      3  C   UNL     1      34.624 -17.980 -24.091  0.00  0.00    +0.149 C 
ATOM      4  C   UNL     1      33.882 -15.767 -24.709  0.00  0.00    +0.080 C 
ATOM      5  C   UNL     1      33.790 -15.421 -23.361  0.00  0.00    +0.032 C 
ATOM      6  C   UNL     1      34.298 -17.046 -25.074  0.00  0.00    +0.044 C 
ENDROOT
BRANCH   1   8
ATOM      7  O   UNL     1      37.216 -18.603 -21.785  0.00  0.00    -0.275 OA
ATOM      8  N   UNL     1      34.860 -18.582 -21.765  0.00  0.00    -0.280 N 
ATOM      9  C   UNL     1      36.133 -18.995 -21.362  0.00  0.00    +0.227 C 
ATOM     10  C   UNL     1      36.061 -20.039 -20.275  0.00  0.00    +0.095 C 
ATOM     11  H   UNL     1      34.102 -19.010 -21.305  0.00  0.00    +0.155 HD
ENDBRANCH   1   8
BRANCH   2  14
ATOM     12  O   UNL     1      35.057 -15.901 -20.322  0.00  0.00    -0.126 OA
ATOM     13  O   UNL     1      32.879 -15.724 -20.536  0.00  0.00    -0.126 OA
ATOM     14  N   UNL     1      34.012 -15.975 -21.011  0.00  0.00    +0.059 N 
ENDBRANCH   2  14
BRANCH   3  15
ATOM     15  O   UNL     1      35.029 -19.226 -24.472  0.00  0.00    -0.504 OA
ATOM     16  H   UNL     1      34.401 -19.846 -24.789  0.00  0.00    +0.292 HD
ENDBRANCH   3  15
BRANCH   4  18
ATOM     17  O   UNL     1      33.538 -15.007 -26.952  0.00  0.00    -0.245 OA
ATOM     18  C   UNL     1      33.544 -14.792 -25.735  0.00  0.00    +0.338 C 
BRANCH  18  19
ATOM     19  O   UNL     1      33.222 -13.578 -25.214  0.00  0.00    -0.477 OA
ATOM     20  H   UNL     1      33.690 -13.247 -24.472  0.00  0.00    +0.295 HD
ENDBRANCH  18  19
ENDBRANCH   4  18
TORSDOF 5
ENDMDL
