MODEL 1
REMARK VINA RESULT:      -5.8      0.000      0.000
REMARK  Name = 9543528
REMARK  3 active torsions:
REMARK  status: ('A' for Active; 'I' for Inactive)
REMARK    1  A    between atoms: C_3  and  C_7
REMARK    2  A    between atoms: C_7  and  C_8
REMARK    3  A    between atoms: C_8  and  C_9
REMARK                            x       y       z     vdW  Elec       q    Type
REMARK                         _______ _______ _______ _____ _____    ______ ____
ROOT
ATOM      1  S   UNL     1      34.316 -22.210 -18.907  0.00  0.00    +0.042 S 
ATOM      2  O   UNL     1      33.969 -23.520 -19.553  0.00  0.00    -0.256 OA
ATOM      3  C   UNL     1      34.531 -20.431 -20.930  0.00  0.00    +0.014 C 
ATOM      4  C   UNL     1      35.858 -20.390 -20.180  0.00  0.00    +0.015 C 
ATOM      5  C   UNL     1      33.513 -20.891 -19.892  0.00  0.00    +0.092 C 
ATOM      6  C   UNL     1      35.984 -21.743 -19.501  0.00  0.00    +0.092 C 
ENDROOT
BRANCH   3   7
ATOM      7  C   UNL     1      34.165 -19.082 -21.531  0.00  0.00    +0.001 C 
BRANCH   7   8
ATOM      8  C   UNL     1      35.190 -18.637 -22.573  0.00  0.00    +0.000 C 
BRANCH   8   9
ATOM      9  C   UNL     1      34.822 -19.145 -23.967  0.00  0.00    +0.000 C 
ATOM     10  C   UNL     1      34.551 -17.996 -24.924  0.00  0.00    +0.000 C 
ENDBRANCH   8   9
ENDBRANCH   7   8
ENDBRANCH   3   7
TORSDOF 3
ENDMDL
MODEL 2
REMARK VINA RESULT:      -5.7      3.736      5.385
REMARK  Name = 9543528
REMARK  3 active torsions:
REMARK  status: ('A' for Active; 'I' for Inactive)
REMARK    1  A    between atoms: C_3  and  C_7
REMARK    2  A    between atoms: C_7  and  C_8
REMARK    3  A    between atoms: C_8  and  C_9
REMARK                            x       y       z     vdW  Elec       q    Type
REMARK                         _______ _______ _______ _____ _____    ______ ____
ROOT
ATOM      1  S   UNL     1      35.009 -17.410 -24.560  0.00  0.00    +0.042 S 
ATOM      2  O   UNL     1      33.839 -17.517 -25.495  0.00  0.00    -0.256 OA
ATOM      3  C   UNL     1      34.218 -18.592 -22.262  0.00  0.00    +0.014 C 
ATOM      4  C   UNL     1      34.646 -17.176 -21.891  0.00  0.00    +0.015 C 
ATOM      5  C   UNL     1      35.011 -18.919 -23.522  0.00  0.00    +0.092 C 
ATOM      6  C   UNL     1      34.481 -16.355 -23.159  0.00  0.00    +0.092 C 
ENDROOT
BRANCH   3   7
ATOM      7  C   UNL     1      34.484 -19.587 -21.143  0.00  0.00    +0.001 C 
BRANCH   7   8
ATOM      8  C   UNL     1      33.183 -20.136 -20.561  0.00  0.00    +0.000 C 
BRANCH   8   9
ATOM      9  C   UNL     1      33.450 -21.285 -19.588  0.00  0.00    +0.000 C 
ATOM     10  C   UNL     1      34.935 -21.590 -19.481  0.00  0.00    +0.000 C 
ENDBRANCH   8   9
ENDBRANCH   7   8
ENDBRANCH   3   7
TORSDOF 3
ENDMDL
MODEL 3
REMARK VINA RESULT:      -5.7      4.724      5.922
REMARK  Name = 9543528
REMARK  3 active torsions:
REMARK  status: ('A' for Active; 'I' for Inactive)
REMARK    1  A    between atoms: C_3  and  C_7
REMARK    2  A    between atoms: C_7  and  C_8
REMARK    3  A    between atoms: C_8  and  C_9
REMARK                            x       y       z     vdW  Elec       q    Type
REMARK                         _______ _______ _______ _____ _____    ______ ____
ROOT
ATOM      1  S   UNL     1      34.235 -14.414 -22.967  0.00  0.00    +0.042 S 
ATOM      2  O   UNL     1      32.934 -14.510 -23.711  0.00  0.00    -0.256 OA
ATOM      3  C   UNL     1      34.596 -16.831 -21.814  0.00  0.00    +0.014 C 
ATOM      4  C   UNL     1      34.642 -15.806 -20.686  0.00  0.00    +0.015 C 
ATOM      5  C   UNL     1      35.031 -16.062 -23.055  0.00  0.00    +0.092 C 
ATOM      6  C   UNL     1      33.850 -14.611 -21.188  0.00  0.00    +0.092 C 
ENDROOT
BRANCH   3   7
ATOM      7  C   UNL     1      35.490 -18.031 -21.542  0.00  0.00    +0.001 C 
BRANCH   7   8
ATOM      8  C   UNL     1      34.788 -19.343 -21.891  0.00  0.00    +0.000 C 
BRANCH   8   9
ATOM      9  C   UNL     1      34.380 -20.107 -20.631  0.00  0.00    +0.000 C 
ATOM     10  C   UNL     1      32.871 -20.124 -20.454  0.00  0.00    +0.000 C 
ENDBRANCH   8   9
ENDBRANCH   7   8
ENDBRANCH   3   7
TORSDOF 3
ENDMDL
MODEL 4
REMARK VINA RESULT:      -5.7      3.778      5.388
REMARK  Name = 9543528
REMARK  3 active torsions:
REMARK  status: ('A' for Active; 'I' for Inactive)
REMARK    1  A    between atoms: C_3  and  C_7
REMARK    2  A    between atoms: C_7  and  C_8
REMARK    3  A    between atoms: C_8  and  C_9
REMARK                            x       y       z     vdW  Elec       q    Type
REMARK                         _______ _______ _______ _____ _____    ______ ____
ROOT
ATOM      1  S   UNL     1      34.196 -16.417 -23.402  0.00  0.00    +0.042 S 
ATOM      2  O   UNL     1      35.295 -15.400 -23.292  0.00  0.00    -0.256 OA
ATOM      3  C   UNL     1      35.148 -18.652 -22.218  0.00  0.00    +0.014 C 
ATOM      4  C   UNL     1      34.753 -19.052 -23.635  0.00  0.00    +0.015 C 
ATOM      5  C   UNL     1      34.265 -17.453 -21.893  0.00  0.00    +0.092 C 
ATOM      6  C   UNL     1      34.828 -17.776 -24.455  0.00  0.00    +0.092 C 
ENDROOT
BRANCH   3   7
ATOM      7  C   UNL     1      34.961 -19.787 -21.223  0.00  0.00    +0.001 C 
BRANCH   7   8
ATOM      8  C   UNL     1      33.525 -19.846 -20.705  0.00  0.00    +0.000 C 
BRANCH   8   9
ATOM      9  C   UNL     1      33.324 -21.028 -19.756  0.00  0.00    +0.000 C 
ATOM     10  C   UNL     1      34.649 -21.669 -19.378  0.00  0.00    +0.000 C 
ENDBRANCH   8   9
ENDBRANCH   7   8
ENDBRANCH   3   7
TORSDOF 3
ENDMDL
MODEL 5
REMARK VINA RESULT:      -5.7      0.998      1.590
REMARK  Name = 9543528
REMARK  3 active torsions:
REMARK  status: ('A' for Active; 'I' for Inactive)
REMARK    1  A    between atoms: C_3  and  C_7
REMARK    2  A    between atoms: C_7  and  C_8
REMARK    3  A    between atoms: C_8  and  C_9
REMARK                            x       y       z     vdW  Elec       q    Type
REMARK                         _______ _______ _______ _____ _____    ______ ____
ROOT
ATOM      1  S   UNL     1      34.329 -22.226 -18.879  0.00  0.00    +0.042 S 
ATOM      2  O   UNL     1      33.971 -23.523 -19.545  0.00  0.00    -0.256 OA
ATOM      3  C   UNL     1      34.385 -20.382 -20.854  0.00  0.00    +0.014 C 
ATOM      4  C   UNL     1      35.754 -20.335 -20.184  0.00  0.00    +0.015 C 
ATOM      5  C   UNL     1      33.441 -20.896 -19.773  0.00  0.00    +0.092 C 
ATOM      6  C   UNL     1      35.948 -21.705 -19.557  0.00  0.00    +0.092 C 
ENDROOT
BRANCH   3   7
ATOM      7  C   UNL     1      33.956 -19.025 -21.390  0.00  0.00    +0.001 C 
BRANCH   7   8
ATOM      8  C   UNL     1      34.894 -18.537 -22.493  0.00  0.00    +0.000 C 
BRANCH   8   9
ATOM      9  C   UNL     1      35.182 -17.041 -22.356  0.00  0.00    +0.000 C 
ATOM     10  C   UNL     1      34.845 -16.535 -20.964  0.00  0.00    +0.000 C 
ENDBRANCH   8   9
ENDBRANCH   7   8
ENDBRANCH   3   7
TORSDOF 3
ENDMDL
MODEL 6
REMARK VINA RESULT:      -5.6      1.318      1.782
REMARK  Name = 9543528
REMARK  3 active torsions:
REMARK  status: ('A' for Active; 'I' for Inactive)
REMARK    1  A    between atoms: C_3  and  C_7
REMARK    2  A    between atoms: C_7  and  C_8
REMARK    3  A    between atoms: C_8  and  C_9
REMARK                            x       y       z     vdW  Elec       q    Type
REMARK                         _______ _______ _______ _____ _____    ______ ____
ROOT
ATOM      1  S   UNL     1      35.275 -21.868 -19.613  0.00  0.00    +0.042 S 
ATOM      2  O   UNL     1      35.970 -21.499 -18.334  0.00  0.00    -0.256 OA
ATOM      3  C   UNL     1      34.387 -19.540 -20.659  0.00  0.00    +0.014 C 
ATOM      4  C   UNL     1      33.165 -20.440 -20.516  0.00  0.00    +0.015 C 
ATOM      5  C   UNL     1      35.562 -20.501 -20.797  0.00  0.00    +0.092 C 
ATOM      6  C   UNL     1      33.510 -21.424 -19.411  0.00  0.00    +0.092 C 
ENDROOT
BRANCH   3   7
ATOM      7  C   UNL     1      34.275 -18.597 -21.848  0.00  0.00    +0.001 C 
BRANCH   7   8
ATOM      8  C   UNL     1      35.273 -18.962 -22.946  0.00  0.00    +0.000 C 
BRANCH   8   9
ATOM      9  C   UNL     1      34.607 -18.962 -24.323  0.00  0.00    +0.000 C 
ATOM     10  C   UNL     1      34.613 -17.576 -24.945  0.00  0.00    +0.000 C 
ENDBRANCH   8   9
ENDBRANCH   7   8
ENDBRANCH   3   7
TORSDOF 3
ENDMDL
MODEL 7
REMARK VINA RESULT:      -5.3      5.028      6.617
REMARK  Name = 9543528
REMARK  3 active torsions:
REMARK  status: ('A' for Active; 'I' for Inactive)
REMARK    1  A    between atoms: C_3  and  C_7
REMARK    2  A    between atoms: C_7  and  C_8
REMARK    3  A    between atoms: C_8  and  C_9
REMARK                            x       y       z     vdW  Elec       q    Type
REMARK                         _______ _______ _______ _____ _____    ______ ____
ROOT
ATOM      1  S   UNL     1      33.160 -14.381 -24.260  0.00  0.00    +0.042 S 
ATOM      2  O   UNL     1      33.924 -13.109 -24.481  0.00  0.00    -0.256 OA
ATOM      3  C   UNL     1      35.011 -16.245 -23.626  0.00  0.00    +0.014 C 
ATOM      4  C   UNL     1      34.255 -16.785 -24.835  0.00  0.00    +0.015 C 
ATOM      5  C   UNL     1      34.025 -15.309 -22.938  0.00  0.00    +0.092 C 
ATOM      6  C   UNL     1      33.702 -15.564 -25.549  0.00  0.00    +0.092 C 
ENDROOT
BRANCH   3   7
ATOM      7  C   UNL     1      35.489 -17.354 -22.700  0.00  0.00    +0.001 C 
BRANCH   7   8
ATOM      8  C   UNL     1      34.727 -18.655 -22.946  0.00  0.00    +0.000 C 
BRANCH   8   9
ATOM      9  C   UNL     1      34.812 -19.586 -21.736  0.00  0.00    +0.000 C 
ATOM     10  C   UNL     1      33.491 -19.649 -20.988  0.00  0.00    +0.000 C 
ENDBRANCH   8   9
ENDBRANCH   7   8
ENDBRANCH   3   7
TORSDOF 3
ENDMDL
MODEL 8
REMARK VINA RESULT:      -5.3      5.870      7.868
REMARK  Name = 9543528
REMARK  3 active torsions:
REMARK  status: ('A' for Active; 'I' for Inactive)
REMARK    1  A    between atoms: C_3  and  C_7
REMARK    2  A    between atoms: C_7  and  C_8
REMARK    3  A    between atoms: C_8  and  C_9
REMARK                            x       y       z     vdW  Elec       q    Type
REMARK                         _______ _______ _______ _____ _____    ______ ____
ROOT
ATOM      1  S   UNL     1      27.810 -22.652 -15.944  0.00  0.00    +0.042 S 
ATOM      2  O   UNL     1      27.701 -21.710 -17.107  0.00  0.00    -0.256 OA
ATOM      3  C   UNL     1      30.433 -23.273 -15.749  0.00  0.00    +0.014 C 
ATOM      4  C   UNL     1      29.689 -24.596 -15.893  0.00  0.00    +0.015 C 
ATOM      5  C   UNL     1      29.417 -22.322 -15.128  0.00  0.00    +0.092 C 
ATOM      6  C   UNL     1      28.391 -24.257 -16.606  0.00  0.00    +0.092 C 
ENDROOT
BRANCH   3   7
ATOM      7  C   UNL     1      31.687 -23.405 -14.898  0.00  0.00    +0.001 C 
BRANCH   7   8
ATOM      8  C   UNL     1      32.951 -23.370 -15.756  0.00  0.00    +0.000 C 
BRANCH   8   9
ATOM      9  C   UNL     1      32.620 -23.088 -17.222  0.00  0.00    +0.000 C 
ATOM     10  C   UNL     1      33.873 -22.789 -18.028  0.00  0.00    +0.000 C 
ENDBRANCH   8   9
ENDBRANCH   7   8
ENDBRANCH   3   7
TORSDOF 3
ENDMDL
MODEL 9
REMARK VINA RESULT:      -5.3      2.790      3.952
REMARK  Name = 9543528
REMARK  3 active torsions:
REMARK  status: ('A' for Active; 'I' for Inactive)
REMARK    1  A    between atoms: C_3  and  C_7
REMARK    2  A    between atoms: C_7  and  C_8
REMARK    3  A    between atoms: C_8  and  C_9
REMARK                            x       y       z     vdW  Elec       q    Type
REMARK                         _______ _______ _______ _____ _____    ______ ____
ROOT
ATOM      1  S   UNL     1      35.286 -23.086 -15.783  0.00  0.00    +0.042 S 
ATOM      2  O   UNL     1      35.384 -24.577 -15.925  0.00  0.00    -0.256 OA
ATOM      3  C   UNL     1      36.491 -22.062 -17.975  0.00  0.00    +0.014 C 
ATOM      4  C   UNL     1      37.208 -21.460 -16.771  0.00  0.00    +0.015 C 
ATOM      5  C   UNL     1      35.092 -22.393 -17.468  0.00  0.00    +0.092 C 
ATOM      6  C   UNL     1      36.997 -22.448 -15.636  0.00  0.00    +0.092 C 
ENDROOT
BRANCH   3   7
ATOM      7  C   UNL     1      36.459 -21.112 -19.162  0.00  0.00    +0.001 C 
BRANCH   7   8
ATOM      8  C   UNL     1      35.304 -21.437 -20.108  0.00  0.00    +0.000 C 
BRANCH   8   9
ATOM      9  C   UNL     1      34.533 -20.175 -20.498  0.00  0.00    +0.000 C 
ATOM     10  C   UNL     1      33.039 -20.345 -20.275  0.00  0.00    +0.000 C 
ENDBRANCH   8   9
ENDBRANCH   7   8
ENDBRANCH   3   7
TORSDOF 3
ENDMDL
