MODEL 1
REMARK VINA RESULT:      -8.1      0.000      0.000
REMARK  Name = 25227462
REMARK  4 active torsions:
REMARK  status: ('A' for Active; 'I' for Inactive)
REMARK    1  A    between atoms: N_6  and  C_28
REMARK    2  A    between atoms: C_28  and  C_29
REMARK    3  A    between atoms: C_28  and  C_35
REMARK    4  A    between atoms: C_35  and  N_36
REMARK                            x       y       z     vdW  Elec       q    Type
REMARK                         _______ _______ _______ _____ _____    ______ ____
ROOT
ATOM      1  S   UNL     1      33.340 -12.654 -25.991  0.00  0.00    -0.098 S 
ATOM      2  O   UNL     1      31.817  -4.285 -22.870  0.00  0.00    -0.253 OA
ATOM      3  N   UNL     1      32.078  -6.593 -22.891  0.00  0.00    -0.258 N 
ATOM      4  N   UNL     1      31.901  -9.241 -20.435  0.00  0.00    -0.277 N 
ATOM      5  N   UNL     1      32.137 -10.466 -20.968  0.00  0.00    -0.158 NA
ATOM      6  N   UNL     1      32.310  -5.329 -24.860  0.00  0.00    -0.289 N 
ATOM      7  N   UNL     1      32.643 -11.132 -23.229  0.00  0.00    -0.274 N 
ATOM      8  N   UNL     1      32.657 -13.254 -22.081  0.00  0.00    -0.332 NA
ATOM      9  N   UNL     1      33.104 -15.350 -23.205  0.00  0.00    -0.347 NA
ATOM     10  C   UNL     1      31.816  -6.797 -21.404  0.00  0.00    +0.097 C 
ATOM     11  C   UNL     1      31.971  -8.267 -21.365  0.00  0.00    +0.068 A 
ATOM     12  C   UNL     1      32.363  -7.874 -23.635  0.00  0.00    +0.126 C 
ATOM     13  C   UNL     1      32.263  -8.855 -22.556  0.00  0.00    +0.046 A 
ATOM     14  C   UNL     1      32.875  -6.107 -20.542  0.00  0.00    +0.026 C 
ATOM     15  C   UNL     1      30.397  -6.382 -21.017  0.00  0.00    +0.026 C 
ATOM     16  C   UNL     1      32.358 -10.214 -22.271  0.00  0.00    +0.152 A 
ATOM     17  C   UNL     1      32.052  -5.325 -23.492  0.00  0.00    +0.305 C 
ATOM     18  C   UNL     1      32.802 -12.568 -23.232  0.00  0.00    +0.191 C 
ATOM     19  C   UNL     1      33.103 -13.257 -24.401  0.00  0.00    +0.172 C 
ATOM     20  C   UNL     1      33.247 -14.643 -24.358  0.00  0.00    +0.140 C 
ATOM     21  C   UNL     1      32.815 -14.589 -22.136  0.00  0.00    +0.115 C 
ATOM     22  C   UNL     1      33.554 -15.188 -25.641  0.00  0.00    +0.036 C 
ATOM     23  C   UNL     1      33.633 -14.219 -26.613  0.00  0.00    +0.034 C 
ATOM     24  C   UNL     1      32.649 -15.318 -20.844  0.00  0.00    +0.143 C 
ATOM     25  H   UNL     1      31.701  -9.082 -19.484  0.00  0.00    +0.189 HD
ATOM     26  H   UNL     1      32.491  -6.186 -25.308  0.00  0.00    +0.151 HD
ATOM     27  H   UNL     1      32.768 -10.731 -24.120  0.00  0.00    +0.156 HD
ENDROOT
BRANCH   6  28
ATOM     28  C   UNL     1      32.322  -4.114 -25.642  0.00  0.00    +0.075 C 
BRANCH  28  29
ATOM     29  C   UNL     1      33.184  -4.284 -26.876  0.00  0.00    -0.006 C 
ATOM     30  C   UNL     1      34.480  -4.789 -26.758  0.00  0.00    -0.003 C 
ATOM     31  C   UNL     1      32.683  -3.935 -28.131  0.00  0.00    -0.003 C 
ATOM     32  C   UNL     1      35.274  -4.945 -27.894  0.00  0.00    -0.000 C 
ATOM     33  C   UNL     1      33.476  -4.092 -29.267  0.00  0.00    -0.000 C 
ATOM     34  C   UNL     1      34.772  -4.596 -29.148  0.00  0.00    -0.000 C 
ENDBRANCH  28  29
BRANCH  28  35
ATOM     35  C   UNL     1      30.898  -3.661 -26.005  0.00  0.00    -0.053 C 
BRANCH  35  36
ATOM     36  N   UNL     1      30.432  -2.612 -25.101  0.00  0.00    +0.385 N 
ATOM     37  C   UNL     1      29.417  -1.786 -25.753  0.00  0.00    -0.101 C 
ATOM     38  C   UNL     1      31.553  -1.786 -24.654  0.00  0.00    -0.101 C 
ATOM     39  H   UNL     1      30.012  -3.056 -24.284  0.00  0.00    -0.080 HD
ENDBRANCH  35  36
ENDBRANCH  28  35
ENDBRANCH   6  28
TORSDOF 4
ENDMDL
MODEL 2
REMARK VINA RESULT:      -5.8      9.456     14.145
REMARK  Name = 25227462
REMARK  4 active torsions:
REMARK  status: ('A' for Active; 'I' for Inactive)
REMARK    1  A    between atoms: N_6  and  C_28
REMARK    2  A    between atoms: C_28  and  C_29
REMARK    3  A    between atoms: C_28  and  C_35
REMARK    4  A    between atoms: C_35  and  N_36
REMARK                            x       y       z     vdW  Elec       q    Type
REMARK                         _______ _______ _______ _____ _____    ______ ____
ROOT
ATOM      1  S   UNL     1      28.757 -22.036 -17.227  0.00  0.00    -0.098 S 
ATOM      2  O   UNL     1      36.204 -19.310 -21.611  0.00  0.00    -0.253 OA
ATOM      3  N   UNL     1      34.851 -20.455 -20.112  0.00  0.00    -0.258 N 
ATOM      4  N   UNL     1      35.368 -22.932 -17.527  0.00  0.00    -0.277 N 
ATOM      5  N   UNL     1      34.215 -23.294 -16.911  0.00  0.00    -0.158 NA
ATOM      6  N   UNL     1      33.942 -18.897 -21.618  0.00  0.00    -0.289 N 
ATOM      7  N   UNL     1      31.943 -22.568 -17.262  0.00  0.00    -0.274 N 
ATOM      8  N   UNL     1      31.673 -24.167 -15.475  0.00  0.00    -0.332 NA
ATOM      9  N   UNL     1      29.523 -24.690 -14.496  0.00  0.00    -0.347 NA
ATOM     10  C   UNL     1      35.973 -21.255 -19.462  0.00  0.00    +0.097 C 
ATOM     11  C   UNL     1      35.155 -22.009 -18.487  0.00  0.00    +0.068 A 
ATOM     12  C   UNL     1      33.488 -20.749 -19.533  0.00  0.00    +0.126 C 
ATOM     13  C   UNL     1      33.822 -21.744 -18.517  0.00  0.00    +0.046 A 
ATOM     14  C   UNL     1      36.651 -22.196 -20.459  0.00  0.00    +0.026 C 
ATOM     15  C   UNL     1      36.977 -20.346 -18.752  0.00  0.00    +0.026 C 
ATOM     16  C   UNL     1      33.273 -22.557 -17.529  0.00  0.00    +0.152 A 
ATOM     17  C   UNL     1      35.084 -19.539 -21.148  0.00  0.00    +0.305 C 
ATOM     18  C   UNL     1      31.109 -23.285 -16.324  0.00  0.00    +0.191 C 
ATOM     19  C   UNL     1      29.735 -23.083 -16.281  0.00  0.00    +0.172 C 
ATOM     20  C   UNL     1      28.970 -23.796 -15.360  0.00  0.00    +0.140 C 
ATOM     21  C   UNL     1      30.854 -24.809 -14.622  0.00  0.00    +0.115 C 
ATOM     22  C   UNL     1      27.584 -23.468 -15.450  0.00  0.00    +0.036 C 
ATOM     23  C   UNL     1      27.333 -22.527 -16.422  0.00  0.00    +0.034 C 
ATOM     24  C   UNL     1      31.511 -25.780 -13.697  0.00  0.00    +0.143 C 
ATOM     25  H   UNL     1      36.254 -23.298 -17.300  0.00  0.00    +0.189 HD
ATOM     26  H   UNL     1      33.071 -19.117 -21.214  0.00  0.00    +0.151 HD
ATOM     27  H   UNL     1      31.432 -21.949 -17.832  0.00  0.00    +0.156 HD
ENDROOT
BRANCH   6  28
ATOM     28  C   UNL     1      33.993 -17.920 -22.681  0.00  0.00    +0.075 C 
BRANCH  28  29
ATOM     29  C   UNL     1      33.799 -16.522 -22.130  0.00  0.00    -0.006 C 
ATOM     30  C   UNL     1      32.973 -16.317 -21.024  0.00  0.00    -0.003 C 
ATOM     31  C   UNL     1      34.447 -15.441 -22.727  0.00  0.00    -0.003 C 
ATOM     32  C   UNL     1      32.795 -15.030 -20.517  0.00  0.00    -0.000 C 
ATOM     33  C   UNL     1      34.269 -14.154 -22.219  0.00  0.00    -0.000 C 
ATOM     34  C   UNL     1      33.443 -13.949 -21.115  0.00  0.00    -0.000 C 
ENDBRANCH  28  29
BRANCH  28  35
ATOM     35  C   UNL     1      35.294 -18.033 -23.492  0.00  0.00    -0.053 C 
BRANCH  35  36
ATOM     36  N   UNL     1      35.024 -18.439 -24.869  0.00  0.00    +0.385 N 
ATOM     37  C   UNL     1      34.093 -17.508 -25.505  0.00  0.00    -0.101 C 
ATOM     38  C   UNL     1      34.490 -19.800 -24.906  0.00  0.00    -0.101 C 
ATOM     39  H   UNL     1      35.903 -18.422 -25.387  0.00  0.00    -0.080 HD
ENDBRANCH  35  36
ENDBRANCH  28  35
ENDBRANCH   6  28
TORSDOF 4
ENDMDL
