MODEL 1
REMARK VINA RESULT:     -11.1      0.000      0.000
REMARK  Name = 24893974
REMARK  11 active torsions:
REMARK  status: ('A' for Active; 'I' for Inactive)
REMARK    1  A    between atoms: C_1  and  C_4
REMARK    2  A    between atoms: C_1  and  C_20
REMARK    3  A    between atoms: N_3  and  C_6
REMARK    4  A    between atoms: C_7  and  C_14
REMARK    5  A    between atoms: N_13  and  C_16
REMARK    6  A    between atoms: C_16  and  C_17
REMARK    7  A    between atoms: C_17  and  C_18
REMARK    8  A    between atoms: C_20  and  C_21
REMARK    9  A    between atoms: C_21  and  C_22
REMARK   10  A    between atoms: C_22  and  C_23
REMARK   11  A    between atoms: C_23  and  N_24
REMARK                            x       y       z     vdW  Elec       q    Type
REMARK                         _______ _______ _______ _____ _____    ______ ____
ROOT
ATOM      1  C   UNL     1      34.152 -21.321 -19.490  0.00  0.00    +0.085 C 
ENDROOT
BRANCH   1   4
ATOM      2  O   UNL     1      32.490 -20.242 -20.864  0.00  0.00    -0.275 OA
ATOM      3  N   UNL     1      34.761 -19.745 -21.191  0.00  0.00    -0.284 N 
ATOM      4  C   UNL     1      33.678 -20.373 -20.584  0.00  0.00    +0.226 C 
ATOM      5  H   UNL     1      35.652 -19.985 -20.847  0.00  0.00    +0.155 HD
BRANCH   3   6
ATOM      6  C   UNL     1      34.732 -18.799 -22.244  0.00  0.00    +0.050 C 
ATOM      7  C   UNL     1      34.535 -16.513 -22.998  0.00  0.00    +0.055 C 
ATOM      8  C   UNL     1      34.563 -17.443 -21.960  0.00  0.00    +0.019 C 
ATOM      9  C   UNL     1      34.872 -19.224 -23.565  0.00  0.00    +0.015 C 
ATOM     10  C   UNL     1      34.675 -16.937 -24.320  0.00  0.00    +0.005 C 
ATOM     11  C   UNL     1      34.844 -18.292 -24.604  0.00  0.00    +0.001 C 
BRANCH   7  14
ATOM     12  O   UNL     1      34.706 -14.637 -21.603  0.00  0.00    -0.270 OA
ATOM     13  N   UNL     1      33.814 -14.302 -23.717  0.00  0.00    -0.301 N 
ATOM     14  C   UNL     1      34.360 -15.099 -22.704  0.00  0.00    +0.246 C 
ATOM     15  H   UNL     1      33.562 -14.734 -24.564  0.00  0.00    +0.150 HD
BRANCH  13  16
ATOM     16  C   UNL     1      33.600 -12.879 -23.585  0.00  0.00    +0.090 C 
BRANCH  16  17
ATOM     17  C   UNL     1      33.875 -12.127 -24.882  0.00  0.00    +0.021 C 
BRANCH  17  18
ATOM     18  C   UNL     1      34.438 -10.723 -24.642  0.00  0.00    +0.002 C 
ATOM     19  C   UNL     1      35.422 -10.325 -25.730  0.00  0.00    +0.000 C 
ENDBRANCH  17  18
ENDBRANCH  16  17
ENDBRANCH  13  16
ENDBRANCH   7  14
ENDBRANCH   3   6
ENDBRANCH   1   4
BRANCH   1  20
ATOM     20  C   UNL     1      35.670 -21.348 -19.310  0.00  0.00    +0.010 C 
BRANCH  20  21
ATOM     21  C   UNL     1      36.085 -21.911 -17.946  0.00  0.00    +0.002 C 
BRANCH  21  22
ATOM     22  C   UNL     1      34.911 -22.615 -17.258  0.00  0.00    +0.021 C 
BRANCH  22  23
ATOM     23  C   UNL     1      35.216 -22.988 -15.810  0.00  0.00    +0.088 C 
BRANCH  23  24
ATOM     24  N   UNL     1      36.546 -23.534 -15.690  0.00  0.00    -0.320 N 
ATOM     25  N   UNL     1      39.352 -24.727 -15.367  0.00  0.00    -0.270 NA
ATOM     26  N   UNL     1      36.127 -24.601 -13.603  0.00  0.00    -0.232 NA
ATOM     27  N   UNL     1      39.974 -25.966 -13.621  0.00  0.00    -0.307 N 
ATOM     28  N   UNL     1      37.847 -25.889 -12.447  0.00  0.00    -0.232 NA
ATOM     29  C   UNL     1      36.967 -24.309 -14.621  0.00  0.00    +0.124 C 
ATOM     30  C   UNL     1      38.254 -24.806 -14.557  0.00  0.00    +0.164 C 
ATOM     31  C   UNL     1      38.666 -25.580 -13.481  0.00  0.00    +0.125 C 
ATOM     32  C   UNL     1      40.357 -25.437 -14.764  0.00  0.00    +0.163 C 
ATOM     33  C   UNL     1      36.612 -25.363 -12.593  0.00  0.00    +0.252 C 
ATOM     34  H   UNL     1      37.192 -23.344 -16.410  0.00  0.00    +0.148 HD
ATOM     35  H   UNL     1      39.411 -24.249 -16.225  0.00  0.00    +0.126 HD
ATOM     36  H   UNL     1      40.508 -26.516 -13.004  0.00  0.00    +0.149 HD
ENDBRANCH  23  24
ENDBRANCH  22  23
ENDBRANCH  21  22
ENDBRANCH  20  21
ENDBRANCH   1  20
TORSDOF 11
ENDMDL
MODEL 2
REMARK VINA RESULT:     -11.1      2.715      4.421
REMARK  Name = 24893974
REMARK  11 active torsions:
REMARK  status: ('A' for Active; 'I' for Inactive)
REMARK    1  A    between atoms: C_1  and  C_4
REMARK    2  A    between atoms: C_1  and  C_20
REMARK    3  A    between atoms: N_3  and  C_6
REMARK    4  A    between atoms: C_7  and  C_14
REMARK    5  A    between atoms: N_13  and  C_16
REMARK    6  A    between atoms: C_16  and  C_17
REMARK    7  A    between atoms: C_17  and  C_18
REMARK    8  A    between atoms: C_20  and  C_21
REMARK    9  A    between atoms: C_21  and  C_22
REMARK   10  A    between atoms: C_22  and  C_23
REMARK   11  A    between atoms: C_23  and  N_24
REMARK                            x       y       z     vdW  Elec       q    Type
REMARK                         _______ _______ _______ _____ _____    ______ ____
ROOT
ATOM      1  C   UNL     1      31.297 -23.337 -16.844  0.00  0.00    +0.085 C 
ENDROOT
BRANCH   1   4
ATOM      2  O   UNL     1      33.687 -23.223 -16.553  0.00  0.00    -0.275 OA
ATOM      3  N   UNL     1      32.703 -22.225 -18.437  0.00  0.00    -0.284 N 
ATOM      4  C   UNL     1      32.713 -22.941 -17.244  0.00  0.00    +0.226 C 
ATOM      5  H   UNL     1      31.821 -22.076 -18.847  0.00  0.00    +0.155 HD
BRANCH   3   6
ATOM      6  C   UNL     1      33.814 -21.688 -19.130  0.00  0.00    +0.050 C 
ATOM      7  C   UNL     1      34.749 -20.040 -20.628  0.00  0.00    +0.055 C 
ATOM      8  C   UNL     1      33.654 -20.568 -19.946  0.00  0.00    +0.019 C 
ATOM      9  C   UNL     1      35.071 -22.280 -18.996  0.00  0.00    +0.015 C 
ATOM     10  C   UNL     1      36.005 -20.631 -20.495  0.00  0.00    +0.005 C 
ATOM     11  C   UNL     1      36.167 -21.750 -19.678  0.00  0.00    +0.001 C 
BRANCH   7  14
ATOM     12  O   UNL     1      34.186 -18.996 -22.651  0.00  0.00    -0.270 OA
ATOM     13  N   UNL     1      34.865 -17.625 -20.908  0.00  0.00    -0.301 N 
ATOM     14  C   UNL     1      34.582 -18.872 -21.479  0.00  0.00    +0.246 C 
ATOM     15  H   UNL     1      35.175 -17.600 -19.975  0.00  0.00    +0.150 HD
BRANCH  13  16
ATOM     16  C   UNL     1      34.727 -16.373 -21.616  0.00  0.00    +0.090 C 
BRANCH  16  17
ATOM     17  C   UNL     1      34.351 -15.220 -20.692  0.00  0.00    +0.021 C 
BRANCH  17  18
ATOM     18  C   UNL     1      32.839 -14.987 -20.626  0.00  0.00    +0.002 C 
ATOM     19  C   UNL     1      32.476 -13.577 -21.061  0.00  0.00    +0.000 C 
ENDBRANCH  17  18
ENDBRANCH  16  17
ENDBRANCH  13  16
ENDBRANCH   7  14
ENDBRANCH   3   6
ENDBRANCH   1   4
BRANCH   1  20
ATOM     20  C   UNL     1      30.967 -23.055 -15.378  0.00  0.00    +0.010 C 
BRANCH  20  21
ATOM     21  C   UNL     1      30.416 -24.289 -14.656  0.00  0.00    +0.002 C 
BRANCH  21  22
ATOM     22  C   UNL     1      31.499 -24.963 -13.808  0.00  0.00    +0.021 C 
BRANCH  22  23
ATOM     23  C   UNL     1      32.679 -24.040 -13.518  0.00  0.00    +0.088 C 
BRANCH  23  24
ATOM     24  N   UNL     1      33.930 -24.703 -13.796  0.00  0.00    -0.320 N 
ATOM     25  N   UNL     1      36.617 -26.084 -14.319  0.00  0.00    -0.270 NA
ATOM     26  N   UNL     1      35.013 -23.898 -11.833  0.00  0.00    -0.232 NA
ATOM     27  N   UNL     1      38.376 -25.919 -12.959  0.00  0.00    -0.307 N 
ATOM     28  N   UNL     1      37.325 -24.474 -11.311  0.00  0.00    -0.232 NA
ATOM     29  C   UNL     1      35.042 -24.625 -12.973  0.00  0.00    +0.124 C 
ATOM     30  C   UNL     1      36.216 -25.281 -13.289  0.00  0.00    +0.164 C 
ATOM     31  C   UNL     1      37.325 -25.194 -12.458  0.00  0.00    +0.125 C 
ATOM     32  C   UNL     1      37.917 -26.441 -14.077  0.00  0.00    +0.163 C 
ATOM     33  C   UNL     1      36.139 -23.868 -11.083  0.00  0.00    +0.252 C 
ATOM     34  H   UNL     1      33.996 -25.243 -14.617  0.00  0.00    +0.148 HD
ATOM     35  H   UNL     1      36.072 -26.357 -15.092  0.00  0.00    +0.126 HD
ATOM     36  H   UNL     1      39.273 -26.025 -12.569  0.00  0.00    +0.149 HD
ENDBRANCH  23  24
ENDBRANCH  22  23
ENDBRANCH  21  22
ENDBRANCH  20  21
ENDBRANCH   1  20
TORSDOF 11
ENDMDL
MODEL 3
REMARK VINA RESULT:     -11.0      1.803      2.347
REMARK  Name = 24893974
REMARK  11 active torsions:
REMARK  status: ('A' for Active; 'I' for Inactive)
REMARK    1  A    between atoms: C_1  and  C_4
REMARK    2  A    between atoms: C_1  and  C_20
REMARK    3  A    between atoms: N_3  and  C_6
REMARK    4  A    between atoms: C_7  and  C_14
REMARK    5  A    between atoms: N_13  and  C_16
REMARK    6  A    between atoms: C_16  and  C_17
REMARK    7  A    between atoms: C_17  and  C_18
REMARK    8  A    between atoms: C_20  and  C_21
REMARK    9  A    between atoms: C_21  and  C_22
REMARK   10  A    between atoms: C_22  and  C_23
REMARK   11  A    between atoms: C_23  and  N_24
REMARK                            x       y       z     vdW  Elec       q    Type
REMARK                         _______ _______ _______ _____ _____    ______ ____
ROOT
ATOM      1  C   UNL     1      35.940 -20.668 -20.263  0.00  0.00    +0.085 C 
ENDROOT
BRANCH   1   4
ATOM      2  O   UNL     1      33.789 -19.859 -20.994  0.00  0.00    -0.275 OA
ATOM      3  N   UNL     1      35.643 -18.420 -21.045  0.00  0.00    -0.284 N 
ATOM      4  C   UNL     1      34.976 -19.616 -20.800  0.00  0.00    +0.226 C 
ATOM      5  H   UNL     1      36.608 -18.411 -20.846  0.00  0.00    +0.155 HD
BRANCH   3   6
ATOM      6  C   UNL     1      35.096 -17.214 -21.545  0.00  0.00    +0.050 C 
ATOM      7  C   UNL     1      34.369 -15.859 -23.407  0.00  0.00    +0.055 C 
ATOM      8  C   UNL     1      34.908 -17.048 -22.917  0.00  0.00    +0.019 C 
ATOM      9  C   UNL     1      34.745 -16.191 -20.663  0.00  0.00    +0.015 C 
ATOM     10  C   UNL     1      34.018 -14.836 -22.527  0.00  0.00    +0.005 C 
ATOM     11  C   UNL     1      34.206 -15.002 -21.154  0.00  0.00    +0.001 C 
BRANCH   7  14
ATOM     12  O   UNL     1      34.645 -16.504 -25.644  0.00  0.00    -0.270 OA
ATOM     13  N   UNL     1      33.416 -14.579 -25.245  0.00  0.00    -0.301 N 
ATOM     14  C   UNL     1      34.172 -15.685 -24.838  0.00  0.00    +0.246 C 
ATOM     15  H   UNL     1      33.071 -13.971 -24.553  0.00  0.00    +0.150 HD
BRANCH  13  16
ATOM     16  C   UNL     1      33.113 -14.284 -26.627  0.00  0.00    +0.090 C 
BRANCH  16  17
ATOM     17  C   UNL     1      33.374 -12.824 -26.980  0.00  0.00    +0.021 C 
BRANCH  17  18
ATOM     18  C   UNL     1      33.734 -11.977 -25.756  0.00  0.00    +0.002 C 
ATOM     19  C   UNL     1      34.865 -11.009 -26.064  0.00  0.00    +0.000 C 
ENDBRANCH  17  18
ENDBRANCH  16  17
ENDBRANCH  13  16
ENDBRANCH   7  14
ENDBRANCH   3   6
ENDBRANCH   1   4
BRANCH   1  20
ATOM     20  C   UNL     1      35.249 -21.914 -19.710  0.00  0.00    +0.010 C 
BRANCH  20  21
ATOM     21  C   UNL     1      35.556 -22.141 -18.226  0.00  0.00    +0.002 C 
BRANCH  21  22
ATOM     22  C   UNL     1      36.821 -21.389 -17.802  0.00  0.00    +0.021 C 
BRANCH  22  23
ATOM     23  C   UNL     1      37.254 -21.721 -16.377  0.00  0.00    +0.088 C 
BRANCH  23  24
ATOM     24  N   UNL     1      37.169 -23.141 -16.133  0.00  0.00    -0.320 N 
ATOM     25  N   UNL     1      36.995 -26.144 -15.538  0.00  0.00    -0.270 NA
ATOM     26  N   UNL     1      37.464 -22.949 -13.778  0.00  0.00    -0.232 NA
ATOM     27  N   UNL     1      37.170 -27.010 -13.492  0.00  0.00    -0.307 N 
ATOM     28  N   UNL     1      37.480 -24.903 -12.319  0.00  0.00    -0.232 NA
ATOM     29  C   UNL     1      37.270 -23.714 -14.876  0.00  0.00    +0.124 C 
ATOM     30  C   UNL     1      37.181 -25.081 -14.700  0.00  0.00    +0.164 C 
ATOM     31  C   UNL     1      37.287 -25.644 -13.436  0.00  0.00    +0.125 C 
ATOM     32  C   UNL     1      36.995 -27.277 -14.769  0.00  0.00    +0.163 C 
ATOM     33  C   UNL     1      37.555 -23.581 -12.584  0.00  0.00    +0.252 C 
ATOM     34  H   UNL     1      37.029 -23.736 -16.906  0.00  0.00    +0.148 HD
ATOM     35  H   UNL     1      36.881 -26.104 -16.515  0.00  0.00    +0.126 HD
ATOM     36  H   UNL     1      37.208 -27.648 -12.743  0.00  0.00    +0.149 HD
ENDBRANCH  23  24
ENDBRANCH  22  23
ENDBRANCH  21  22
ENDBRANCH  20  21
ENDBRANCH   1  20
TORSDOF 11
ENDMDL
MODEL 4
REMARK VINA RESULT:     -10.8      1.350      1.653
REMARK  Name = 24893974
REMARK  11 active torsions:
REMARK  status: ('A' for Active; 'I' for Inactive)
REMARK    1  A    between atoms: C_1  and  C_4
REMARK    2  A    between atoms: C_1  and  C_20
REMARK    3  A    between atoms: N_3  and  C_6
REMARK    4  A    between atoms: C_7  and  C_14
REMARK    5  A    between atoms: N_13  and  C_16
REMARK    6  A    between atoms: C_16  and  C_17
REMARK    7  A    between atoms: C_17  and  C_18
REMARK    8  A    between atoms: C_20  and  C_21
REMARK    9  A    between atoms: C_21  and  C_22
REMARK   10  A    between atoms: C_22  and  C_23
REMARK   11  A    between atoms: C_23  and  N_24
REMARK                            x       y       z     vdW  Elec       q    Type
REMARK                         _______ _______ _______ _____ _____    ______ ____
ROOT
ATOM      1  C   UNL     1      35.317 -21.285 -19.644  0.00  0.00    +0.085 C 
ENDROOT
BRANCH   1   4
ATOM      2  O   UNL     1      36.707 -19.447 -20.353  0.00  0.00    -0.275 OA
ATOM      3  N   UNL     1      34.702 -19.888 -21.493  0.00  0.00    -0.284 N 
ATOM      4  C   UNL     1      35.684 -20.101 -20.530  0.00  0.00    +0.226 C 
ATOM      5  H   UNL     1      33.934 -20.505 -21.476  0.00  0.00    +0.155 HD
BRANCH   3   6
ATOM      6  C   UNL     1      34.679 -18.889 -22.496  0.00  0.00    +0.050 C 
ATOM      7  C   UNL     1      34.532 -16.564 -23.130  0.00  0.00    +0.055 C 
ATOM      8  C   UNL     1      34.554 -17.546 -22.142  0.00  0.00    +0.019 C 
ATOM      9  C   UNL     1      34.784 -19.250 -23.840  0.00  0.00    +0.015 C 
ATOM     10  C   UNL     1      34.636 -16.923 -24.474  0.00  0.00    +0.005 C 
ATOM     11  C   UNL     1      34.762 -18.267 -24.829  0.00  0.00    +0.001 C 
BRANCH   7  14
ATOM     12  O   UNL     1      34.782 -14.765 -21.647  0.00  0.00    -0.270 OA
ATOM     13  N   UNL     1      33.857 -14.301 -23.722  0.00  0.00    -0.301 N 
ATOM     14  C   UNL     1      34.401 -15.162 -22.762  0.00  0.00    +0.246 C 
ATOM     15  H   UNL     1      33.576 -14.683 -24.584  0.00  0.00    +0.150 HD
BRANCH  13  16
ATOM     16  C   UNL     1      33.685 -12.881 -23.514  0.00  0.00    +0.090 C 
BRANCH  16  17
ATOM     17  C   UNL     1      33.786 -12.087 -24.812  0.00  0.00    +0.021 C 
BRANCH  17  18
ATOM     18  C   UNL     1      34.288 -10.658 -24.590  0.00  0.00    +0.002 C 
ATOM     19  C   UNL     1      35.417 -10.311 -25.548  0.00  0.00    +0.000 C 
ENDBRANCH  17  18
ENDBRANCH  16  17
ENDBRANCH  13  16
ENDBRANCH   7  14
ENDBRANCH   3   6
ENDBRANCH   1   4
BRANCH   1  20
ATOM     20  C   UNL     1      33.816 -21.431 -19.396  0.00  0.00    +0.010 C 
BRANCH  20  21
ATOM     21  C   UNL     1      33.495 -22.559 -18.410  0.00  0.00    +0.002 C 
BRANCH  21  22
ATOM     22  C   UNL     1      34.647 -22.777 -17.424  0.00  0.00    +0.021 C 
BRANCH  22  23
ATOM     23  C   UNL     1      34.218 -23.543 -16.176  0.00  0.00    +0.088 C 
BRANCH  23  24
ATOM     24  N   UNL     1      35.282 -23.574 -15.202  0.00  0.00    -0.320 N 
ATOM     25  N   UNL     1      37.561 -23.715 -13.155  0.00  0.00    -0.270 NA
ATOM     26  N   UNL     1      35.923 -25.815 -15.692  0.00  0.00    -0.232 NA
ATOM     27  N   UNL     1      38.832 -25.519 -12.844  0.00  0.00    -0.307 N 
ATOM     28  N   UNL     1      37.757 -26.915 -14.518  0.00  0.00    -0.232 NA
ATOM     29  C   UNL     1      36.094 -24.676 -14.984  0.00  0.00    +0.124 C 
ATOM     30  C   UNL     1      37.099 -24.651 -14.036  0.00  0.00    +0.164 C 
ATOM     31  C   UNL     1      37.904 -25.762 -13.824  0.00  0.00    +0.125 C 
ATOM     32  C   UNL     1      38.599 -24.281 -12.463  0.00  0.00    +0.163 C 
ATOM     33  C   UNL     1      36.754 -26.850 -15.420  0.00  0.00    +0.252 C 
ATOM     34  H   UNL     1      35.441 -22.766 -14.663  0.00  0.00    +0.148 HD
ATOM     35  H   UNL     1      37.212 -22.802 -13.038  0.00  0.00    +0.126 HD
ATOM     36  H   UNL     1      39.520 -26.134 -12.501  0.00  0.00    +0.149 HD
ENDBRANCH  23  24
ENDBRANCH  22  23
ENDBRANCH  21  22
ENDBRANCH  20  21
ENDBRANCH   1  20
TORSDOF 11
ENDMDL
MODEL 5
REMARK VINA RESULT:     -10.7      3.163      4.885
REMARK  Name = 24893974
REMARK  11 active torsions:
REMARK  status: ('A' for Active; 'I' for Inactive)
REMARK    1  A    between atoms: C_1  and  C_4
REMARK    2  A    between atoms: C_1  and  C_20
REMARK    3  A    between atoms: N_3  and  C_6
REMARK    4  A    between atoms: C_7  and  C_14
REMARK    5  A    between atoms: N_13  and  C_16
REMARK    6  A    between atoms: C_16  and  C_17
REMARK    7  A    between atoms: C_17  and  C_18
REMARK    8  A    between atoms: C_20  and  C_21
REMARK    9  A    between atoms: C_21  and  C_22
REMARK   10  A    between atoms: C_22  and  C_23
REMARK   11  A    between atoms: C_23  and  N_24
REMARK                            x       y       z     vdW  Elec       q    Type
REMARK                         _______ _______ _______ _____ _____    ______ ____
ROOT
ATOM      1  C   UNL     1      36.432 -18.780 -21.551  0.00  0.00    +0.085 C 
ENDROOT
BRANCH   1   4
ATOM      2  O   UNL     1      35.172 -17.875 -23.396  0.00  0.00    -0.275 OA
ATOM      3  N   UNL     1      35.110 -16.794 -21.313  0.00  0.00    -0.284 N 
ATOM      4  C   UNL     1      35.492 -17.782 -22.215  0.00  0.00    +0.226 C 
ATOM      5  H   UNL     1      35.480 -16.868 -20.403  0.00  0.00    +0.155 HD
BRANCH   3   6
ATOM      6  C   UNL     1      34.248 -15.696 -21.549  0.00  0.00    +0.050 C 
ATOM      7  C   UNL     1      33.518 -13.873 -22.955  0.00  0.00    +0.055 C 
ATOM      8  C   UNL     1      34.368 -14.954 -22.724  0.00  0.00    +0.019 C 
ATOM      9  C   UNL     1      33.277 -15.358 -20.605  0.00  0.00    +0.015 C 
ATOM     10  C   UNL     1      32.548 -13.534 -22.012  0.00  0.00    +0.005 C 
ATOM     11  C   UNL     1      32.427 -14.276 -20.837  0.00  0.00    +0.001 C 
BRANCH   7  14
ATOM     12  O   UNL     1      33.165 -13.525 -25.246  0.00  0.00    -0.270 OA
ATOM     13  N   UNL     1      34.295 -11.864 -24.089  0.00  0.00    -0.301 N 
ATOM     14  C   UNL     1      33.642 -13.099 -24.180  0.00  0.00    +0.246 C 
ATOM     15  H   UNL     1      34.650 -11.589 -23.213  0.00  0.00    +0.150 HD
BRANCH  13  16
ATOM     16  C   UNL     1      34.477 -10.972 -25.211  0.00  0.00    +0.090 C 
BRANCH  16  17
ATOM     17  C   UNL     1      35.148  -9.663 -24.810  0.00  0.00    +0.021 C 
BRANCH  17  18
ATOM     18  C   UNL     1      34.348  -8.888 -23.758  0.00  0.00    +0.002 C 
ATOM     19  C   UNL     1      34.770  -7.429 -23.703  0.00  0.00    +0.000 C 
ENDBRANCH  17  18
ENDBRANCH  16  17
ENDBRANCH  13  16
ENDBRANCH   7  14
ENDBRANCH   3   6
ENDBRANCH   1   4
BRANCH   1  20
ATOM     20  C   UNL     1      35.724 -19.790 -20.648  0.00  0.00    +0.010 C 
BRANCH  20  21
ATOM     21  C   UNL     1      34.341 -20.179 -21.181  0.00  0.00    +0.002 C 
BRANCH  21  22
ATOM     22  C   UNL     1      33.398 -20.569 -20.037  0.00  0.00    +0.021 C 
BRANCH  22  23
ATOM     23  C   UNL     1      33.705 -21.951 -19.467  0.00  0.00    +0.088 C 
BRANCH  23  24
ATOM     24  N   UNL     1      32.721 -22.328 -18.481  0.00  0.00    -0.320 N 
ATOM     25  N   UNL     1      30.689 -23.158 -16.340  0.00  0.00    -0.270 NA
ATOM     26  N   UNL     1      34.314 -23.234 -16.960  0.00  0.00    -0.232 NA
ATOM     27  N   UNL     1      31.248 -24.151 -14.424  0.00  0.00    -0.307 N 
ATOM     28  N   UNL     1      33.646 -24.206 -14.824  0.00  0.00    -0.232 NA
ATOM     29  C   UNL     1      33.032 -22.944 -17.280  0.00  0.00    +0.124 C 
ATOM     30  C   UNL     1      32.049 -23.285 -16.372  0.00  0.00    +0.164 C 
ATOM     31  C   UNL     1      32.372 -23.903 -15.171  0.00  0.00    +0.125 C 
ATOM     32  C   UNL     1      30.255 -23.690 -15.155  0.00  0.00    +0.163 C 
ATOM     33  C   UNL     1      34.539 -23.838 -15.769  0.00  0.00    +0.252 C 
ATOM     34  H   UNL     1      31.775 -22.137 -18.674  0.00  0.00    +0.148 HD
ATOM     35  H   UNL     1      30.124 -22.757 -17.040  0.00  0.00    +0.126 HD
ATOM     36  H   UNL     1      31.197 -24.577 -13.539  0.00  0.00    +0.149 HD
ENDBRANCH  23  24
ENDBRANCH  22  23
ENDBRANCH  21  22
ENDBRANCH  20  21
ENDBRANCH   1  20
TORSDOF 11
ENDMDL
MODEL 6
REMARK VINA RESULT:     -10.7      1.411      1.817
REMARK  Name = 24893974
REMARK  11 active torsions:
REMARK  status: ('A' for Active; 'I' for Inactive)
REMARK    1  A    between atoms: C_1  and  C_4
REMARK    2  A    between atoms: C_1  and  C_20
REMARK    3  A    between atoms: N_3  and  C_6
REMARK    4  A    between atoms: C_7  and  C_14
REMARK    5  A    between atoms: N_13  and  C_16
REMARK    6  A    between atoms: C_16  and  C_17
REMARK    7  A    between atoms: C_17  and  C_18
REMARK    8  A    between atoms: C_20  and  C_21
REMARK    9  A    between atoms: C_21  and  C_22
REMARK   10  A    between atoms: C_22  and  C_23
REMARK   11  A    between atoms: C_23  and  N_24
REMARK                            x       y       z     vdW  Elec       q    Type
REMARK                         _______ _______ _______ _____ _____    ______ ____
ROOT
ATOM      1  C   UNL     1      34.499 -22.085 -19.098  0.00  0.00    +0.085 C 
ENDROOT
BRANCH   1   4
ATOM      2  O   UNL     1      32.756 -20.621 -19.894  0.00  0.00    -0.275 OA
ATOM      3  N   UNL     1      34.958 -20.313 -20.646  0.00  0.00    -0.284 N 
ATOM      4  C   UNL     1      33.946 -20.919 -19.909  0.00  0.00    +0.226 C 
ATOM      5  H   UNL     1      35.859 -20.699 -20.549  0.00  0.00    +0.155 HD
BRANCH   3   6
ATOM      6  C   UNL     1      34.844 -19.203 -21.518  0.00  0.00    +0.050 C 
ATOM      7  C   UNL     1      34.421 -16.851 -21.867  0.00  0.00    +0.055 C 
ATOM      8  C   UNL     1      34.532 -17.943 -21.008  0.00  0.00    +0.019 C 
ATOM      9  C   UNL     1      35.046 -19.371 -22.888  0.00  0.00    +0.015 C 
ATOM     10  C   UNL     1      34.622 -17.018 -23.237  0.00  0.00    +0.005 C 
ATOM     11  C   UNL     1      34.935 -18.278 -23.748  0.00  0.00    +0.001 C 
BRANCH   7  14
ATOM     12  O   UNL     1      34.883 -14.953 -20.570  0.00  0.00    -0.270 OA
ATOM     13  N   UNL     1      32.884 -14.967 -21.745  0.00  0.00    -0.301 N 
ATOM     14  C   UNL     1      34.096 -15.536 -21.336  0.00  0.00    +0.246 C 
ATOM     15  H   UNL     1      32.308 -15.485 -22.353  0.00  0.00    +0.150 HD
BRANCH  13  16
ATOM     16  C   UNL     1      32.433 -13.661 -21.323  0.00  0.00    +0.090 C 
BRANCH  16  17
ATOM     17  C   UNL     1      32.334 -12.677 -22.484  0.00  0.00    +0.021 C 
BRANCH  17  18
ATOM     18  C   UNL     1      32.886 -13.251 -23.791  0.00  0.00    +0.002 C 
ATOM     19  C   UNL     1      33.800 -12.259 -24.491  0.00  0.00    +0.000 C 
ENDBRANCH  17  18
ENDBRANCH  16  17
ENDBRANCH  13  16
ENDBRANCH   7  14
ENDBRANCH   3   6
ENDBRANCH   1   4
BRANCH   1  20
ATOM     20  C   UNL     1      33.461 -22.759 -18.200  0.00  0.00    +0.010 C 
BRANCH  20  21
ATOM     21  C   UNL     1      34.044 -23.170 -16.843  0.00  0.00    +0.002 C 
BRANCH  21  22
ATOM     22  C   UNL     1      32.933 -23.405 -15.814  0.00  0.00    +0.021 C 
BRANCH  22  23
ATOM     23  C   UNL     1      33.451 -24.033 -14.523  0.00  0.00    +0.088 C 
BRANCH  23  24
ATOM     24  N   UNL     1      34.791 -24.539 -14.700  0.00  0.00    -0.320 N 
ATOM     25  N   UNL     1      37.651 -25.605 -14.999  0.00  0.00    -0.270 NA
ATOM     26  N   UNL     1      35.400 -24.271 -12.413  0.00  0.00    -0.232 NA
ATOM     27  N   UNL     1      39.097 -25.753 -13.309  0.00  0.00    -0.307 N 
ATOM     28  N   UNL     1      37.617 -24.873 -11.592  0.00  0.00    -0.232 NA
ATOM     29  C   UNL     1      35.715 -24.648 -13.673  0.00  0.00    +0.124 C 
ATOM     30  C   UNL     1      36.985 -25.140 -13.899  0.00  0.00    +0.164 C 
ATOM     31  C   UNL     1      37.904 -25.242 -12.863  0.00  0.00    +0.125 C 
ATOM     32  C   UNL     1      38.910 -25.961 -14.595  0.00  0.00    +0.163 C 
ATOM     33  C   UNL     1      36.356 -24.405 -11.464  0.00  0.00    +0.252 C 
ATOM     34  H   UNL     1      35.063 -24.824 -15.602  0.00  0.00    +0.148 HD
ATOM     35  H   UNL     1      37.291 -25.673 -15.912  0.00  0.00    +0.126 HD
ATOM     36  H   UNL     1      39.910 -25.927 -12.783  0.00  0.00    +0.149 HD
ENDBRANCH  23  24
ENDBRANCH  22  23
ENDBRANCH  21  22
ENDBRANCH  20  21
ENDBRANCH   1  20
TORSDOF 11
ENDMDL
MODEL 7
REMARK VINA RESULT:     -10.6      2.032      2.626
REMARK  Name = 24893974
REMARK  11 active torsions:
REMARK  status: ('A' for Active; 'I' for Inactive)
REMARK    1  A    between atoms: C_1  and  C_4
REMARK    2  A    between atoms: C_1  and  C_20
REMARK    3  A    between atoms: N_3  and  C_6
REMARK    4  A    between atoms: C_7  and  C_14
REMARK    5  A    between atoms: N_13  and  C_16
REMARK    6  A    between atoms: C_16  and  C_17
REMARK    7  A    between atoms: C_17  and  C_18
REMARK    8  A    between atoms: C_20  and  C_21
REMARK    9  A    between atoms: C_21  and  C_22
REMARK   10  A    between atoms: C_22  and  C_23
REMARK   11  A    between atoms: C_23  and  N_24
REMARK                            x       y       z     vdW  Elec       q    Type
REMARK                         _______ _______ _______ _____ _____    ______ ____
ROOT
ATOM      1  C   UNL     1      36.051 -19.317 -20.902  0.00  0.00    +0.085 C 
ENDROOT
BRANCH   1   4
ATOM      2  O   UNL     1      33.992 -19.299 -22.155  0.00  0.00    -0.275 OA
ATOM      3  N   UNL     1      35.461 -17.475 -22.319  0.00  0.00    -0.284 N 
ATOM      4  C   UNL     1      35.027 -18.713 -21.856  0.00  0.00    +0.226 C 
ATOM      5  H   UNL     1      36.333 -17.166 -21.983  0.00  0.00    +0.155 HD
BRANCH   3   6
ATOM      6  C   UNL     1      34.792 -16.607 -23.215  0.00  0.00    +0.050 C 
ATOM      7  C   UNL     1      33.694 -14.503 -23.663  0.00  0.00    +0.055 C 
ATOM      8  C   UNL     1      34.352 -15.357 -22.779  0.00  0.00    +0.019 C 
ATOM      9  C   UNL     1      34.575 -17.002 -24.535  0.00  0.00    +0.015 C 
ATOM     10  C   UNL     1      33.476 -14.897 -24.983  0.00  0.00    +0.005 C 
ATOM     11  C   UNL     1      33.917 -16.147 -25.420  0.00  0.00    +0.001 C 
BRANCH   7  14
ATOM     12  O   UNL     1      33.794 -12.161 -23.606  0.00  0.00    -0.270 OA
ATOM     13  N   UNL     1      32.139 -13.178 -22.340  0.00  0.00    -0.301 N 
ATOM     14  C   UNL     1      33.235 -13.199 -23.210  0.00  0.00    +0.246 C 
ATOM     15  H   UNL     1      31.745 -14.037 -22.066  0.00  0.00    +0.150 HD
BRANCH  13  16
ATOM     16  C   UNL     1      31.554 -11.962 -21.822  0.00  0.00    +0.090 C 
BRANCH  16  17
ATOM     17  C   UNL     1      31.499 -11.947 -20.298  0.00  0.00    +0.021 C 
BRANCH  17  18
ATOM     18  C   UNL     1      31.859 -10.580 -19.710  0.00  0.00    +0.002 C 
ATOM     19  C   UNL     1      31.838  -9.494 -20.774  0.00  0.00    +0.000 C 
ENDBRANCH  17  18
ENDBRANCH  16  17
ENDBRANCH  13  16
ENDBRANCH   7  14
ENDBRANCH   3   6
ENDBRANCH   1   4
BRANCH   1  20
ATOM     20  C   UNL     1      35.589 -20.615 -20.240  0.00  0.00    +0.010 C 
BRANCH  20  21
ATOM     21  C   UNL     1      36.685 -21.252 -19.378  0.00  0.00    +0.002 C 
BRANCH  21  22
ATOM     22  C   UNL     1      36.083 -21.992 -18.179  0.00  0.00    +0.021 C 
BRANCH  22  23
ATOM     23  C   UNL     1      36.710 -21.571 -16.853  0.00  0.00    +0.088 C 
BRANCH  23  24
ATOM     24  N   UNL     1      37.630 -22.576 -16.378  0.00  0.00    -0.320 N 
ATOM     25  N   UNL     1      39.531 -24.735 -15.317  0.00  0.00    -0.270 NA
ATOM     26  N   UNL     1      36.152 -23.416 -14.710  0.00  0.00    -0.232 NA
ATOM     27  N   UNL     1      39.017 -26.123 -13.650  0.00  0.00    -0.307 N 
ATOM     28  N   UNL     1      36.782 -25.258 -13.241  0.00  0.00    -0.232 NA
ATOM     29  C   UNL     1      37.344 -23.456 -15.347  0.00  0.00    +0.124 C 
ATOM     30  C   UNL     1      38.264 -24.399 -14.932  0.00  0.00    +0.164 C 
ATOM     31  C   UNL     1      37.968 -25.275 -13.896  0.00  0.00    +0.125 C 
ATOM     32  C   UNL     1      39.940 -25.772 -14.521  0.00  0.00    +0.163 C 
ATOM     33  C   UNL     1      35.947 -24.307 -13.711  0.00  0.00    +0.252 C 
ATOM     34  H   UNL     1      38.512 -22.640 -16.813  0.00  0.00    +0.148 HD
ATOM     35  H   UNL     1      40.055 -24.311 -16.035  0.00  0.00    +0.126 HD
ATOM     36  H   UNL     1      39.069 -26.835 -12.973  0.00  0.00    +0.149 HD
ENDBRANCH  23  24
ENDBRANCH  22  23
ENDBRANCH  21  22
ENDBRANCH  20  21
ENDBRANCH   1  20
TORSDOF 11
ENDMDL
MODEL 8
REMARK VINA RESULT:     -10.6      3.315      5.066
REMARK  Name = 24893974
REMARK  11 active torsions:
REMARK  status: ('A' for Active; 'I' for Inactive)
REMARK    1  A    between atoms: C_1  and  C_4
REMARK    2  A    between atoms: C_1  and  C_20
REMARK    3  A    between atoms: N_3  and  C_6
REMARK    4  A    between atoms: C_7  and  C_14
REMARK    5  A    between atoms: N_13  and  C_16
REMARK    6  A    between atoms: C_16  and  C_17
REMARK    7  A    between atoms: C_17  and  C_18
REMARK    8  A    between atoms: C_20  and  C_21
REMARK    9  A    between atoms: C_21  and  C_22
REMARK   10  A    between atoms: C_22  and  C_23
REMARK   11  A    between atoms: C_23  and  N_24
REMARK                            x       y       z     vdW  Elec       q    Type
REMARK                         _______ _______ _______ _____ _____    ______ ____
ROOT
ATOM      1  C   UNL     1      36.588 -18.800 -22.034  0.00  0.00    +0.085 C 
ENDROOT
BRANCH   1   4
ATOM      2  O   UNL     1      34.279 -18.789 -22.726  0.00  0.00    -0.275 OA
ATOM      3  N   UNL     1      35.633 -16.928 -23.190  0.00  0.00    -0.284 N 
ATOM      4  C   UNL     1      35.348 -18.190 -22.676  0.00  0.00    +0.226 C 
ATOM      5  H   UNL     1      36.557 -16.610 -23.074  0.00  0.00    +0.155 HD
BRANCH   3   6
ATOM      6  C   UNL     1      34.747 -16.048 -23.857  0.00  0.00    +0.050 C 
ATOM      7  C   UNL     1      33.455 -14.008 -23.890  0.00  0.00    +0.055 C 
ATOM      8  C   UNL     1      34.327 -14.874 -23.232  0.00  0.00    +0.019 C 
ATOM      9  C   UNL     1      34.297 -16.356 -25.141  0.00  0.00    +0.015 C 
ATOM     10  C   UNL     1      33.004 -14.315 -25.174  0.00  0.00    +0.005 C 
ATOM     11  C   UNL     1      33.425 -15.488 -25.800  0.00  0.00    +0.001 C 
BRANCH   7  14
ATOM     12  O   UNL     1      33.534 -11.692 -23.535  0.00  0.00    -0.270 OA
ATOM     13  N   UNL     1      31.985 -12.897 -22.300  0.00  0.00    -0.301 N 
ATOM     14  C   UNL     1      33.016 -12.783 -23.240  0.00  0.00    +0.246 C 
ATOM     15  H   UNL     1      31.621 -13.792 -22.113  0.00  0.00    +0.150 HD
BRANCH  13  16
ATOM     16  C   UNL     1      31.426 -11.771 -21.588  0.00  0.00    +0.090 C 
BRANCH  16  17
ATOM     17  C   UNL     1      31.692 -11.841 -20.088  0.00  0.00    +0.021 C 
BRANCH  17  18
ATOM     18  C   UNL     1      31.549 -10.480 -19.400  0.00  0.00    +0.002 C 
ATOM     19  C   UNL     1      31.913  -9.342 -20.339  0.00  0.00    +0.000 C 
ENDBRANCH  17  18
ENDBRANCH  16  17
ENDBRANCH  13  16
ENDBRANCH   7  14
ENDBRANCH   3   6
ENDBRANCH   1   4
BRANCH   1  20
ATOM     20  C   UNL     1      36.354 -19.332 -20.620  0.00  0.00    +0.010 C 
BRANCH  20  21
ATOM     21  C   UNL     1      35.861 -20.783 -20.617  0.00  0.00    +0.002 C 
BRANCH  21  22
ATOM     22  C   UNL     1      34.711 -20.974 -19.623  0.00  0.00    +0.021 C 
BRANCH  22  23
ATOM     23  C   UNL     1      34.265 -22.429 -19.512  0.00  0.00    +0.088 C 
BRANCH  23  24
ATOM     24  N   UNL     1      33.082 -22.542 -18.694  0.00  0.00    -0.320 N 
ATOM     25  N   UNL     1      30.613 -22.806 -16.895  0.00  0.00    -0.270 NA
ATOM     26  N   UNL     1      34.246 -23.372 -16.789  0.00  0.00    -0.232 NA
ATOM     27  N   UNL     1      30.689 -23.549 -14.794  0.00  0.00    -0.307 N 
ATOM     28  N   UNL     1      33.089 -23.925 -14.714  0.00  0.00    -0.232 NA
ATOM     29  C   UNL     1      33.091 -22.996 -17.385  0.00  0.00    +0.124 C 
ATOM     30  C   UNL     1      31.927 -23.084 -16.647  0.00  0.00    +0.164 C 
ATOM     31  C   UNL     1      31.949 -23.543 -15.336  0.00  0.00    +0.125 C 
ATOM     32  C   UNL     1      29.910 -23.100 -15.756  0.00  0.00    +0.163 C 
ATOM     33  C   UNL     1      34.175 -23.806 -15.508  0.00  0.00    +0.252 C 
ATOM     34  H   UNL     1      32.218 -22.280 -19.089  0.00  0.00    +0.148 HD
ATOM     35  H   UNL     1      30.239 -22.459 -17.737  0.00  0.00    +0.126 HD
ATOM     36  H   UNL     1      30.425 -23.826 -13.887  0.00  0.00    +0.149 HD
ENDBRANCH  23  24
ENDBRANCH  22  23
ENDBRANCH  21  22
ENDBRANCH  20  21
ENDBRANCH   1  20
TORSDOF 11
ENDMDL
MODEL 9
REMARK VINA RESULT:     -10.6      3.191     12.171
REMARK  Name = 24893974
REMARK  11 active torsions:
REMARK  status: ('A' for Active; 'I' for Inactive)
REMARK    1  A    between atoms: C_1  and  C_4
REMARK    2  A    between atoms: C_1  and  C_20
REMARK    3  A    between atoms: N_3  and  C_6
REMARK    4  A    between atoms: C_7  and  C_14
REMARK    5  A    between atoms: N_13  and  C_16
REMARK    6  A    between atoms: C_16  and  C_17
REMARK    7  A    between atoms: C_17  and  C_18
REMARK    8  A    between atoms: C_20  and  C_21
REMARK    9  A    between atoms: C_21  and  C_22
REMARK   10  A    between atoms: C_22  and  C_23
REMARK   11  A    between atoms: C_23  and  N_24
REMARK                            x       y       z     vdW  Elec       q    Type
REMARK                         _______ _______ _______ _____ _____    ______ ____
ROOT
ATOM      1  C   UNL     1      35.287 -20.967 -19.867  0.00  0.00    +0.085 C 
ENDROOT
BRANCH   1   4
ATOM      2  O   UNL     1      34.595 -23.096 -18.974  0.00  0.00    -0.275 OA
ATOM      3  N   UNL     1      36.025 -21.725 -17.715  0.00  0.00    -0.284 N 
ATOM      4  C   UNL     1      35.253 -22.072 -18.819  0.00  0.00    +0.226 C 
ATOM      5  H   UNL     1      36.472 -20.848 -17.755  0.00  0.00    +0.155 HD
BRANCH   3   6
ATOM      6  C   UNL     1      36.244 -22.484 -16.541  0.00  0.00    +0.050 C 
ATOM      7  C   UNL     1      35.377 -23.652 -14.612  0.00  0.00    +0.055 C 
ATOM      8  C   UNL     1      35.161 -22.904 -15.768  0.00  0.00    +0.019 C 
ATOM      9  C   UNL     1      37.544 -22.814 -16.157  0.00  0.00    +0.015 C 
ATOM     10  C   UNL     1      36.677 -23.983 -14.228  0.00  0.00    +0.005 C 
ATOM     11  C   UNL     1      37.761 -23.564 -15.001  0.00  0.00    +0.001 C 
BRANCH   7  14
ATOM     12  O   UNL     1      34.350 -24.172 -12.570  0.00  0.00    -0.270 OA
ATOM     13  N   UNL     1      33.061 -24.389 -14.485  0.00  0.00    -0.301 N 
ATOM     14  C   UNL     1      34.249 -24.091 -13.806  0.00  0.00    +0.246 C 
ATOM     15  H   UNL     1      33.051 -24.304 -15.465  0.00  0.00    +0.150 HD
BRANCH  13  16
ATOM     16  C   UNL     1      31.849 -24.814 -13.823  0.00  0.00    +0.090 C 
BRANCH  16  17
ATOM     17  C   UNL     1      30.824 -23.691 -13.708  0.00  0.00    +0.021 C 
BRANCH  17  18
ATOM     18  C   UNL     1      30.916 -22.690 -14.863  0.00  0.00    +0.002 C 
ATOM     19  C   UNL     1      30.008 -23.087 -16.016  0.00  0.00    +0.000 C 
ENDBRANCH  17  18
ENDBRANCH  16  17
ENDBRANCH  13  16
ENDBRANCH   7  14
ENDBRANCH   3   6
ENDBRANCH   1   4
BRANCH   1  20
ATOM     20  C   UNL     1      33.906 -20.437 -20.251  0.00  0.00    +0.010 C 
BRANCH  20  21
ATOM     21  C   UNL     1      33.983 -19.274 -21.247  0.00  0.00    +0.002 C 
BRANCH  21  22
ATOM     22  C   UNL     1      34.999 -19.564 -22.356  0.00  0.00    +0.021 C 
BRANCH  22  23
ATOM     23  C   UNL     1      35.825 -18.337 -22.733  0.00  0.00    +0.088 C 
BRANCH  23  24
ATOM     24  N   UNL     1      35.178 -17.583 -23.778  0.00  0.00    -0.320 N 
ATOM     25  N   UNL     1      33.791 -15.921 -25.951  0.00  0.00    -0.270 NA
ATOM     26  N   UNL     1      34.732 -15.691 -22.402  0.00  0.00    -0.232 NA
ATOM     27  N   UNL     1      32.971 -13.877 -25.607  0.00  0.00    -0.307 N 
ATOM     28  N   UNL     1      33.588 -13.715 -23.261  0.00  0.00    -0.232 NA
ATOM     29  C   UNL     1      34.659 -16.311 -23.602  0.00  0.00    +0.124 C 
ATOM     30  C   UNL     1      34.048 -15.634 -24.639  0.00  0.00    +0.164 C 
ATOM     31  C   UNL     1      33.529 -14.360 -24.450  0.00  0.00    +0.125 C 
ATOM     32  C   UNL     1      33.146 -14.839 -26.488  0.00  0.00    +0.163 C 
ATOM     33  C   UNL     1      34.200 -14.449 -22.307  0.00  0.00    +0.252 C 
ATOM     34  H   UNL     1      35.101 -17.997 -24.669  0.00  0.00    +0.148 HD
ATOM     35  H   UNL     1      34.028 -16.752 -26.423  0.00  0.00    +0.126 HD
ATOM     36  H   UNL     1      32.537 -13.005 -25.746  0.00  0.00    +0.149 HD
ENDBRANCH  23  24
ENDBRANCH  22  23
ENDBRANCH  21  22
ENDBRANCH  20  21
ENDBRANCH   1  20
TORSDOF 11
ENDMDL
