MODEL 1
REMARK VINA RESULT:      -9.2      0.000      0.000
REMARK  Name = 5327152
REMARK  5 active torsions:
REMARK  status: ('A' for Active; 'I' for Inactive)
REMARK    1  A    between atoms: C_3  and  C_15
REMARK    2  A    between atoms: C_9  and  O_24
REMARK    3  A    between atoms: C_11  and  N_18
REMARK    4  A    between atoms: N_18  and  S_20
REMARK    5  A    between atoms: O_24  and  C_25
REMARK                            x       y       z     vdW  Elec       q    Type
REMARK                         _______ _______ _______ _____ _____    ______ ____
ROOT
ATOM      1  O   UNL     1      34.915 -14.915 -23.264  0.00  0.00    -0.226 OA
ATOM      2  N   UNL     1      34.403 -16.993 -22.339  0.00  0.00    -0.235 N 
ATOM      3  C   UNL     1      35.557 -17.660 -22.941  0.00  0.00    +0.159 C 
ATOM      4  C   UNL     1      36.265 -18.596 -21.965  0.00  0.00    +0.055 C 
ATOM      5  C   UNL     1      33.435 -17.813 -21.595  0.00  0.00    +0.124 C 
ATOM      6  C   UNL     1      35.316 -19.472 -21.192  0.00  0.00    -0.022 C 
ATOM      7  C   UNL     1      33.980 -19.085 -21.006  0.00  0.00    -0.005 C 
ATOM      8  C   UNL     1      33.124 -19.909 -20.259  0.00  0.00    +0.013 C 
ATOM      9  C   UNL     1      34.144 -15.648 -22.646  0.00  0.00    +0.405 C 
ATOM     10  C   UNL     1      35.783 -20.658 -20.608  0.00  0.00    -0.003 C 
ATOM     11  C   UNL     1      33.593 -21.095 -19.693  0.00  0.00    +0.065 C 
ATOM     12  C   UNL     1      34.923 -21.468 -19.866  0.00  0.00    +0.016 C 
ENDROOT
BRANCH   3  15
ATOM     13  O   UNL     1      34.451 -17.780 -25.056  0.00  0.00    -0.273 OA
ATOM     14  N   UNL     1      35.357 -19.722 -24.147  0.00  0.00    -0.301 N 
ATOM     15  C   UNL     1      35.062 -18.370 -24.169  0.00  0.00    +0.241 C 
ATOM     16  C   UNL     1      34.971 -20.633 -25.200  0.00  0.00    +0.111 C 
ATOM     17  H   UNL     1      35.855 -20.081 -23.377  0.00  0.00    +0.150 HD
ENDBRANCH   3  15
BRANCH  11  18
ATOM     18  N   UNL     1      32.712 -21.922 -18.934  0.00  0.00    -0.213 N 
ATOM     19  H   UNL     1      31.735 -21.802 -18.968  0.00  0.00    +0.174 HD
BRANCH  18  20
ATOM     20  S   UNL     1      33.446 -23.145 -17.951  0.00  0.00    +0.091 S 
ATOM     21  O   UNL     1      32.307 -23.519 -16.846  0.00  0.00    -0.050 OA
ATOM     22  O   UNL     1      33.675 -24.325 -18.767  0.00  0.00    -0.050 OA
ATOM     23  O   UNL     1      34.552 -22.535 -17.235  0.00  0.00    -0.050 OA
ENDBRANCH  18  20
ENDBRANCH  11  18
BRANCH   9  24
ATOM     24  O   UNL     1      32.924 -15.230 -22.182  0.00  0.00    -0.442 OA
BRANCH  24  25
ATOM     25  C   UNL     1      32.942 -14.417 -21.003  0.00  0.00    +0.138 C 
ATOM     26  C   UNL     1      34.393 -14.239 -20.558  0.00  0.00    +0.044 C 
ATOM     27  C   UNL     1      32.137 -15.146 -19.929  0.00  0.00    +0.044 C 
ATOM     28  C   UNL     1      32.304 -13.068 -21.331  0.00  0.00    +0.044 C 
ENDBRANCH  24  25
ENDBRANCH   9  24
TORSDOF 5
ENDMDL
MODEL 2
REMARK VINA RESULT:      -8.7      5.306      8.393
REMARK  Name = 5327152
REMARK  5 active torsions:
REMARK  status: ('A' for Active; 'I' for Inactive)
REMARK    1  A    between atoms: C_3  and  C_15
REMARK    2  A    between atoms: C_9  and  O_24
REMARK    3  A    between atoms: C_11  and  N_18
REMARK    4  A    between atoms: N_18  and  S_20
REMARK    5  A    between atoms: O_24  and  C_25
REMARK                            x       y       z     vdW  Elec       q    Type
REMARK                         _______ _______ _______ _____ _____    ______ ____
ROOT
ATOM      1  O   UNL     1      37.163 -22.060 -17.051  0.00  0.00    -0.226 OA
ATOM      2  N   UNL     1      35.050 -22.902 -16.536  0.00  0.00    -0.235 N 
ATOM      3  C   UNL     1      35.389 -23.182 -15.141  0.00  0.00    +0.159 C 
ATOM      4  C   UNL     1      34.283 -22.765 -14.176  0.00  0.00    +0.055 C 
ATOM      5  C   UNL     1      33.731 -23.324 -17.030  0.00  0.00    +0.124 C 
ATOM      6  C   UNL     1      32.912 -23.192 -14.629  0.00  0.00    -0.022 C 
ATOM      7  C   UNL     1      32.654 -23.438 -15.986  0.00  0.00    -0.005 C 
ATOM      8  C   UNL     1      31.361 -23.810 -16.382  0.00  0.00    +0.013 C 
ATOM      9  C   UNL     1      36.044 -22.427 -17.407  0.00  0.00    +0.405 C 
ATOM     10  C   UNL     1      31.872 -23.295 -13.694  0.00  0.00    -0.003 C 
ATOM     11  C   UNL     1      30.334 -23.923 -15.444  0.00  0.00    +0.065 C 
ATOM     12  C   UNL     1      30.589 -23.662 -14.101  0.00  0.00    +0.016 C 
ENDROOT
BRANCH   3  15
ATOM     13  O   UNL     1      35.244 -25.461 -15.844  0.00  0.00    -0.273 OA
ATOM     14  N   UNL     1      36.556 -24.934 -13.995  0.00  0.00    -0.301 N 
ATOM     15  C   UNL     1      35.713 -24.646 -15.055  0.00  0.00    +0.241 C 
ATOM     16  C   UNL     1      37.000 -26.272 -13.679  0.00  0.00    +0.111 C 
ATOM     17  H   UNL     1      36.868 -24.192 -13.428  0.00  0.00    +0.150 HD
ENDBRANCH   3  15
BRANCH  11  18
ATOM     18  N   UNL     1      29.022 -24.300 -15.863  0.00  0.00    -0.213 N 
ATOM     19  H   UNL     1      28.660 -25.197 -15.679  0.00  0.00    +0.174 HD
BRANCH  18  20
ATOM     20  S   UNL     1      28.101 -23.101 -16.709  0.00  0.00    +0.091 S 
ATOM     21  O   UNL     1      26.915 -22.689 -15.668  0.00  0.00    -0.050 OA
ATOM     22  O   UNL     1      28.935 -21.930 -16.915  0.00  0.00    -0.050 OA
ATOM     23  O   UNL     1      27.467 -23.747 -17.844  0.00  0.00    -0.050 OA
ENDBRANCH  18  20
ENDBRANCH  11  18
BRANCH   9  24
ATOM     24  O   UNL     1      35.633 -22.416 -18.715  0.00  0.00    -0.442 OA
BRANCH  24  25
ATOM     25  C   UNL     1      36.040 -21.286 -19.495  0.00  0.00    +0.138 C 
ATOM     26  C   UNL     1      34.790 -20.569 -20.001  0.00  0.00    +0.044 C 
ATOM     27  C   UNL     1      36.870 -21.809 -20.665  0.00  0.00    +0.044 C 
ATOM     28  C   UNL     1      36.878 -20.362 -18.613  0.00  0.00    +0.044 C 
ENDBRANCH  24  25
ENDBRANCH   9  24
TORSDOF 5
ENDMDL
MODEL 3
REMARK VINA RESULT:      -7.7      6.000      9.009
REMARK  Name = 5327152
REMARK  5 active torsions:
REMARK  status: ('A' for Active; 'I' for Inactive)
REMARK    1  A    between atoms: C_3  and  C_15
REMARK    2  A    between atoms: C_9  and  O_24
REMARK    3  A    between atoms: C_11  and  N_18
REMARK    4  A    between atoms: N_18  and  S_20
REMARK    5  A    between atoms: O_24  and  C_25
REMARK                            x       y       z     vdW  Elec       q    Type
REMARK                         _______ _______ _______ _____ _____    ______ ____
ROOT
ATOM      1  O   UNL     1      31.239 -22.631 -16.564  0.00  0.00    -0.226 OA
ATOM      2  N   UNL     1      33.388 -23.474 -16.238  0.00  0.00    -0.235 N 
ATOM      3  C   UNL     1      34.039 -22.374 -16.951  0.00  0.00    +0.159 C 
ATOM      4  C   UNL     1      35.284 -21.866 -16.230  0.00  0.00    +0.055 C 
ATOM      5  C   UNL     1      34.223 -24.591 -15.773  0.00  0.00    +0.124 C 
ATOM      6  C   UNL     1      36.183 -22.974 -15.750  0.00  0.00    -0.022 C 
ATOM      7  C   UNL     1      35.668 -24.259 -15.518  0.00  0.00    -0.005 C 
ATOM      8  C   UNL     1      36.524 -25.266 -15.047  0.00  0.00    +0.013 C 
ATOM      9  C   UNL     1      31.987 -23.533 -16.190  0.00  0.00    +0.405 C 
ATOM     10  C   UNL     1      37.533 -22.708 -15.482  0.00  0.00    -0.003 C 
ATOM     11  C   UNL     1      37.870 -24.997 -14.795  0.00  0.00    +0.065 C 
ATOM     12  C   UNL     1      38.373 -23.717 -15.011  0.00  0.00    +0.016 C 
ENDROOT
BRANCH   3  15
ATOM     13  O   UNL     1      33.854 -23.910 -18.772  0.00  0.00    -0.273 OA
ATOM     14  N   UNL     1      35.197 -22.026 -19.020  0.00  0.00    -0.301 N 
ATOM     15  C   UNL     1      34.332 -22.866 -18.339  0.00  0.00    +0.241 C 
ATOM     16  C   UNL     1      35.655 -22.285 -20.366  0.00  0.00    +0.111 C 
ATOM     17  H   UNL     1      35.515 -21.212 -18.566  0.00  0.00    +0.150 HD
ENDBRANCH   3  15
BRANCH  11  18
ATOM     18  N   UNL     1      38.727 -26.031 -14.313  0.00  0.00    -0.213 N 
ATOM     19  H   UNL     1      38.374 -26.807 -13.823  0.00  0.00    +0.174 HD
BRANCH  18  20
ATOM     20  S   UNL     1      40.420 -25.850 -14.636  0.00  0.00    +0.091 S 
ATOM     21  O   UNL     1      41.122 -27.080 -13.827  0.00  0.00    -0.050 OA
ATOM     22  O   UNL     1      40.651 -26.064 -16.054  0.00  0.00    -0.050 OA
ATOM     23  O   UNL     1      40.863 -24.618 -14.009  0.00  0.00    -0.050 OA
ENDBRANCH  18  20
ENDBRANCH  11  18
BRANCH   9  24
ATOM     24  O   UNL     1      31.530 -24.720 -15.678  0.00  0.00    -0.442 OA
BRANCH  24  25
ATOM     25  C   UNL     1      30.751 -24.632 -14.480  0.00  0.00    +0.138 C 
ATOM     26  C   UNL     1      30.467 -23.158 -14.193  0.00  0.00    +0.044 C 
ATOM     27  C   UNL     1      31.571 -25.251 -13.350  0.00  0.00    +0.044 C 
ATOM     28  C   UNL     1      29.450 -25.406 -14.686  0.00  0.00    +0.044 C 
ENDBRANCH  24  25
ENDBRANCH   9  24
TORSDOF 5
ENDMDL
MODEL 4
REMARK VINA RESULT:      -7.6      6.653      9.196
REMARK  Name = 5327152
REMARK  5 active torsions:
REMARK  status: ('A' for Active; 'I' for Inactive)
REMARK    1  A    between atoms: C_3  and  C_15
REMARK    2  A    between atoms: C_9  and  O_24
REMARK    3  A    between atoms: C_11  and  N_18
REMARK    4  A    between atoms: N_18  and  S_20
REMARK    5  A    between atoms: O_24  and  C_25
REMARK                            x       y       z     vdW  Elec       q    Type
REMARK                         _______ _______ _______ _____ _____    ______ ____
ROOT
ATOM      1  O   UNL     1      37.142 -22.193 -14.352  0.00  0.00    -0.226 OA
ATOM      2  N   UNL     1      35.074 -23.120 -14.901  0.00  0.00    -0.235 N 
ATOM      3  C   UNL     1      35.171 -24.184 -13.903  0.00  0.00    +0.159 C 
ATOM      4  C   UNL     1      33.863 -24.395 -13.145  0.00  0.00    +0.055 C 
ATOM      5  C   UNL     1      33.926 -23.129 -15.819  0.00  0.00    +0.124 C 
ATOM      6  C   UNL     1      32.657 -24.432 -14.045  0.00  0.00    -0.022 C 
ATOM      7  C   UNL     1      32.689 -23.814 -15.304  0.00  0.00    -0.005 C 
ATOM      8  C   UNL     1      31.542 -23.842 -16.112  0.00  0.00    +0.013 C 
ATOM      9  C   UNL     1      36.157 -22.246 -15.087  0.00  0.00    +0.405 C 
ATOM     10  C   UNL     1      31.476 -25.043 -13.601  0.00  0.00    -0.003 C 
ATOM     11  C   UNL     1      30.375 -24.463 -15.668  0.00  0.00    +0.065 C 
ATOM     12  C   UNL     1      30.341 -25.061 -14.412  0.00  0.00    +0.016 C 
ENDROOT
BRANCH   3  15
ATOM     13  O   UNL     1      35.161 -25.747 -15.710  0.00  0.00    -0.273 OA
ATOM     14  N   UNL     1      36.590 -26.116 -13.911  0.00  0.00    -0.301 N 
ATOM     15  C   UNL     1      35.629 -25.420 -14.623  0.00  0.00    +0.241 C 
ATOM     16  C   UNL     1      37.178 -27.351 -14.374  0.00  0.00    +0.111 C 
ATOM     17  H   UNL     1      36.888 -25.752 -13.045  0.00  0.00    +0.150 HD
ENDBRANCH   3  15
BRANCH  11  18
ATOM     18  N   UNL     1      29.215 -24.482 -16.500  0.00  0.00    -0.213 N 
ATOM     19  H   UNL     1      28.948 -25.289 -16.996  0.00  0.00    +0.174 HD
BRANCH  18  20
ATOM     20  S   UNL     1      28.300 -23.014 -16.591  0.00  0.00    +0.091 S 
ATOM     21  O   UNL     1      27.296 -23.237 -17.857  0.00  0.00    -0.050 OA
ATOM     22  O   UNL     1      27.484 -22.896 -15.396  0.00  0.00    -0.050 OA
ATOM     23  O   UNL     1      29.212 -21.943 -16.953  0.00  0.00    -0.050 OA
ENDBRANCH  18  20
ENDBRANCH  11  18
BRANCH   9  24
ATOM     24  O   UNL     1      36.003 -21.448 -16.191  0.00  0.00    -0.442 OA
BRANCH  24  25
ATOM     25  C   UNL     1      37.019 -21.557 -17.194  0.00  0.00    +0.138 C 
ATOM     26  C   UNL     1      37.935 -22.726 -16.833  0.00  0.00    +0.044 C 
ATOM     27  C   UNL     1      37.801 -20.245 -17.203  0.00  0.00    +0.044 C 
ATOM     28  C   UNL     1      36.346 -21.791 -18.546  0.00  0.00    +0.044 C 
ENDBRANCH  24  25
ENDBRANCH   9  24
TORSDOF 5
ENDMDL
MODEL 5
REMARK VINA RESULT:      -7.4      7.993     10.331
REMARK  Name = 5327152
REMARK  5 active torsions:
REMARK  status: ('A' for Active; 'I' for Inactive)
REMARK    1  A    between atoms: C_3  and  C_15
REMARK    2  A    between atoms: C_9  and  O_24
REMARK    3  A    between atoms: C_11  and  N_18
REMARK    4  A    between atoms: N_18  and  S_20
REMARK    5  A    between atoms: O_24  and  C_25
REMARK                            x       y       z     vdW  Elec       q    Type
REMARK                         _______ _______ _______ _____ _____    ______ ____
ROOT
ATOM      1  O   UNL     1      32.098  -7.675 -20.399  0.00  0.00    -0.226 OA
ATOM      2  N   UNL     1      32.638  -8.832 -22.350  0.00  0.00    -0.235 N 
ATOM      3  C   UNL     1      33.434  -7.736 -22.902  0.00  0.00    +0.159 C 
ATOM      4  C   UNL     1      34.739  -8.219 -23.527  0.00  0.00    +0.055 C 
ATOM      5  C   UNL     1      32.415 -10.020 -23.187  0.00  0.00    +0.124 C 
ATOM      6  C   UNL     1      34.561  -9.425 -24.410  0.00  0.00    -0.022 C 
ATOM      7  C   UNL     1      33.466 -10.284 -24.231  0.00  0.00    -0.005 C 
ATOM      8  C   UNL     1      33.339 -11.415 -25.052  0.00  0.00    +0.013 C 
ATOM      9  C   UNL     1      31.952  -8.647 -21.139  0.00  0.00    +0.405 C 
ATOM     10  C   UNL     1      35.524  -9.722 -25.385  0.00  0.00    -0.003 C 
ATOM     11  C   UNL     1      34.294 -11.696 -26.029  0.00  0.00    +0.065 C 
ATOM     12  C   UNL     1      35.388 -10.850 -26.194  0.00  0.00    +0.016 C 
ENDROOT
BRANCH   3  15
ATOM     13  O   UNL     1      31.363  -7.269 -24.000  0.00  0.00    -0.273 OA
ATOM     14  N   UNL     1      33.258  -6.062 -24.609  0.00  0.00    -0.301 N 
ATOM     15  C   UNL     1      32.557  -7.008 -23.880  0.00  0.00    +0.241 C 
ATOM     16  C   UNL     1      32.651  -5.242 -25.631  0.00  0.00    +0.111 C 
ATOM     17  H   UNL     1      34.218  -5.942 -24.422  0.00  0.00    +0.150 HD
ENDBRANCH   3  15
BRANCH  11  18
ATOM     18  N   UNL     1      34.153 -12.851 -26.856  0.00  0.00    -0.213 N 
ATOM     19  H   UNL     1      34.637 -12.937 -27.709  0.00  0.00    +0.174 HD
BRANCH  18  20
ATOM     20  S   UNL     1      33.089 -14.092 -26.282  0.00  0.00    +0.091 S 
ATOM     21  O   UNL     1      33.789 -15.484 -26.765  0.00  0.00    -0.050 OA
ATOM     22  O   UNL     1      33.092 -14.076 -24.830  0.00  0.00    -0.050 OA
ATOM     23  O   UNL     1      31.835 -13.971 -27.004  0.00  0.00    -0.050 OA
ENDBRANCH  18  20
ENDBRANCH  11  18
BRANCH   9  24
ATOM     24  O   UNL     1      31.089  -9.675 -20.863  0.00  0.00    -0.442 OA
BRANCH  24  25
ATOM     25  C   UNL     1      31.430 -10.502 -19.745  0.00  0.00    +0.138 C 
ATOM     26  C   UNL     1      31.802 -11.891 -20.263  0.00  0.00    +0.044 C 
ATOM     27  C   UNL     1      30.204 -10.579 -18.838  0.00  0.00    +0.044 C 
ATOM     28  C   UNL     1      32.605  -9.864 -19.007  0.00  0.00    +0.044 C 
ENDBRANCH  24  25
ENDBRANCH   9  24
TORSDOF 5
ENDMDL
MODEL 6
REMARK VINA RESULT:      -7.4      3.072      7.470
REMARK  Name = 5327152
REMARK  5 active torsions:
REMARK  status: ('A' for Active; 'I' for Inactive)
REMARK    1  A    between atoms: C_3  and  C_15
REMARK    2  A    between atoms: C_9  and  O_24
REMARK    3  A    between atoms: C_11  and  N_18
REMARK    4  A    between atoms: N_18  and  S_20
REMARK    5  A    between atoms: O_24  and  C_25
REMARK                            x       y       z     vdW  Elec       q    Type
REMARK                         _______ _______ _______ _____ _____    ______ ____
ROOT
ATOM      1  O   UNL     1      33.752 -24.264 -17.992  0.00  0.00    -0.226 OA
ATOM      2  N   UNL     1      33.994 -22.157 -18.962  0.00  0.00    -0.235 N 
ATOM      3  C   UNL     1      35.412 -22.346 -19.266  0.00  0.00    +0.159 C 
ATOM      4  C   UNL     1      35.782 -21.853 -20.661  0.00  0.00    +0.055 C 
ATOM      5  C   UNL     1      33.393 -20.844 -19.235  0.00  0.00    +0.124 C 
ATOM      6  C   UNL     1      35.206 -20.500 -20.982  0.00  0.00    -0.022 C 
ATOM      7  C   UNL     1      34.062 -20.036 -20.314  0.00  0.00    -0.005 C 
ATOM      8  C   UNL     1      33.532 -18.781 -20.651  0.00  0.00    +0.013 C 
ATOM      9  C   UNL     1      33.301 -23.149 -18.249  0.00  0.00    +0.405 C 
ATOM     10  C   UNL     1      35.785 -19.718 -21.992  0.00  0.00    -0.003 C 
ATOM     11  C   UNL     1      34.121 -18.004 -21.648  0.00  0.00    +0.065 C 
ATOM     12  C   UNL     1      35.246 -18.474 -22.320  0.00  0.00    +0.016 C 
ENDROOT
BRANCH   3  15
ATOM     13  O   UNL     1      36.756 -20.583 -18.374  0.00  0.00    -0.273 OA
ATOM     14  N   UNL     1      36.189 -22.373 -16.998  0.00  0.00    -0.301 N 
ATOM     15  C   UNL     1      36.187 -21.654 -18.181  0.00  0.00    +0.241 C 
ATOM     16  C   UNL     1      36.882 -21.936 -15.808  0.00  0.00    +0.111 C 
ATOM     17  H   UNL     1      35.694 -23.224 -16.965  0.00  0.00    +0.150 HD
ENDBRANCH   3  15
BRANCH  11  18
ATOM     18  N   UNL     1      33.569 -16.731 -21.982  0.00  0.00    -0.213 N 
ATOM     19  H   UNL     1      32.912 -16.627 -22.708  0.00  0.00    +0.174 HD
BRANCH  18  20
ATOM     20  S   UNL     1      34.112 -15.378 -21.045  0.00  0.00    +0.091 S 
ATOM     21  O   UNL     1      32.770 -14.839 -20.292  0.00  0.00    -0.050 OA
ATOM     22  O   UNL     1      35.030 -15.854 -20.026  0.00  0.00    -0.050 OA
ATOM     23  O   UNL     1      34.531 -14.338 -21.967  0.00  0.00    -0.050 OA
ENDBRANCH  18  20
ENDBRANCH  11  18
BRANCH   9  24
ATOM     24  O   UNL     1      32.053 -22.738 -17.860  0.00  0.00    -0.442 OA
BRANCH  24  25
ATOM     25  C   UNL     1      31.643 -23.128 -16.544  0.00  0.00    +0.138 C 
ATOM     26  C   UNL     1      31.323 -24.622 -16.558  0.00  0.00    +0.044 C 
ATOM     27  C   UNL     1      30.399 -22.316 -16.189  0.00  0.00    +0.044 C 
ATOM     28  C   UNL     1      32.779 -22.824 -15.569  0.00  0.00    +0.044 C 
ENDBRANCH  24  25
ENDBRANCH   9  24
TORSDOF 5
ENDMDL
MODEL 7
REMARK VINA RESULT:      -7.3      5.856      9.433
REMARK  Name = 5327152
REMARK  5 active torsions:
REMARK  status: ('A' for Active; 'I' for Inactive)
REMARK    1  A    between atoms: C_3  and  C_15
REMARK    2  A    between atoms: C_9  and  O_24
REMARK    3  A    between atoms: C_11  and  N_18
REMARK    4  A    between atoms: N_18  and  S_20
REMARK    5  A    between atoms: O_24  and  C_25
REMARK                            x       y       z     vdW  Elec       q    Type
REMARK                         _______ _______ _______ _____ _____    ______ ____
ROOT
ATOM      1  O   UNL     1      30.414  -7.293 -23.099  0.00  0.00    -0.226 OA
ATOM      2  N   UNL     1      31.646  -9.265 -22.933  0.00  0.00    -0.235 N 
ATOM      3  C   UNL     1      31.037  -9.660 -21.663  0.00  0.00    +0.159 C 
ATOM      4  C   UNL     1      30.674 -11.142 -21.624  0.00  0.00    +0.055 C 
ATOM      5  C   UNL     1      32.739 -10.091 -23.466  0.00  0.00    +0.124 C 
ATOM      6  C   UNL     1      31.772 -12.032 -22.143  0.00  0.00    -0.022 C 
ATOM      7  C   UNL     1      32.737 -11.531 -23.030  0.00  0.00    -0.005 C 
ATOM      8  C   UNL     1      33.733 -12.390 -23.517  0.00  0.00    +0.013 C 
ATOM      9  C   UNL     1      31.317  -8.025 -23.502  0.00  0.00    +0.405 C 
ATOM     10  C   UNL     1      31.800 -13.386 -21.778  0.00  0.00    -0.003 C 
ATOM     11  C   UNL     1      33.762 -13.733 -23.139  0.00  0.00    +0.065 C 
ATOM     12  C   UNL     1      32.794 -14.231 -22.272  0.00  0.00    +0.016 C 
ENDROOT
BRANCH   3  15
ATOM     13  O   UNL     1      32.480 -10.097 -19.809  0.00  0.00    -0.273 OA
ATOM     14  N   UNL     1      32.230  -7.905 -20.550  0.00  0.00    -0.301 N 
ATOM     15  C   UNL     1      31.997  -9.269 -20.576  0.00  0.00    +0.241 C 
ATOM     16  C   UNL     1      33.098  -7.270 -19.585  0.00  0.00    +0.111 C 
ATOM     17  H   UNL     1      31.784  -7.339 -21.221  0.00  0.00    +0.150 HD
ENDBRANCH   3  15
BRANCH  11  18
ATOM     18  N   UNL     1      34.781 -14.596 -23.645  0.00  0.00    -0.213 N 
ATOM     19  H   UNL     1      35.735 -14.418 -23.482  0.00  0.00    +0.174 HD
BRANCH  18  20
ATOM     20  S   UNL     1      34.253 -15.971 -24.557  0.00  0.00    +0.091 S 
ATOM     21  O   UNL     1      35.447 -16.225 -25.638  0.00  0.00    -0.050 OA
ATOM     22  O   UNL     1      34.200 -17.124 -23.676  0.00  0.00    -0.050 OA
ATOM     23  O   UNL     1      33.073 -15.580 -25.308  0.00  0.00    -0.050 OA
ENDBRANCH  18  20
ENDBRANCH  11  18
BRANCH   9  24
ATOM     24  O   UNL     1      32.120  -7.708 -24.566  0.00  0.00    -0.442 OA
BRANCH  24  25
ATOM     25  C   UNL     1      32.934  -6.539 -24.415  0.00  0.00    +0.138 C 
ATOM     26  C   UNL     1      32.652  -5.596 -25.584  0.00  0.00    +0.044 C 
ATOM     27  C   UNL     1      34.393  -6.989 -24.428  0.00  0.00    +0.044 C 
ATOM     28  C   UNL     1      32.589  -5.874 -23.084  0.00  0.00    +0.044 C 
ENDBRANCH  24  25
ENDBRANCH   9  24
TORSDOF 5
ENDMDL
MODEL 8
REMARK VINA RESULT:      -7.1      7.006      9.768
REMARK  Name = 5327152
REMARK  5 active torsions:
REMARK  status: ('A' for Active; 'I' for Inactive)
REMARK    1  A    between atoms: C_3  and  C_15
REMARK    2  A    between atoms: C_9  and  O_24
REMARK    3  A    between atoms: C_11  and  N_18
REMARK    4  A    between atoms: N_18  and  S_20
REMARK    5  A    between atoms: O_24  and  C_25
REMARK                            x       y       z     vdW  Elec       q    Type
REMARK                         _______ _______ _______ _____ _____    ______ ____
ROOT
ATOM      1  O   UNL     1      37.107 -25.529 -14.446  0.00  0.00    -0.226 OA
ATOM      2  N   UNL     1      35.114 -24.357 -14.747  0.00  0.00    -0.235 N 
ATOM      3  C   UNL     1      35.457 -23.917 -16.099  0.00  0.00    +0.159 C 
ATOM      4  C   UNL     1      34.285 -24.041 -17.069  0.00  0.00    +0.055 C 
ATOM      5  C   UNL     1      33.873 -23.849 -14.145  0.00  0.00    +0.124 C 
ATOM      6  C   UNL     1      32.993 -23.515 -16.505  0.00  0.00    -0.022 C 
ATOM      7  C   UNL     1      32.798 -23.444 -15.117  0.00  0.00    -0.005 C 
ATOM      8  C   UNL     1      31.574 -22.973 -14.619  0.00  0.00    +0.013 C 
ATOM      9  C   UNL     1      36.054 -25.080 -13.996  0.00  0.00    +0.405 C 
ATOM     10  C   UNL     1      31.956 -23.142 -17.371  0.00  0.00    -0.003 C 
ATOM     11  C   UNL     1      30.551 -22.592 -15.488  0.00  0.00    +0.065 C 
ATOM     12  C   UNL     1      30.742 -22.679 -16.864  0.00  0.00    +0.016 C 
ENDROOT
BRANCH   3  15
ATOM     13  O   UNL     1      35.709 -21.802 -15.017  0.00  0.00    -0.273 OA
ATOM     14  N   UNL     1      36.722 -22.136 -17.086  0.00  0.00    -0.301 N 
ATOM     15  C   UNL     1      35.969 -22.510 -15.985  0.00  0.00    +0.241 C 
ATOM     16  C   UNL     1      37.310 -20.824 -17.232  0.00  0.00    +0.111 C 
ATOM     17  H   UNL     1      36.863 -22.795 -17.804  0.00  0.00    +0.150 HD
ENDBRANCH   3  15
BRANCH  11  18
ATOM     18  N   UNL     1      29.310 -22.118 -14.966  0.00  0.00    -0.213 N 
ATOM     19  H   UNL     1      29.273 -21.528 -14.179  0.00  0.00    +0.174 HD
BRANCH  18  20
ATOM     20  S   UNL     1      27.874 -22.632 -15.788  0.00  0.00    +0.091 S 
ATOM     21  O   UNL     1      27.809 -21.693 -17.120  0.00  0.00    -0.050 OA
ATOM     22  O   UNL     1      28.051 -24.005 -16.224  0.00  0.00    -0.050 OA
ATOM     23  O   UNL     1      26.736 -22.277 -14.960  0.00  0.00    -0.050 OA
ENDBRANCH  18  20
ENDBRANCH  11  18
BRANCH   9  24
ATOM     24  O   UNL     1      35.673 -25.233 -12.688  0.00  0.00    -0.442 OA
BRANCH  24  25
ATOM     25  C   UNL     1      36.509 -24.604 -11.710  0.00  0.00    +0.138 C 
ATOM     26  C   UNL     1      37.786 -25.430 -11.560  0.00  0.00    +0.044 C 
ATOM     27  C   UNL     1      35.735 -24.570 -10.394  0.00  0.00    +0.044 C 
ATOM     28  C   UNL     1      36.830 -23.187 -12.182  0.00  0.00    +0.044 C 
ENDBRANCH  24  25
ENDBRANCH   9  24
TORSDOF 5
ENDMDL
MODEL 9
REMARK VINA RESULT:      -6.9      6.342      9.913
REMARK  Name = 5327152
REMARK  5 active torsions:
REMARK  status: ('A' for Active; 'I' for Inactive)
REMARK    1  A    between atoms: C_3  and  C_15
REMARK    2  A    between atoms: C_9  and  O_24
REMARK    3  A    between atoms: C_11  and  N_18
REMARK    4  A    between atoms: N_18  and  S_20
REMARK    5  A    between atoms: O_24  and  C_25
REMARK                            x       y       z     vdW  Elec       q    Type
REMARK                         _______ _______ _______ _____ _____    ______ ____
ROOT
ATOM      1  O   UNL     1      31.991 -25.903 -13.837  0.00  0.00    -0.226 OA
ATOM      2  N   UNL     1      33.554 -24.384 -14.665  0.00  0.00    -0.235 N 
ATOM      3  C   UNL     1      34.642 -24.892 -13.830  0.00  0.00    +0.159 C 
ATOM      4  C   UNL     1      35.954 -25.026 -14.598  0.00  0.00    +0.055 C 
ATOM      5  C   UNL     1      33.807 -23.194 -15.490  0.00  0.00    +0.124 C 
ATOM      6  C   UNL     1      36.269 -23.822 -15.445  0.00  0.00    -0.022 C 
ATOM      7  C   UNL     1      35.244 -22.968 -15.879  0.00  0.00    -0.005 C 
ATOM      8  C   UNL     1      35.563 -21.867 -16.688  0.00  0.00    +0.013 C 
ATOM      9  C   UNL     1      32.262 -24.911 -14.513  0.00  0.00    +0.405 C 
ATOM     10  C   UNL     1      37.590 -23.580 -15.847  0.00  0.00    -0.003 C 
ATOM     11  C   UNL     1      36.882 -21.626 -17.074  0.00  0.00    +0.065 C 
ATOM     12  C   UNL     1      37.895 -22.484 -16.655  0.00  0.00    +0.016 C 
ENDROOT
BRANCH   3  15
ATOM     13  O   UNL     1      33.800 -23.309 -12.250  0.00  0.00    -0.273 OA
ATOM     14  N   UNL     1      36.030 -23.960 -12.112  0.00  0.00    -0.301 N 
ATOM     15  C   UNL     1      34.754 -23.972 -12.648  0.00  0.00    +0.241 C 
ATOM     16  C   UNL     1      36.406 -23.141 -10.983  0.00  0.00    +0.111 C 
ATOM     17  H   UNL     1      36.716 -24.538 -12.520  0.00  0.00    +0.150 HD
ENDBRANCH   3  15
BRANCH  11  18
ATOM     18  N   UNL     1      37.192 -20.504 -17.899  0.00  0.00    -0.213 N 
ATOM     19  H   UNL     1      37.666 -19.717 -17.544  0.00  0.00    +0.174 HD
BRANCH  18  20
ATOM     20  S   UNL     1      36.693 -20.596 -19.556  0.00  0.00    +0.091 S 
ATOM     21  O   UNL     1      35.063 -20.588 -19.491  0.00  0.00    -0.050 OA
ATOM     22  O   UNL     1      37.114 -19.386 -20.239  0.00  0.00    -0.050 OA
ATOM     23  O   UNL     1      37.094 -21.894 -20.069  0.00  0.00    -0.050 OA
ENDBRANCH  18  20
ENDBRANCH  11  18
BRANCH   9  24
ATOM     24  O   UNL     1      31.319 -24.195 -15.203  0.00  0.00    -0.442 OA
BRANCH  24  25
ATOM     25  C   UNL     1      30.093 -23.935 -14.510  0.00  0.00    +0.138 C 
ATOM     26  C   UNL     1      29.147 -25.113 -14.739  0.00  0.00    +0.044 C 
ATOM     27  C   UNL     1      29.501 -22.651 -15.087  0.00  0.00    +0.044 C 
ATOM     28  C   UNL     1      30.400 -23.765 -13.023  0.00  0.00    +0.044 C 
ENDBRANCH  24  25
ENDBRANCH   9  24
TORSDOF 5
ENDMDL
