MODEL 1
REMARK VINA RESULT:      -9.5      0.000      0.000
REMARK  Name = 107805
REMARK  4 active torsions:
REMARK  status: ('A' for Active; 'I' for Inactive)
REMARK    1  A    between atoms: C_4  and  C_17
REMARK    2  A    between atoms: N_16  and  C_19
REMARK    3  A    between atoms: C_19  and  C_20
REMARK    4  A    between atoms: C_20  and  N_21
REMARK                            x       y       z     vdW  Elec       q    Type
REMARK                         _______ _______ _______ _____ _____    ______ ____
ROOT
ATOM      1  N   UNL     1      35.034 -22.981 -16.656  0.00  0.00    -0.405 NA
ATOM      2  C   UNL     1      33.844 -23.354 -16.147  0.00  0.00    +0.121 C 
ATOM      3  C   UNL     1      32.634 -23.070 -16.802  0.00  0.00    +0.026 C 
ATOM      4  C   UNL     1      33.788 -24.043 -14.938  0.00  0.00    +0.150 C 
ATOM      5  C   UNL     1      33.930 -21.988 -18.549  0.00  0.00    +0.030 C 
ATOM      6  C   UNL     1      32.698 -22.378 -18.017  0.00  0.00    +0.005 C 
ATOM      7  C   UNL     1      35.090 -22.314 -17.826  0.00  0.00    +0.131 C 
ATOM      8  C   UNL     1      31.409 -23.474 -16.244  0.00  0.00    +0.002 C 
ATOM      9  C   UNL     1      32.572 -24.446 -14.380  0.00  0.00    -0.010 C 
ATOM     10  C   UNL     1      31.381 -24.161 -15.034  0.00  0.00    -0.004 C 
ATOM     11  C   UNL     1      34.023 -21.293 -19.768  0.00  0.00    +0.003 C 
ATOM     12  C   UNL     1      36.319 -21.929 -18.352  0.00  0.00    +0.032 C 
ATOM     13  C   UNL     1      35.265 -20.918 -20.271  0.00  0.00    +0.000 C 
ATOM     14  C   UNL     1      36.415 -21.237 -19.561  0.00  0.00    +0.003 C 
ENDROOT
BRANCH   4  17
ATOM     15  O   UNL     1      35.431 -23.614 -13.322  0.00  0.00    -0.274 OA
ATOM     16  N   UNL     1      35.649 -25.563 -14.557  0.00  0.00    -0.306 N 
ATOM     17  C   UNL     1      35.010 -24.368 -14.213  0.00  0.00    +0.233 C 
ATOM     18  H   UNL     1      35.258 -26.112 -15.275  0.00  0.00    +0.149 HD
BRANCH  16  19
ATOM     19  C   UNL     1      36.855 -26.035 -13.915  0.00  0.00    +0.067 C 
BRANCH  19  20
ATOM     20  C   UNL     1      38.050 -25.943 -14.851  0.00  0.00    -0.056 C 
BRANCH  20  21
ATOM     21  N   UNL     1      39.102 -25.132 -14.251  0.00  0.00    +0.385 N 
ATOM     22  C   UNL     1      40.391 -25.822 -14.323  0.00  0.00    -0.101 C 
ATOM     23  C   UNL     1      38.777 -24.810 -12.860  0.00  0.00    -0.101 C 
ATOM     24  H   UNL     1      39.171 -24.261 -14.778  0.00  0.00    -0.080 HD
ENDBRANCH  20  21
ENDBRANCH  19  20
ENDBRANCH  16  19
ENDBRANCH   4  17
TORSDOF 4
ENDMDL
MODEL 2
REMARK VINA RESULT:      -9.4      1.590      4.348
REMARK  Name = 107805
REMARK  4 active torsions:
REMARK  status: ('A' for Active; 'I' for Inactive)
REMARK    1  A    between atoms: C_4  and  C_17
REMARK    2  A    between atoms: N_16  and  C_19
REMARK    3  A    between atoms: C_19  and  C_20
REMARK    4  A    between atoms: C_20  and  N_21
REMARK                            x       y       z     vdW  Elec       q    Type
REMARK                         _______ _______ _______ _____ _____    ______ ____
ROOT
ATOM      1  N   UNL     1      34.183 -23.620 -15.346  0.00  0.00    -0.405 NA
ATOM      2  C   UNL     1      34.520 -23.040 -16.513  0.00  0.00    +0.121 C 
ATOM      3  C   UNL     1      33.562 -22.738 -17.496  0.00  0.00    +0.026 C 
ATOM      4  C   UNL     1      35.849 -22.721 -16.776  0.00  0.00    +0.150 C 
ATOM      5  C   UNL     1      31.872 -23.663 -16.016  0.00  0.00    +0.030 C 
ATOM      6  C   UNL     1      32.227 -23.060 -17.226  0.00  0.00    +0.005 C 
ATOM      7  C   UNL     1      32.896 -23.929 -15.091  0.00  0.00    +0.131 C 
ATOM      8  C   UNL     1      33.947 -22.132 -18.704  0.00  0.00    +0.002 C 
ATOM      9  C   UNL     1      36.236 -22.119 -17.976  0.00  0.00    -0.010 C 
ATOM     10  C   UNL     1      35.283 -21.823 -18.942  0.00  0.00    -0.004 C 
ATOM     11  C   UNL     1      30.539 -23.997 -15.718  0.00  0.00    +0.003 C 
ATOM     12  C   UNL     1      32.549 -24.528 -13.883  0.00  0.00    +0.032 C 
ATOM     13  C   UNL     1      30.218 -24.596 -14.504  0.00  0.00    +0.000 C 
ATOM     14  C   UNL     1      31.226 -24.863 -13.585  0.00  0.00    +0.003 C 
ENDROOT
BRANCH   4  17
ATOM     15  O   UNL     1      37.554 -22.086 -15.297  0.00  0.00    -0.274 OA
ATOM     16  N   UNL     1      37.066 -24.348 -15.436  0.00  0.00    -0.306 N 
ATOM     17  C   UNL     1      36.888 -23.008 -15.794  0.00  0.00    +0.233 C 
ATOM     18  H   UNL     1      36.501 -25.027 -15.872  0.00  0.00    +0.149 HD
BRANCH  16  19
ATOM     19  C   UNL     1      38.037 -24.790 -14.461  0.00  0.00    +0.067 C 
BRANCH  19  20
ATOM     20  C   UNL     1      37.427 -25.790 -13.491  0.00  0.00    -0.056 C 
BRANCH  20  21
ATOM     21  N   UNL     1      37.233 -25.173 -12.184  0.00  0.00    +0.385 N 
ATOM     22  C   UNL     1      35.844 -24.740 -12.020  0.00  0.00    -0.101 C 
ATOM     23  C   UNL     1      38.141 -24.039 -12.007  0.00  0.00    -0.101 C 
ATOM     24  H   UNL     1      37.442 -25.871 -11.470  0.00  0.00    -0.080 HD
ENDBRANCH  20  21
ENDBRANCH  19  20
ENDBRANCH  16  19
ENDBRANCH   4  17
TORSDOF 4
ENDMDL
MODEL 3
REMARK VINA RESULT:      -9.3      9.164     13.283
REMARK  Name = 107805
REMARK  4 active torsions:
REMARK  status: ('A' for Active; 'I' for Inactive)
REMARK    1  A    between atoms: C_4  and  C_17
REMARK    2  A    between atoms: N_16  and  C_19
REMARK    3  A    between atoms: C_19  and  C_20
REMARK    4  A    between atoms: C_20  and  N_21
REMARK                            x       y       z     vdW  Elec       q    Type
REMARK                         _______ _______ _______ _____ _____    ______ ____
ROOT
ATOM      1  N   UNL     1      34.070 -15.381 -22.830  0.00  0.00    -0.405 NA
ATOM      2  C   UNL     1      33.692 -15.083 -24.087  0.00  0.00    +0.121 C 
ATOM      3  C   UNL     1      33.811 -16.008 -25.138  0.00  0.00    +0.026 C 
ATOM      4  C   UNL     1      33.164 -13.828 -24.378  0.00  0.00    +0.150 C 
ATOM      5  C   UNL     1      34.737 -17.582 -23.535  0.00  0.00    +0.030 C 
ATOM      6  C   UNL     1      34.342 -17.268 -24.839  0.00  0.00    +0.005 C 
ATOM      7  C   UNL     1      34.581 -16.595 -22.547  0.00  0.00    +0.131 C 
ATOM      8  C   UNL     1      33.406 -15.665 -26.439  0.00  0.00    +0.002 C 
ATOM      9  C   UNL     1      32.760 -13.483 -25.671  0.00  0.00    -0.010 C 
ATOM     10  C   UNL     1      32.882 -14.404 -26.703  0.00  0.00    -0.004 C 
ATOM     11  C   UNL     1      35.273 -18.840 -23.207  0.00  0.00    +0.003 C 
ATOM     12  C   UNL     1      34.972 -16.902 -21.247  0.00  0.00    +0.032 C 
ATOM     13  C   UNL     1      35.657 -19.122 -21.899  0.00  0.00    +0.000 C 
ATOM     14  C   UNL     1      35.506 -18.150 -20.918  0.00  0.00    +0.003 C 
ENDROOT
BRANCH   4  17
ATOM     15  O   UNL     1      33.737 -11.818 -23.315  0.00  0.00    -0.274 OA
ATOM     16  N   UNL     1      32.013 -13.052 -22.379  0.00  0.00    -0.306 N 
ATOM     17  C   UNL     1      33.013 -12.826 -23.329  0.00  0.00    +0.233 C 
ATOM     18  H   UNL     1      31.476 -13.875 -22.453  0.00  0.00    +0.149 HD
BRANCH  16  19
ATOM     19  C   UNL     1      31.724 -12.142 -21.294  0.00  0.00    +0.067 C 
BRANCH  19  20
ATOM     20  C   UNL     1      30.980 -10.912 -21.790  0.00  0.00    -0.056 C 
BRANCH  20  21
ATOM     21  N   UNL     1      31.905  -9.801 -21.975  0.00  0.00    +0.385 N 
ATOM     22  C   UNL     1      32.040  -9.030 -20.737  0.00  0.00    -0.101 C 
ATOM     23  C   UNL     1      31.460  -8.933 -23.066  0.00  0.00    -0.101 C 
ATOM     24  H   UNL     1      32.818 -10.185 -22.217  0.00  0.00    -0.080 HD
ENDBRANCH  20  21
ENDBRANCH  19  20
ENDBRANCH  16  19
ENDBRANCH   4  17
TORSDOF 4
ENDMDL
MODEL 4
REMARK VINA RESULT:      -9.3      6.533      9.683
REMARK  Name = 107805
REMARK  4 active torsions:
REMARK  status: ('A' for Active; 'I' for Inactive)
REMARK    1  A    between atoms: C_4  and  C_17
REMARK    2  A    between atoms: N_16  and  C_19
REMARK    3  A    between atoms: C_19  and  C_20
REMARK    4  A    between atoms: C_20  and  N_21
REMARK                            x       y       z     vdW  Elec       q    Type
REMARK                         _______ _______ _______ _____ _____    ______ ____
ROOT
ATOM      1  N   UNL     1      33.567 -15.593 -21.663  0.00  0.00    -0.405 NA
ATOM      2  C   UNL     1      33.963 -16.134 -22.830  0.00  0.00    +0.121 C 
ATOM      3  C   UNL     1      33.771 -15.476 -24.057  0.00  0.00    +0.026 C 
ATOM      4  C   UNL     1      34.583 -17.381 -22.846  0.00  0.00    +0.150 C 
ATOM      5  C   UNL     1      32.734 -13.658 -22.825  0.00  0.00    +0.030 C 
ATOM      6  C   UNL     1      33.148 -14.224 -24.034  0.00  0.00    +0.005 C 
ATOM      7  C   UNL     1      32.966 -14.387 -21.646  0.00  0.00    +0.131 C 
ATOM      8  C   UNL     1      34.197 -16.069 -25.258  0.00  0.00    +0.002 C 
ATOM      9  C   UNL     1      35.008 -17.973 -24.039  0.00  0.00    -0.010 C 
ATOM     10  C   UNL     1      34.815 -17.316 -25.246  0.00  0.00    -0.004 C 
ATOM     11  C   UNL     1      32.106 -12.401 -22.772  0.00  0.00    +0.003 C 
ATOM     12  C   UNL     1      32.557 -13.828 -20.439  0.00  0.00    +0.032 C 
ATOM     13  C   UNL     1      31.705 -11.865 -21.552  0.00  0.00    +0.000 C 
ATOM     14  C   UNL     1      31.931 -12.580 -20.383  0.00  0.00    +0.003 C 
ENDROOT
BRANCH   4  17
ATOM     15  O   UNL     1      35.475 -17.598 -20.688  0.00  0.00    -0.274 OA
ATOM     16  N   UNL     1      34.235 -19.380 -21.503  0.00  0.00    -0.306 N 
ATOM     17  C   UNL     1      34.812 -18.111 -21.605  0.00  0.00    +0.233 C 
ATOM     18  H   UNL     1      33.722 -19.722 -22.271  0.00  0.00    +0.149 HD
BRANCH  16  19
ATOM     19  C   UNL     1      34.351 -20.216 -20.330  0.00  0.00    +0.067 C 
BRANCH  19  20
ATOM     20  C   UNL     1      35.692 -20.932 -20.294  0.00  0.00    -0.056 C 
BRANCH  20  21
ATOM     21  N   UNL     1      35.668 -22.003 -19.306  0.00  0.00    +0.385 N 
ATOM     22  C   UNL     1      34.295 -22.278 -18.877  0.00  0.00    -0.101 C 
ATOM     23  C   UNL     1      36.501 -21.661 -18.152  0.00  0.00    -0.101 C 
ATOM     24  H   UNL     1      36.046 -22.844 -19.741  0.00  0.00    -0.080 HD
ENDBRANCH  20  21
ENDBRANCH  19  20
ENDBRANCH  16  19
ENDBRANCH   4  17
TORSDOF 4
ENDMDL
MODEL 5
REMARK VINA RESULT:      -9.3      2.113      6.158
REMARK  Name = 107805
REMARK  4 active torsions:
REMARK  status: ('A' for Active; 'I' for Inactive)
REMARK    1  A    between atoms: C_4  and  C_17
REMARK    2  A    between atoms: N_16  and  C_19
REMARK    3  A    between atoms: C_19  and  C_20
REMARK    4  A    between atoms: C_20  and  N_21
REMARK                            x       y       z     vdW  Elec       q    Type
REMARK                         _______ _______ _______ _____ _____    ______ ____
ROOT
ATOM      1  N   UNL     1      35.487 -23.875 -15.923  0.00  0.00    -0.405 NA
ATOM      2  C   UNL     1      34.166 -23.652 -15.793  0.00  0.00    +0.121 C 
ATOM      3  C   UNL     1      33.499 -23.830 -14.569  0.00  0.00    +0.026 C 
ATOM      4  C   UNL     1      33.418 -23.232 -16.890  0.00  0.00    +0.150 C 
ATOM      5  C   UNL     1      35.628 -24.485 -13.600  0.00  0.00    +0.030 C 
ATOM      6  C   UNL     1      34.256 -24.251 -13.470  0.00  0.00    +0.005 C 
ATOM      7  C   UNL     1      36.212 -24.282 -14.862  0.00  0.00    +0.131 C 
ATOM      8  C   UNL     1      32.118 -23.588 -14.468  0.00  0.00    +0.002 C 
ATOM      9  C   UNL     1      32.045 -22.991 -16.793  0.00  0.00    -0.010 C 
ATOM     10  C   UNL     1      31.394 -23.169 -15.580  0.00  0.00    -0.004 C 
ATOM     11  C   UNL     1      36.413 -24.909 -12.513  0.00  0.00    +0.003 C 
ATOM     12  C   UNL     1      37.578 -24.512 -14.997  0.00  0.00    +0.032 C 
ATOM     13  C   UNL     1      37.777 -25.133 -12.674  0.00  0.00    +0.000 C 
ATOM     14  C   UNL     1      38.360 -24.935 -13.919  0.00  0.00    +0.003 C 
ENDROOT
BRANCH   4  17
ATOM     15  O   UNL     1      33.772 -23.763 -19.147  0.00  0.00    -0.274 OA
ATOM     16  N   UNL     1      34.959 -21.967 -18.285  0.00  0.00    -0.306 N 
ATOM     17  C   UNL     1      34.054 -23.028 -18.186  0.00  0.00    +0.233 C 
ATOM     18  H   UNL     1      35.134 -21.426 -17.481  0.00  0.00    +0.149 HD
BRANCH  16  19
ATOM     19  C   UNL     1      35.652 -21.622 -19.506  0.00  0.00    +0.067 C 
BRANCH  19  20
ATOM     20  C   UNL     1      34.832 -20.659 -20.351  0.00  0.00    -0.056 C 
BRANCH  20  21
ATOM     21  N   UNL     1      35.528 -19.386 -20.486  0.00  0.00    +0.385 N 
ATOM     22  C   UNL     1      35.026 -18.643 -21.643  0.00  0.00    -0.101 C 
ATOM     23  C   UNL     1      36.972 -19.596 -20.607  0.00  0.00    -0.101 C 
ATOM     24  H   UNL     1      35.350 -18.836 -19.646  0.00  0.00    -0.080 HD
ENDBRANCH  20  21
ENDBRANCH  19  20
ENDBRANCH  16  19
ENDBRANCH   4  17
TORSDOF 4
ENDMDL
MODEL 6
REMARK VINA RESULT:      -9.2      1.164      1.364
REMARK  Name = 107805
REMARK  4 active torsions:
REMARK  status: ('A' for Active; 'I' for Inactive)
REMARK    1  A    between atoms: C_4  and  C_17
REMARK    2  A    between atoms: N_16  and  C_19
REMARK    3  A    between atoms: C_19  and  C_20
REMARK    4  A    between atoms: C_20  and  N_21
REMARK                            x       y       z     vdW  Elec       q    Type
REMARK                         _______ _______ _______ _____ _____    ______ ____
ROOT
ATOM      1  N   UNL     1      34.958 -22.790 -17.365  0.00  0.00    -0.405 NA
ATOM      2  C   UNL     1      33.818 -23.146 -16.742  0.00  0.00    +0.121 C 
ATOM      3  C   UNL     1      32.556 -22.758 -17.223  0.00  0.00    +0.026 C 
ATOM      4  C   UNL     1      33.867 -23.921 -15.586  0.00  0.00    +0.150 C 
ATOM      5  C   UNL     1      33.694 -21.607 -19.035  0.00  0.00    +0.030 C 
ATOM      6  C   UNL     1      32.514 -21.980 -18.385  0.00  0.00    +0.005 C 
ATOM      7  C   UNL     1      34.911 -22.040 -18.483  0.00  0.00    +0.131 C 
ATOM      8  C   UNL     1      31.386 -23.147 -16.549  0.00  0.00    +0.002 C 
ATOM      9  C   UNL     1      32.706 -24.310 -14.914  0.00  0.00    -0.010 C 
ATOM     10  C   UNL     1      31.463 -23.922 -15.396  0.00  0.00    -0.004 C 
ATOM     11  C   UNL     1      33.680 -20.826 -20.204  0.00  0.00    +0.003 C 
ATOM     12  C   UNL     1      36.090 -21.673 -19.127  0.00  0.00    +0.032 C 
ATOM     13  C   UNL     1      34.873 -20.471 -20.828  0.00  0.00    +0.000 C 
ATOM     14  C   UNL     1      36.080 -20.896 -20.287  0.00  0.00    +0.003 C 
ENDROOT
BRANCH   4  17
ATOM     15  O   UNL     1      35.480 -25.551 -15.096  0.00  0.00    -0.274 OA
ATOM     16  N   UNL     1      35.966 -23.369 -14.486  0.00  0.00    -0.306 N 
ATOM     17  C   UNL     1      35.147 -24.357 -15.040  0.00  0.00    +0.233 C 
ATOM     18  H   UNL     1      35.637 -22.440 -14.476  0.00  0.00    +0.149 HD
BRANCH  16  19
ATOM     19  C   UNL     1      37.272 -23.638 -13.927  0.00  0.00    +0.067 C 
BRANCH  19  20
ATOM     20  C   UNL     1      38.267 -24.021 -15.012  0.00  0.00    -0.056 C 
BRANCH  20  21
ATOM     21  N   UNL     1      38.745 -25.381 -14.803  0.00  0.00    +0.385 N 
ATOM     22  C   UNL     1      38.487 -25.813 -13.427  0.00  0.00    -0.101 C 
ATOM     23  C   UNL     1      40.173 -25.481 -15.106  0.00  0.00    -0.101 C 
ATOM     24  H   UNL     1      38.235 -25.997 -15.436  0.00  0.00    -0.080 HD
ENDBRANCH  20  21
ENDBRANCH  19  20
ENDBRANCH  16  19
ENDBRANCH   4  17
TORSDOF 4
ENDMDL
MODEL 7
REMARK VINA RESULT:      -9.1      2.301      5.459
REMARK  Name = 107805
REMARK  4 active torsions:
REMARK  status: ('A' for Active; 'I' for Inactive)
REMARK    1  A    between atoms: C_4  and  C_17
REMARK    2  A    between atoms: N_16  and  C_19
REMARK    3  A    between atoms: C_19  and  C_20
REMARK    4  A    between atoms: C_20  and  N_21
REMARK                            x       y       z     vdW  Elec       q    Type
REMARK                         _______ _______ _______ _____ _____    ______ ____
ROOT
ATOM      1  N   UNL     1      34.178 -23.099 -16.166  0.00  0.00    -0.405 NA
ATOM      2  C   UNL     1      34.910 -23.330 -15.060  0.00  0.00    +0.121 C 
ATOM      3  C   UNL     1      36.283 -23.037 -15.003  0.00  0.00    +0.026 C 
ATOM      4  C   UNL     1      34.310 -23.875 -13.927  0.00  0.00    +0.150 C 
ATOM      5  C   UNL     1      36.125 -22.249 -17.295  0.00  0.00    +0.030 C 
ATOM      6  C   UNL     1      36.880 -22.489 -16.144  0.00  0.00    +0.005 C 
ATOM      7  C   UNL     1      34.758 -22.573 -17.263  0.00  0.00    +0.131 C 
ATOM      8  C   UNL     1      37.018 -23.290 -13.832  0.00  0.00    +0.002 C 
ATOM      9  C   UNL     1      35.038 -24.127 -12.761  0.00  0.00    -0.010 C 
ATOM     10  C   UNL     1      36.394 -23.834 -12.713  0.00  0.00    -0.004 C 
ATOM     11  C   UNL     1      36.699 -21.699 -18.456  0.00  0.00    +0.003 C 
ATOM     12  C   UNL     1      34.001 -22.335 -18.406  0.00  0.00    +0.032 C 
ATOM     13  C   UNL     1      35.920 -21.472 -19.586  0.00  0.00    +0.000 C 
ATOM     14  C   UNL     1      34.568 -21.790 -19.561  0.00  0.00    +0.003 C 
ENDROOT
BRANCH   4  17
ATOM     15  O   UNL     1      32.514 -25.381 -13.895  0.00  0.00    -0.274 OA
ATOM     16  N   UNL     1      31.996 -23.122 -13.933  0.00  0.00    -0.306 N 
ATOM     17  C   UNL     1      32.888 -24.198 -13.925  0.00  0.00    +0.233 C 
ATOM     18  H   UNL     1      32.366 -22.209 -13.957  0.00  0.00    +0.149 HD
BRANCH  16  19
ATOM     19  C   UNL     1      30.559 -23.278 -13.909  0.00  0.00    +0.067 C 
BRANCH  19  20
ATOM     20  C   UNL     1      29.946 -22.948 -15.261  0.00  0.00    -0.056 C 
BRANCH  20  21
ATOM     21  N   UNL     1      29.439 -24.158 -15.895  0.00  0.00    +0.385 N 
ATOM     22  C   UNL     1      28.305 -23.847 -16.768  0.00  0.00    -0.101 C 
ATOM     23  C   UNL     1      29.047 -25.145 -14.888  0.00  0.00    -0.101 C 
ATOM     24  H   UNL     1      30.187 -24.555 -16.465  0.00  0.00    -0.080 HD
ENDBRANCH  20  21
ENDBRANCH  19  20
ENDBRANCH  16  19
ENDBRANCH   4  17
TORSDOF 4
ENDMDL
MODEL 8
REMARK VINA RESULT:      -9.0     10.431     14.387
REMARK  Name = 107805
REMARK  4 active torsions:
REMARK  status: ('A' for Active; 'I' for Inactive)
REMARK    1  A    between atoms: C_4  and  C_17
REMARK    2  A    between atoms: N_16  and  C_19
REMARK    3  A    between atoms: C_19  and  C_20
REMARK    4  A    between atoms: C_20  and  N_21
REMARK                            x       y       z     vdW  Elec       q    Type
REMARK                         _______ _______ _______ _____ _____    ______ ____
ROOT
ATOM      1  N   UNL     1      34.112 -13.403 -23.167  0.00  0.00    -0.405 NA
ATOM      2  C   UNL     1      33.833 -13.417 -24.484  0.00  0.00    +0.121 C 
ATOM      3  C   UNL     1      33.661 -14.617 -25.194  0.00  0.00    +0.026 C 
ATOM      4  C   UNL     1      33.706 -12.219 -25.183  0.00  0.00    +0.150 C 
ATOM      5  C   UNL     1      34.079 -15.809 -23.119  0.00  0.00    +0.030 C 
ATOM      6  C   UNL     1      33.789 -15.817 -24.487  0.00  0.00    +0.005 C 
ATOM      7  C   UNL     1      34.236 -14.562 -22.490  0.00  0.00    +0.131 C 
ATOM      8  C   UNL     1      33.370 -14.595 -26.569  0.00  0.00    +0.002 C 
ATOM      9  C   UNL     1      33.417 -12.194 -26.549  0.00  0.00    -0.010 C 
ATOM     10  C   UNL     1      33.248 -13.384 -27.244  0.00  0.00    -0.004 C 
ATOM     11  C   UNL     1      34.213 -16.999 -22.384  0.00  0.00    +0.003 C 
ATOM     12  C   UNL     1      34.524 -14.547 -21.128  0.00  0.00    +0.032 C 
ATOM     13  C   UNL     1      34.503 -16.957 -21.023  0.00  0.00    +0.000 C 
ATOM     14  C   UNL     1      34.659 -15.729 -20.395  0.00  0.00    +0.003 C 
ENDROOT
BRANCH   4  17
ATOM     15  O   UNL     1      34.837 -10.207 -24.765  0.00  0.00    -0.274 OA
ATOM     16  N   UNL     1      32.890 -10.592 -23.568  0.00  0.00    -0.306 N 
ATOM     17  C   UNL     1      33.872 -10.942 -24.499  0.00  0.00    +0.233 C 
ATOM     18  H   UNL     1      32.152 -11.224 -23.408  0.00  0.00    +0.149 HD
BRANCH  16  19
ATOM     19  C   UNL     1      32.900  -9.351 -22.827  0.00  0.00    +0.067 C 
BRANCH  19  20
ATOM     20  C   UNL     1      31.816  -9.337 -21.760  0.00  0.00    -0.056 C 
BRANCH  20  21
ATOM     21  N   UNL     1      32.397  -9.061 -20.452  0.00  0.00    +0.385 N 
ATOM     22  C   UNL     1      31.693  -9.806 -19.407  0.00  0.00    -0.101 C 
ATOM     23  C   UNL     1      32.362  -7.626 -20.163  0.00  0.00    -0.101 C 
ATOM     24  H   UNL     1      33.371  -9.365 -20.467  0.00  0.00    -0.080 HD
ENDBRANCH  20  21
ENDBRANCH  19  20
ENDBRANCH  16  19
ENDBRANCH   4  17
TORSDOF 4
ENDMDL
MODEL 9
REMARK VINA RESULT:      -8.9     10.692     14.776
REMARK  Name = 107805
REMARK  4 active torsions:
REMARK  status: ('A' for Active; 'I' for Inactive)
REMARK    1  A    between atoms: C_4  and  C_17
REMARK    2  A    between atoms: N_16  and  C_19
REMARK    3  A    between atoms: C_19  and  C_20
REMARK    4  A    between atoms: C_20  and  N_21
REMARK                            x       y       z     vdW  Elec       q    Type
REMARK                         _______ _______ _______ _____ _____    ______ ____
ROOT
ATOM      1  N   UNL     1      34.082 -13.638 -22.992  0.00  0.00    -0.405 NA
ATOM      2  C   UNL     1      33.817 -13.568 -24.311  0.00  0.00    +0.121 C 
ATOM      3  C   UNL     1      33.756 -14.716 -25.118  0.00  0.00    +0.026 C 
ATOM      4  C   UNL     1      33.594 -12.333 -24.913  0.00  0.00    +0.150 C 
ATOM      5  C   UNL     1      34.257 -16.033 -23.138  0.00  0.00    +0.030 C 
ATOM      6  C   UNL     1      33.981 -15.955 -24.506  0.00  0.00    +0.005 C 
ATOM      7  C   UNL     1      34.298 -14.832 -22.408  0.00  0.00    +0.131 C 
ATOM      8  C   UNL     1      33.477 -14.608 -26.491  0.00  0.00    +0.002 C 
ATOM      9  C   UNL     1      33.316 -12.221 -26.278  0.00  0.00    -0.010 C 
ATOM     10  C   UNL     1      33.257 -13.361 -27.068  0.00  0.00    -0.004 C 
ATOM     11  C   UNL     1      34.486 -17.264 -22.498  0.00  0.00    +0.003 C 
ATOM     12  C   UNL     1      34.572 -14.904 -21.045  0.00  0.00    +0.032 C 
ATOM     13  C   UNL     1      34.758 -17.308 -21.134  0.00  0.00    +0.000 C 
ATOM     14  C   UNL     1      34.801 -16.125 -20.407  0.00  0.00    +0.003 C 
ENDROOT
BRANCH   4  17
ATOM     15  O   UNL     1      34.561 -10.288 -24.293  0.00  0.00    -0.274 OA
ATOM     16  N   UNL     1      32.602 -10.899 -23.215  0.00  0.00    -0.306 N 
ATOM     17  C   UNL     1      33.641 -11.105 -24.127  0.00  0.00    +0.233 C 
ATOM     18  H   UNL     1      31.905 -11.591 -23.136  0.00  0.00    +0.149 HD
BRANCH  16  19
ATOM     19  C   UNL     1      32.495  -9.723 -22.381  0.00  0.00    +0.067 C 
BRANCH  19  20
ATOM     20  C   UNL     1      31.716  -8.620 -23.082  0.00  0.00    -0.056 C 
BRANCH  20  21
ATOM     21  N   UNL     1      32.629  -7.701 -23.749  0.00  0.00    +0.385 N 
ATOM     22  C   UNL     1      33.726  -7.324 -22.856  0.00  0.00    -0.101 C 
ATOM     23  C   UNL     1      31.916  -6.508 -24.208  0.00  0.00    -0.101 C 
ATOM     24  H   UNL     1      33.021  -8.177 -24.561  0.00  0.00    -0.080 HD
ENDBRANCH  20  21
ENDBRANCH  19  20
ENDBRANCH  16  19
ENDBRANCH   4  17
TORSDOF 4
ENDMDL
