MODEL 1
REMARK VINA RESULT:     -10.7      0.000      0.000
REMARK  Name = 449241
REMARK  8 active torsions:
REMARK  status: ('A' for Active; 'I' for Inactive)
REMARK    1  A    between atoms: N_1  and  S_3
REMARK    2  A    between atoms: N_1  and  C_16
REMARK    3  A    between atoms: S_3  and  C_7
REMARK    4  A    between atoms: C_16  and  C_17
REMARK    5  A    between atoms: C_17  and  N_18
REMARK    6  A    between atoms: N_18  and  C_21
REMARK    7  A    between atoms: C_21  and  C_22
REMARK    8  A    between atoms: C_23  and  C_25
REMARK                            x       y       z     vdW  Elec       q    Type
REMARK                         _______ _______ _______ _____ _____    ______ ____
ROOT
ATOM      1  N   UNL     1      34.598 -13.782 -23.109  0.00  0.00    -0.182 NA
ATOM      2  H   UNL     1      35.023 -13.016 -22.589  0.00  0.00    +0.149 HD
ENDROOT
BRANCH   1   3
ATOM      3  S   UNL     1      33.314 -13.111 -24.013  0.00  0.00    +0.060 S 
ATOM      4  O   UNL     1      32.079 -13.265 -23.263  0.00  0.00    -0.153 OA
ATOM      5  O   UNL     1      33.396 -13.602 -25.379  0.00  0.00    -0.153 OA
BRANCH   3   7
ATOM      6  N   UNL     1      31.951  -8.524 -21.531  0.00  0.00    -0.242 NA
ATOM      7  C   UNL     1      33.737 -11.406 -24.042  0.00  0.00    +0.122 C 
ATOM      8  C   UNL     1      33.131 -10.460 -23.198  0.00  0.00    +0.022 C 
ATOM      9  C   UNL     1      33.528  -9.110 -23.286  0.00  0.00    +0.020 C 
ATOM     10  C   UNL     1      34.719 -11.018 -24.955  0.00  0.00    +0.020 C 
ATOM     11  C   UNL     1      34.518  -8.731 -24.209  0.00  0.00    +0.002 C 
ATOM     12  C   UNL     1      32.144 -10.818 -22.273  0.00  0.00    +0.022 C 
ATOM     13  C   UNL     1      35.108  -9.684 -25.038  0.00  0.00    +0.001 C 
ATOM     14  C   UNL     1      32.905  -8.198 -22.432  0.00  0.00    +0.099 C 
ATOM     15  C   UNL     1      31.596  -9.825 -21.475  0.00  0.00    +0.099 C 
ENDBRANCH   3   7
ENDBRANCH   1   3
BRANCH   1  16
ATOM     16  C   UNL     1      34.333 -14.856 -22.140  0.00  0.00    +0.068 C 
BRANCH  16  17
ATOM     17  C   UNL     1      34.124 -16.167 -22.886  0.00  0.00    -0.062 C 
BRANCH  17  18
ATOM     18  N   UNL     1      35.398 -16.680 -23.372  0.00  0.00    +0.387 N 
ATOM     19  H   UNL     1      36.049 -16.752 -22.590  0.00  0.00    -0.084 HD
ATOM     20  H   UNL     1      35.758 -16.040 -24.079  0.00  0.00    -0.084 HD
BRANCH  18  21
ATOM     21  C   UNL     1      35.232 -17.996 -23.975  0.00  0.00    -0.055 C 
BRANCH  21  22
ATOM     22  C   UNL     1      34.739 -19.001 -22.976  0.00  0.00    -0.050 C 
ATOM     23  C   UNL     1      35.336 -19.217 -21.793  0.00  0.00    -0.007 C 
BRANCH  23  25
ATOM     24 BR   UNL     1      33.439 -23.219 -17.551  0.00  0.00    -0.049 Br
ATOM     25  C   UNL     1      34.881 -20.178 -20.775  0.00  0.00    -0.000 C 
ATOM     26  C   UNL     1      35.815 -20.950 -20.103  0.00  0.00    +0.000 C 
ATOM     27  C   UNL     1      33.525 -20.293 -20.507  0.00  0.00    +0.000 C 
ATOM     28  C   UNL     1      35.384 -21.860 -19.137  0.00  0.00    +0.007 C 
ATOM     29  C   UNL     1      33.095 -21.203 -19.542  0.00  0.00    +0.007 C 
ATOM     30  C   UNL     1      34.023 -21.986 -18.857  0.00  0.00    +0.035 C 
ENDBRANCH  23  25
ENDBRANCH  21  22
ENDBRANCH  18  21
ENDBRANCH  17  18
ENDBRANCH  16  17
ENDBRANCH   1  16
TORSDOF 8
ENDMDL
MODEL 2
REMARK VINA RESULT:     -10.7      5.743     11.394
REMARK  Name = 449241
REMARK  8 active torsions:
REMARK  status: ('A' for Active; 'I' for Inactive)
REMARK    1  A    between atoms: N_1  and  S_3
REMARK    2  A    between atoms: N_1  and  C_16
REMARK    3  A    between atoms: S_3  and  C_7
REMARK    4  A    between atoms: C_16  and  C_17
REMARK    5  A    between atoms: C_17  and  N_18
REMARK    6  A    between atoms: N_18  and  C_21
REMARK    7  A    between atoms: C_21  and  C_22
REMARK    8  A    between atoms: C_23  and  C_25
REMARK                            x       y       z     vdW  Elec       q    Type
REMARK                         _______ _______ _______ _____ _____    ______ ____
ROOT
ATOM      1  N   UNL     1      34.191 -21.359 -19.669  0.00  0.00    -0.182 NA
ATOM      2  H   UNL     1      34.718 -21.741 -20.453  0.00  0.00    +0.149 HD
ENDROOT
BRANCH   1   3
ATOM      3  S   UNL     1      33.775 -22.678 -18.666  0.00  0.00    +0.060 S 
ATOM      4  O   UNL     1      33.975 -23.913 -19.405  0.00  0.00    -0.153 OA
ATOM      5  O   UNL     1      32.488 -22.407 -18.045  0.00  0.00    -0.153 OA
BRANCH   3   7
ATOM      6  N   UNL     1      34.452 -24.122 -13.517  0.00  0.00    -0.242 NA
ATOM      7  C   UNL     1      34.996 -22.581 -17.407  0.00  0.00    +0.122 C 
ATOM      8  C   UNL     1      34.798 -23.099 -16.117  0.00  0.00    +0.022 C 
ATOM      9  C   UNL     1      35.830 -22.979 -15.163  0.00  0.00    +0.020 C 
ATOM     10  C   UNL     1      36.197 -21.955 -17.744  0.00  0.00    +0.020 C 
ATOM     11  C   UNL     1      37.035 -22.347 -15.513  0.00  0.00    +0.002 C 
ATOM     12  C   UNL     1      33.605 -23.732 -15.748  0.00  0.00    +0.022 C 
ATOM     13  C   UNL     1      37.213 -21.838 -16.799  0.00  0.00    +0.001 C 
ATOM     14  C   UNL     1      35.597 -23.507 -13.891  0.00  0.00    +0.099 C 
ATOM     15  C   UNL     1      33.487 -24.219 -14.455  0.00  0.00    +0.099 C 
ENDBRANCH   3   7
ENDBRANCH   1   3
BRANCH   1  16
ATOM     16  C   UNL     1      33.137 -20.508 -20.241  0.00  0.00    +0.068 C 
BRANCH  16  17
ATOM     17  C   UNL     1      33.777 -19.396 -21.060  0.00  0.00    -0.062 C 
BRANCH  17  18
ATOM     18  N   UNL     1      35.194 -19.283 -20.738  0.00  0.00    +0.387 N 
ATOM     19  H   UNL     1      35.676 -20.123 -21.057  0.00  0.00    -0.084 HD
ATOM     20  H   UNL     1      35.290 -19.177 -19.728  0.00  0.00    -0.084 HD
BRANCH  18  21
ATOM     21  C   UNL     1      35.782 -18.119 -21.388  0.00  0.00    -0.055 C 
BRANCH  21  22
ATOM     22  C   UNL     1      34.938 -16.894 -21.193  0.00  0.00    -0.050 C 
ATOM     23  C   UNL     1      34.518 -16.121 -22.206  0.00  0.00    -0.007 C 
BRANCH  23  25
ATOM     24 BR   UNL     1      31.011 -11.123 -21.626  0.00  0.00    -0.049 Br
ATOM     25  C   UNL     1      33.676 -14.921 -22.067  0.00  0.00    -0.000 C 
ATOM     26  C   UNL     1      33.103 -14.632 -20.838  0.00  0.00    +0.000 C 
ATOM     27  C   UNL     1      33.472 -14.102 -23.167  0.00  0.00    +0.000 C 
ATOM     28  C   UNL     1      32.305 -13.495 -20.705  0.00  0.00    +0.007 C 
ATOM     29  C   UNL     1      32.674 -12.966 -23.034  0.00  0.00    +0.007 C 
ATOM     30  C   UNL     1      32.091 -12.662 -21.804  0.00  0.00    +0.035 C 
ENDBRANCH  23  25
ENDBRANCH  21  22
ENDBRANCH  18  21
ENDBRANCH  17  18
ENDBRANCH  16  17
ENDBRANCH   1  16
TORSDOF 8
ENDMDL
MODEL 3
REMARK VINA RESULT:     -10.6      5.793     11.595
REMARK  Name = 449241
REMARK  8 active torsions:
REMARK  status: ('A' for Active; 'I' for Inactive)
REMARK    1  A    between atoms: N_1  and  S_3
REMARK    2  A    between atoms: N_1  and  C_16
REMARK    3  A    between atoms: S_3  and  C_7
REMARK    4  A    between atoms: C_16  and  C_17
REMARK    5  A    between atoms: C_17  and  N_18
REMARK    6  A    between atoms: N_18  and  C_21
REMARK    7  A    between atoms: C_21  and  C_22
REMARK    8  A    between atoms: C_23  and  C_25
REMARK                            x       y       z     vdW  Elec       q    Type
REMARK                         _______ _______ _______ _____ _____    ______ ____
ROOT
ATOM      1  N   UNL     1      32.801 -21.750 -19.695  0.00  0.00    -0.182 NA
ATOM      2  H   UNL     1      31.911 -21.819 -19.204  0.00  0.00    +0.149 HD
ENDROOT
BRANCH   1   3
ATOM      3  S   UNL     1      33.913 -22.725 -18.841  0.00  0.00    +0.060 S 
ATOM      4  O   UNL     1      35.121 -21.955 -18.594  0.00  0.00    -0.153 OA
ATOM      5  O   UNL     1      34.002 -24.019 -19.496  0.00  0.00    -0.153 OA
BRANCH   3   7
ATOM      6  N   UNL     1      35.045 -24.205 -13.782  0.00  0.00    -0.242 NA
ATOM      7  C   UNL     1      33.087 -22.968 -17.309  0.00  0.00    +0.122 C 
ATOM      8  C   UNL     1      33.755 -23.381 -16.145  0.00  0.00    +0.022 C 
ATOM      9  C   UNL     1      33.017 -23.553 -14.956  0.00  0.00    +0.020 C 
ATOM     10  C   UNL     1      31.712 -22.731 -17.293  0.00  0.00    +0.020 C 
ATOM     11  C   UNL     1      31.633 -23.312 -14.951  0.00  0.00    +0.002 C 
ATOM     12  C   UNL     1      35.133 -23.626 -16.129  0.00  0.00    +0.022 C 
ATOM     13  C   UNL     1      30.987 -22.903 -16.117  0.00  0.00    +0.001 C 
ATOM     14  C   UNL     1      33.715 -23.964 -13.818  0.00  0.00    +0.099 C 
ATOM     15  C   UNL     1      35.719 -24.029 -14.938  0.00  0.00    +0.099 C 
ENDBRANCH   3   7
ENDBRANCH   1   3
BRANCH   1  16
ATOM     16  C   UNL     1      33.071 -20.317 -19.883  0.00  0.00    +0.068 C 
BRANCH  16  17
ATOM     17  C   UNL     1      34.066 -20.137 -21.021  0.00  0.00    -0.062 C 
BRANCH  17  18
ATOM     18  N   UNL     1      35.319 -19.591 -20.515  0.00  0.00    +0.387 N 
ATOM     19  H   UNL     1      36.029 -20.324 -20.521  0.00  0.00    -0.084 HD
ATOM     20  H   UNL     1      35.165 -19.251 -19.565  0.00  0.00    -0.084 HD
BRANCH  18  21
ATOM     21  C   UNL     1      35.772 -18.480 -21.340  0.00  0.00    -0.055 C 
BRANCH  21  22
ATOM     22  C   UNL     1      34.922 -17.261 -21.139  0.00  0.00    -0.050 C 
ATOM     23  C   UNL     1      34.631 -16.396 -22.123  0.00  0.00    -0.007 C 
BRANCH  23  25
ATOM     24 BR   UNL     1      31.123 -11.401 -21.520  0.00  0.00    -0.049 Br
ATOM     25  C   UNL     1      33.789 -15.197 -21.978  0.00  0.00    -0.000 C 
ATOM     26  C   UNL     1      33.215 -14.914 -20.749  0.00  0.00    +0.000 C 
ATOM     27  C   UNL     1      33.586 -14.373 -23.074  0.00  0.00    +0.000 C 
ATOM     28  C   UNL     1      32.417 -13.777 -20.611  0.00  0.00    +0.007 C 
ATOM     29  C   UNL     1      32.788 -13.237 -22.936  0.00  0.00    +0.007 C 
ATOM     30  C   UNL     1      32.204 -12.940 -21.706  0.00  0.00    +0.035 C 
ENDBRANCH  23  25
ENDBRANCH  21  22
ENDBRANCH  18  21
ENDBRANCH  17  18
ENDBRANCH  16  17
ENDBRANCH   1  16
TORSDOF 8
ENDMDL
MODEL 4
REMARK VINA RESULT:     -10.6      5.871     11.593
REMARK  Name = 449241
REMARK  8 active torsions:
REMARK  status: ('A' for Active; 'I' for Inactive)
REMARK    1  A    between atoms: N_1  and  S_3
REMARK    2  A    between atoms: N_1  and  C_16
REMARK    3  A    between atoms: S_3  and  C_7
REMARK    4  A    between atoms: C_16  and  C_17
REMARK    5  A    between atoms: C_17  and  N_18
REMARK    6  A    between atoms: N_18  and  C_21
REMARK    7  A    between atoms: C_21  and  C_22
REMARK    8  A    between atoms: C_23  and  C_25
REMARK                            x       y       z     vdW  Elec       q    Type
REMARK                         _______ _______ _______ _____ _____    ______ ____
ROOT
ATOM      1  N   UNL     1      35.299 -22.015 -18.528  0.00  0.00    -0.182 NA
ATOM      2  H   UNL     1      35.967 -22.633 -18.067  0.00  0.00    +0.149 HD
ENDROOT
BRANCH   1   3
ATOM      3  S   UNL     1      33.774 -22.776 -18.428  0.00  0.00    +0.060 S 
ATOM      4  O   UNL     1      33.810 -24.007 -19.199  0.00  0.00    -0.153 OA
ATOM      5  O   UNL     1      32.739 -21.788 -18.689  0.00  0.00    -0.153 OA
BRANCH   3   7
ATOM      6  N   UNL     1      30.051 -23.517 -14.600  0.00  0.00    -0.242 NA
ATOM      7  C   UNL     1      33.682 -23.192 -16.723  0.00  0.00    +0.122 C 
ATOM      8  C   UNL     1      32.464 -23.296 -16.032  0.00  0.00    +0.022 C 
ATOM      9  C   UNL     1      32.479 -23.634 -14.664  0.00  0.00    +0.020 C 
ATOM     10  C   UNL     1      34.893 -23.421 -16.067  0.00  0.00    +0.020 C 
ATOM     11  C   UNL     1      33.703 -23.863 -14.013  0.00  0.00    +0.002 C 
ATOM     12  C   UNL     1      31.234 -23.072 -16.662  0.00  0.00    +0.022 C 
ATOM     13  C   UNL     1      34.903 -23.755 -14.716  0.00  0.00    +0.001 C 
ATOM     14  C   UNL     1      31.248 -23.728 -14.009  0.00  0.00    +0.099 C 
ATOM     15  C   UNL     1      30.075 -23.195 -15.911  0.00  0.00    +0.099 C 
ENDBRANCH   3   7
ENDBRANCH   1   3
BRANCH   1  16
ATOM     16  C   UNL     1      35.870 -21.680 -19.841  0.00  0.00    +0.068 C 
BRANCH  16  17
ATOM     17  C   UNL     1      35.222 -20.405 -20.361  0.00  0.00    -0.062 C 
BRANCH  17  18
ATOM     18  N   UNL     1      36.220 -19.354 -20.509  0.00  0.00    +0.387 N 
ATOM     19  H   UNL     1      37.145 -19.779 -20.574  0.00  0.00    -0.084 HD
ATOM     20  H   UNL     1      36.166 -18.738 -19.697  0.00  0.00    -0.084 HD
BRANCH  18  21
ATOM     21  C   UNL     1      35.972 -18.567 -21.709  0.00  0.00    -0.055 C 
BRANCH  21  22
ATOM     22  C   UNL     1      35.127 -17.364 -21.414  0.00  0.00    -0.050 C 
ATOM     23  C   UNL     1      34.729 -16.494 -22.356  0.00  0.00    -0.007 C 
BRANCH  23  25
ATOM     24 BR   UNL     1      31.220 -11.562 -21.366  0.00  0.00    -0.049 Br
ATOM     25  C   UNL     1      33.886 -15.311 -22.118  0.00  0.00    -0.000 C 
ATOM     26  C   UNL     1      33.400 -15.067 -20.844  0.00  0.00    +0.000 C 
ATOM     27  C   UNL     1      33.595 -14.460 -23.174  0.00  0.00    +0.000 C 
ATOM     28  C   UNL     1      32.602 -13.945 -20.618  0.00  0.00    +0.007 C 
ATOM     29  C   UNL     1      32.797 -13.339 -22.948  0.00  0.00    +0.007 C 
ATOM     30  C   UNL     1      32.301 -13.081 -21.671  0.00  0.00    +0.035 C 
ENDBRANCH  23  25
ENDBRANCH  21  22
ENDBRANCH  18  21
ENDBRANCH  17  18
ENDBRANCH  16  17
ENDBRANCH   1  16
TORSDOF 8
ENDMDL
MODEL 5
REMARK VINA RESULT:     -10.3      1.530      2.533
REMARK  Name = 449241
REMARK  8 active torsions:
REMARK  status: ('A' for Active; 'I' for Inactive)
REMARK    1  A    between atoms: N_1  and  S_3
REMARK    2  A    between atoms: N_1  and  C_16
REMARK    3  A    between atoms: S_3  and  C_7
REMARK    4  A    between atoms: C_16  and  C_17
REMARK    5  A    between atoms: C_17  and  N_18
REMARK    6  A    between atoms: N_18  and  C_21
REMARK    7  A    between atoms: C_21  and  C_22
REMARK    8  A    between atoms: C_23  and  C_25
REMARK                            x       y       z     vdW  Elec       q    Type
REMARK                         _______ _______ _______ _____ _____    ______ ____
ROOT
ATOM      1  N   UNL     1      32.552 -14.137 -24.452  0.00  0.00    -0.182 NA
ATOM      2  H   UNL     1      32.162 -13.242 -24.745  0.00  0.00    +0.149 HD
ENDROOT
BRANCH   1   3
ATOM      3  S   UNL     1      33.022 -13.960 -22.820  0.00  0.00    +0.060 S 
ATOM      4  O   UNL     1      34.473 -13.996 -22.741  0.00  0.00    -0.153 OA
ATOM      5  O   UNL     1      32.230 -14.865 -22.003  0.00  0.00    -0.153 OA
BRANCH   3   7
ATOM      6  N   UNL     1      34.152  -8.886 -24.251  0.00  0.00    -0.242 NA
ATOM      7  C   UNL     1      32.488 -12.325 -22.460  0.00  0.00    +0.122 C 
ATOM      8  C   UNL     1      33.054 -11.191 -23.066  0.00  0.00    +0.022 C 
ATOM      9  C   UNL     1      32.567  -9.914 -22.720  0.00  0.00    +0.020 C 
ATOM     10  C   UNL     1      31.457 -12.192 -21.528  0.00  0.00    +0.020 C 
ATOM     11  C   UNL     1      31.529  -9.792 -21.780  0.00  0.00    +0.002 C 
ATOM     12  C   UNL     1      34.088 -11.291 -24.004  0.00  0.00    +0.022 C 
ATOM     13  C   UNL     1      30.980 -10.929 -21.189  0.00  0.00    +0.001 C 
ATOM     14  C   UNL     1      33.154  -8.810 -23.342  0.00  0.00    +0.099 C 
ATOM     15  C   UNL     1      34.593 -10.125 -24.557  0.00  0.00    +0.099 C 
ENDBRANCH   3   7
ENDBRANCH   1   3
BRANCH   1  16
ATOM     16  C   UNL     1      33.545 -14.520 -25.467  0.00  0.00    +0.068 C 
BRANCH  16  17
ATOM     17  C   UNL     1      33.659 -16.037 -25.513  0.00  0.00    -0.062 C 
BRANCH  17  18
ATOM     18  N   UNL     1      34.193 -16.543 -24.255  0.00  0.00    +0.387 N 
ATOM     19  H   UNL     1      33.420 -16.730 -23.616  0.00  0.00    -0.084 HD
ATOM     20  H   UNL     1      34.819 -15.840 -23.862  0.00  0.00    -0.084 HD
BRANCH  18  21
ATOM     21  C   UNL     1      34.945 -17.772 -24.467  0.00  0.00    -0.055 C 
BRANCH  21  22
ATOM     22  C   UNL     1      34.579 -18.822 -23.461  0.00  0.00    -0.050 C 
ATOM     23  C   UNL     1      34.994 -18.795 -22.185  0.00  0.00    -0.007 C 
BRANCH  23  25
ATOM     24 BR   UNL     1      33.550 -22.945 -17.905  0.00  0.00    -0.049 Br
ATOM     25  C   UNL     1      34.647 -19.792 -21.158  0.00  0.00    -0.000 C 
ATOM     26  C   UNL     1      35.654 -20.546 -20.575  0.00  0.00    +0.000 C 
ATOM     27  C   UNL     1      33.321 -19.957 -20.791  0.00  0.00    +0.000 C 
ATOM     28  C   UNL     1      35.326 -21.490 -19.602  0.00  0.00    +0.007 C 
ATOM     29  C   UNL     1      32.993 -20.901 -19.818  0.00  0.00    +0.007 C 
ATOM     30  C   UNL     1      33.995 -21.667 -19.223  0.00  0.00    +0.035 C 
ENDBRANCH  23  25
ENDBRANCH  21  22
ENDBRANCH  18  21
ENDBRANCH  17  18
ENDBRANCH  16  17
ENDBRANCH   1  16
TORSDOF 8
ENDMDL
MODEL 6
REMARK VINA RESULT:     -10.3      3.936      6.216
REMARK  Name = 449241
REMARK  8 active torsions:
REMARK  status: ('A' for Active; 'I' for Inactive)
REMARK    1  A    between atoms: N_1  and  S_3
REMARK    2  A    between atoms: N_1  and  C_16
REMARK    3  A    between atoms: S_3  and  C_7
REMARK    4  A    between atoms: C_16  and  C_17
REMARK    5  A    between atoms: C_17  and  N_18
REMARK    6  A    between atoms: N_18  and  C_21
REMARK    7  A    between atoms: C_21  and  C_22
REMARK    8  A    between atoms: C_23  and  C_25
REMARK                            x       y       z     vdW  Elec       q    Type
REMARK                         _______ _______ _______ _____ _____    ______ ____
ROOT
ATOM      1  N   UNL     1      33.798 -18.642 -21.034  0.00  0.00    -0.182 NA
ATOM      2  H   UNL     1      33.162 -18.547 -21.825  0.00  0.00    +0.149 HD
ENDROOT
BRANCH   1   3
ATOM      3  S   UNL     1      35.133 -17.626 -21.349  0.00  0.00    +0.060 S 
ATOM      4  O   UNL     1      36.307 -18.450 -21.586  0.00  0.00    -0.153 OA
ATOM      5  O   UNL     1      35.176 -16.580 -20.340  0.00  0.00    -0.153 OA
BRANCH   3   7
ATOM      6  N   UNL     1      32.394 -13.328 -23.106  0.00  0.00    -0.242 NA
ATOM      7  C   UNL     1      34.671 -16.872 -22.868  0.00  0.00    +0.122 C 
ATOM      8  C   UNL     1      33.912 -15.692 -22.928  0.00  0.00    +0.022 C 
ATOM      9  C   UNL     1      33.583 -15.152 -24.188  0.00  0.00    +0.020 C 
ATOM     10  C   UNL     1      35.096 -17.504 -24.037  0.00  0.00    +0.020 C 
ATOM     11  C   UNL     1      34.015 -15.797 -25.360  0.00  0.00    +0.002 C 
ATOM     12  C   UNL     1      33.472 -15.034 -21.773  0.00  0.00    +0.022 C 
ATOM     13  C   UNL     1      34.768 -16.968 -25.280  0.00  0.00    +0.001 C 
ATOM     14  C   UNL     1      32.827 -13.978 -24.209  0.00  0.00    +0.099 C 
ATOM     15  C   UNL     1      32.728 -13.873 -21.917  0.00  0.00    +0.099 C 
ENDBRANCH   3   7
ENDBRANCH   1   3
BRANCH   1  16
ATOM     16  C   UNL     1      34.002 -20.083 -20.826  0.00  0.00    +0.068 C 
BRANCH  16  17
ATOM     17  C   UNL     1      32.963 -20.602 -19.843  0.00  0.00    -0.062 C 
BRANCH  17  18
ATOM     18  N   UNL     1      33.117 -22.039 -19.656  0.00  0.00    +0.387 N 
ATOM     19  H   UNL     1      34.063 -22.311 -19.925  0.00  0.00    -0.084 HD
ATOM     20  H   UNL     1      32.429 -22.518 -20.238  0.00  0.00    -0.084 HD
BRANCH  18  21
ATOM     21  C   UNL     1      32.891 -22.409 -18.266  0.00  0.00    -0.055 C 
BRANCH  21  22
ATOM     22  C   UNL     1      34.154 -22.881 -17.609  0.00  0.00    -0.050 C 
ATOM     23  C   UNL     1      34.212 -23.287 -16.331  0.00  0.00    -0.007 C 
BRANCH  23  25
ATOM     24 BR   UNL     1      39.252 -25.317 -13.486  0.00  0.00    -0.049 Br
ATOM     25  C   UNL     1      35.422 -23.775 -15.648  0.00  0.00    -0.000 C 
ATOM     26  C   UNL     1      36.630 -23.131 -15.864  0.00  0.00    +0.000 C 
ATOM     27  C   UNL     1      35.330 -24.869 -14.801  0.00  0.00    +0.000 C 
ATOM     28  C   UNL     1      37.777 -23.592 -15.217  0.00  0.00    +0.007 C 
ATOM     29  C   UNL     1      36.477 -25.329 -14.154  0.00  0.00    +0.007 C 
ATOM     30  C   UNL     1      37.699 -24.692 -14.362  0.00  0.00    +0.035 C 
ENDBRANCH  23  25
ENDBRANCH  21  22
ENDBRANCH  18  21
ENDBRANCH  17  18
ENDBRANCH  16  17
ENDBRANCH   1  16
TORSDOF 8
ENDMDL
MODEL 7
REMARK VINA RESULT:     -10.3      4.848     10.516
REMARK  Name = 449241
REMARK  8 active torsions:
REMARK  status: ('A' for Active; 'I' for Inactive)
REMARK    1  A    between atoms: N_1  and  S_3
REMARK    2  A    between atoms: N_1  and  C_16
REMARK    3  A    between atoms: S_3  and  C_7
REMARK    4  A    between atoms: C_16  and  C_17
REMARK    5  A    between atoms: C_17  and  N_18
REMARK    6  A    between atoms: N_18  and  C_21
REMARK    7  A    between atoms: C_21  and  C_22
REMARK    8  A    between atoms: C_23  and  C_25
REMARK                            x       y       z     vdW  Elec       q    Type
REMARK                         _______ _______ _______ _____ _____    ______ ____
ROOT
ATOM      1  N   UNL     1      31.783 -13.013 -22.616  0.00  0.00    -0.182 NA
ATOM      2  H   UNL     1      31.797 -13.607 -21.787  0.00  0.00    +0.149 HD
ENDROOT
BRANCH   1   3
ATOM      3  S   UNL     1      33.067 -13.530 -23.615  0.00  0.00    +0.060 S 
ATOM      4  O   UNL     1      34.024 -12.445 -23.752  0.00  0.00    -0.153 OA
ATOM      5  O   UNL     1      32.513 -14.161 -24.802  0.00  0.00    -0.153 OA
BRANCH   3   7
ATOM      6  N   UNL     1      35.265 -18.411 -24.254  0.00  0.00    -0.242 NA
ATOM      7  C   UNL     1      33.801 -14.797 -22.643  0.00  0.00    +0.122 C 
ATOM      8  C   UNL     1      34.283 -15.994 -23.196  0.00  0.00    +0.022 C 
ATOM      9  C   UNL     1      34.858 -16.961 -22.345  0.00  0.00    +0.020 C 
ATOM     10  C   UNL     1      33.889 -14.563 -21.270  0.00  0.00    +0.020 C 
ATOM     11  C   UNL     1      34.941 -16.715 -20.964  0.00  0.00    +0.002 C 
ATOM     12  C   UNL     1      34.209 -16.258 -24.569  0.00  0.00    +0.022 C 
ATOM     13  C   UNL     1      34.457 -15.520 -20.433  0.00  0.00    +0.001 C 
ATOM     14  C   UNL     1      35.326 -18.139 -22.931  0.00  0.00    +0.099 C 
ATOM     15  C   UNL     1      34.708 -17.464 -25.038  0.00  0.00    +0.099 C 
ENDBRANCH   3   7
ENDBRANCH   1   3
BRANCH   1  16
ATOM     16  C   UNL     1      31.734 -11.623 -22.139  0.00  0.00    +0.068 C 
BRANCH  16  17
ATOM     17  C   UNL     1      31.695 -11.612 -20.618  0.00  0.00    -0.062 C 
BRANCH  17  18
ATOM     18  N   UNL     1      31.083 -10.380 -20.137  0.00  0.00    +0.387 N 
ATOM     19  H   UNL     1      30.683 -10.545 -19.213  0.00  0.00    -0.084 HD
ATOM     20  H   UNL     1      30.357 -10.099 -20.795  0.00  0.00    -0.084 HD
BRANCH  18  21
ATOM     21  C   UNL     1      32.069  -9.312 -20.046  0.00  0.00    -0.055 C 
BRANCH  21  22
ATOM     22  C   UNL     1      32.060  -8.448 -21.272  0.00  0.00    -0.050 C 
ATOM     23  C   UNL     1      33.178  -8.048 -21.898  0.00  0.00    -0.007 C 
BRANCH  23  25
ATOM     24 BR   UNL     1      33.353  -4.582 -26.955  0.00  0.00    -0.049 Br
ATOM     25  C   UNL     1      33.220  -7.216 -23.112  0.00  0.00    -0.000 C 
ATOM     26  C   UNL     1      32.142  -6.398 -23.414  0.00  0.00    +0.000 C 
ATOM     27  C   UNL     1      34.337  -7.265 -23.932  0.00  0.00    +0.000 C 
ATOM     28  C   UNL     1      32.181  -5.609 -24.563  0.00  0.00    +0.007 C 
ATOM     29  C   UNL     1      34.376  -6.476 -25.082  0.00  0.00    +0.007 C 
ATOM     30  C   UNL     1      33.299  -5.649 -25.397  0.00  0.00    +0.035 C 
ENDBRANCH  23  25
ENDBRANCH  21  22
ENDBRANCH  18  21
ENDBRANCH  17  18
ENDBRANCH  16  17
ENDBRANCH   1  16
TORSDOF 8
ENDMDL
MODEL 8
REMARK VINA RESULT:     -10.2      4.078      6.220
REMARK  Name = 449241
REMARK  8 active torsions:
REMARK  status: ('A' for Active; 'I' for Inactive)
REMARK    1  A    between atoms: N_1  and  S_3
REMARK    2  A    between atoms: N_1  and  C_16
REMARK    3  A    between atoms: S_3  and  C_7
REMARK    4  A    between atoms: C_16  and  C_17
REMARK    5  A    between atoms: C_17  and  N_18
REMARK    6  A    between atoms: N_18  and  C_21
REMARK    7  A    between atoms: C_21  and  C_22
REMARK    8  A    between atoms: C_23  and  C_25
REMARK                            x       y       z     vdW  Elec       q    Type
REMARK                         _______ _______ _______ _____ _____    ______ ____
ROOT
ATOM      1  N   UNL     1      35.769 -18.813 -20.640  0.00  0.00    -0.182 NA
ATOM      2  H   UNL     1      34.914 -19.089 -20.159  0.00  0.00    +0.149 HD
ENDROOT
BRANCH   1   3
ATOM      3  S   UNL     1      35.337 -18.477 -22.258  0.00  0.00    +0.060 S 
ATOM      4  O   UNL     1      34.222 -19.330 -22.634  0.00  0.00    -0.153 OA
ATOM      5  O   UNL     1      36.542 -18.461 -23.072  0.00  0.00    -0.153 OA
BRANCH   3   7
ATOM      6  N   UNL     1      33.320 -14.634 -25.455  0.00  0.00    -0.242 NA
ATOM      7  C   UNL     1      34.757 -16.822 -22.147  0.00  0.00    +0.122 C 
ATOM      8  C   UNL     1      34.282 -16.109 -23.259  0.00  0.00    +0.022 C 
ATOM      9  C   UNL     1      33.835 -14.783 -23.083  0.00  0.00    +0.020 C 
ATOM     10  C   UNL     1      34.787 -16.230 -20.883  0.00  0.00    +0.020 C 
ATOM     11  C   UNL     1      33.870 -14.197 -21.807  0.00  0.00    +0.002 C 
ATOM     12  C   UNL     1      34.239 -16.674 -24.539  0.00  0.00    +0.022 C 
ATOM     13  C   UNL     1      34.346 -14.921 -20.714  0.00  0.00    +0.001 C 
ATOM     14  C   UNL     1      33.370 -14.105 -24.212  0.00  0.00    +0.099 C 
ATOM     15  C   UNL     1      33.755 -15.905 -25.586  0.00  0.00    +0.099 C 
ENDBRANCH   3   7
ENDBRANCH   1   3
BRANCH   1  16
ATOM     16  C   UNL     1      36.773 -19.846 -20.346  0.00  0.00    +0.068 C 
BRANCH  16  17
ATOM     17  C   UNL     1      36.074 -21.098 -19.835  0.00  0.00    -0.062 C 
BRANCH  17  18
ATOM     18  N   UNL     1      34.634 -20.985 -20.025  0.00  0.00    +0.387 N 
ATOM     19  H   UNL     1      34.433 -20.923 -21.023  0.00  0.00    -0.084 HD
ATOM     20  H   UNL     1      34.307 -20.149 -19.542  0.00  0.00    -0.084 HD
BRANCH  18  21
ATOM     21  C   UNL     1      33.945 -22.143 -19.472  0.00  0.00    -0.055 C 
BRANCH  21  22
ATOM     22  C   UNL     1      34.476 -22.504 -18.116  0.00  0.00    -0.050 C 
ATOM     23  C   UNL     1      33.693 -22.903 -17.101  0.00  0.00    -0.007 C 
BRANCH  23  25
ATOM     24 BR   UNL     1      35.671 -24.486 -11.515  0.00  0.00    -0.049 Br
ATOM     25  C   UNL     1      34.168 -23.283 -15.761  0.00  0.00    -0.000 C 
ATOM     26  C   UNL     1      35.480 -23.016 -15.403  0.00  0.00    +0.000 C 
ATOM     27  C   UNL     1      33.293 -23.901 -14.880  0.00  0.00    +0.000 C 
ATOM     28  C   UNL     1      35.930 -23.376 -14.133  0.00  0.00    +0.007 C 
ATOM     29  C   UNL     1      33.744 -24.260 -13.609  0.00  0.00    +0.007 C 
ATOM     30  C   UNL     1      35.062 -23.998 -13.236  0.00  0.00    +0.035 C 
ENDBRANCH  23  25
ENDBRANCH  21  22
ENDBRANCH  18  21
ENDBRANCH  17  18
ENDBRANCH  16  17
ENDBRANCH   1  16
TORSDOF 8
ENDMDL
MODEL 9
REMARK VINA RESULT:     -10.2      7.178     13.104
REMARK  Name = 449241
REMARK  8 active torsions:
REMARK  status: ('A' for Active; 'I' for Inactive)
REMARK    1  A    between atoms: N_1  and  S_3
REMARK    2  A    between atoms: N_1  and  C_16
REMARK    3  A    between atoms: S_3  and  C_7
REMARK    4  A    between atoms: C_16  and  C_17
REMARK    5  A    between atoms: C_17  and  N_18
REMARK    6  A    between atoms: N_18  and  C_21
REMARK    7  A    between atoms: C_21  and  C_22
REMARK    8  A    between atoms: C_23  and  C_25
REMARK                            x       y       z     vdW  Elec       q    Type
REMARK                         _______ _______ _______ _____ _____    ______ ____
ROOT
ATOM      1  N   UNL     1      34.433 -23.779 -17.037  0.00  0.00    -0.182 NA
ATOM      2  H   UNL     1      34.099 -24.731 -16.893  0.00  0.00    +0.149 HD
ENDROOT
BRANCH   1   3
ATOM      3  S   UNL     1      34.882 -23.176 -15.503  0.00  0.00    +0.060 S 
ATOM      4  O   UNL     1      33.690 -23.044 -14.682  0.00  0.00    -0.153 OA
ATOM      5  O   UNL     1      35.764 -22.036 -15.687  0.00  0.00    -0.153 OA
BRANCH   3   7
ATOM      6  N   UNL     1      38.001 -24.247 -11.239  0.00  0.00    -0.242 NA
ATOM      7  C   UNL     1      35.853 -24.493 -14.862  0.00  0.00    +0.122 C 
ATOM      8  C   UNL     1      36.562 -24.393 -13.654  0.00  0.00    +0.022 C 
ATOM      9  C   UNL     1      37.320 -25.497 -13.210  0.00  0.00    +0.020 C 
ATOM     10  C   UNL     1      35.895 -25.667 -15.616  0.00  0.00    +0.020 C 
ATOM     11  C   UNL     1      37.355 -26.674 -13.977  0.00  0.00    +0.002 C 
ATOM     12  C   UNL     1      36.540 -23.230 -12.876  0.00  0.00    +0.022 C 
ATOM     13  C   UNL     1      36.645 -26.754 -15.174  0.00  0.00    +0.001 C 
ATOM     14  C   UNL     1      38.011 -25.361 -12.004  0.00  0.00    +0.099 C 
ATOM     15  C   UNL     1      37.266 -23.211 -11.694  0.00  0.00    +0.099 C 
ENDBRANCH   3   7
ENDBRANCH   1   3
BRANCH   1  16
ATOM     16  C   UNL     1      33.408 -23.084 -17.829  0.00  0.00    +0.068 C 
BRANCH  16  17
ATOM     17  C   UNL     1      34.020 -22.608 -19.139  0.00  0.00    -0.062 C 
BRANCH  17  18
ATOM     18  N   UNL     1      35.223 -21.828 -18.880  0.00  0.00    +0.387 N 
ATOM     19  H   UNL     1      35.861 -22.380 -18.306  0.00  0.00    -0.084 HD
ATOM     20  H   UNL     1      34.957 -20.971 -18.395  0.00  0.00    -0.084 HD
BRANCH  18  21
ATOM     21  C   UNL     1      35.889 -21.473 -20.125  0.00  0.00    -0.055 C 
BRANCH  21  22
ATOM     22  C   UNL     1      35.638 -20.041 -20.495  0.00  0.00    -0.050 C 
ATOM     23  C   UNL     1      35.164 -19.663 -21.693  0.00  0.00    -0.007 C 
BRANCH  23  25
ATOM     24 BR   UNL     1      33.999 -13.880 -23.372  0.00  0.00    -0.049 Br
ATOM     25  C   UNL     1      34.885 -18.275 -22.096  0.00  0.00    -0.000 C 
ATOM     26  C   UNL     1      34.815 -17.959 -23.444  0.00  0.00    +0.000 C 
ATOM     27  C   UNL     1      34.696 -17.308 -21.120  0.00  0.00    +0.000 C 
ATOM     28  C   UNL     1      34.550 -16.644 -23.827  0.00  0.00    +0.007 C 
ATOM     29  C   UNL     1      34.431 -15.993 -21.503  0.00  0.00    +0.007 C 
ATOM     30  C   UNL     1      34.358 -15.661 -22.855  0.00  0.00    +0.035 C 
ENDBRANCH  23  25
ENDBRANCH  21  22
ENDBRANCH  18  21
ENDBRANCH  17  18
ENDBRANCH  16  17
ENDBRANCH   1  16
TORSDOF 8
ENDMDL
