MODEL 1
REMARK VINA RESULT:      -3.5      0.000      0.000
REMARK  Name = 8007
REMARK  3 active torsions:
REMARK  status: ('A' for Active; 'I' for Inactive)
REMARK    1  A    between atoms: N_1  and  C_5
REMARK    2  A    between atoms: C_5  and  C_6
REMARK    3  A    between atoms: C_6  and  C_7
REMARK                            x       y       z     vdW  Elec       q    Type
REMARK                         _______ _______ _______ _____ _____    ______ ____
ROOT
ATOM      1  N   UNL     1      36.245 -18.945 -20.563  0.00  0.00    +0.380 N 
ATOM      2  H   UNL     1      37.084 -19.332 -20.132  0.00  0.00    -0.089 HD
ATOM      3  H   UNL     1      35.781 -18.321 -19.903  0.00  0.00    -0.089 HD
ATOM      4  H   UNL     1      36.503 -18.423 -21.401  0.00  0.00    -0.089 HD
ENDROOT
BRANCH   1   5
ATOM      5  C   UNL     1      35.339 -20.029 -20.926  0.00  0.00    -0.086 C 
BRANCH   5   6
ATOM      6  C   UNL     1      33.948 -19.478 -21.234  0.00  0.00    -0.024 C 
BRANCH   6   7
ATOM      7  C   UNL     1      32.880 -20.168 -20.384  0.00  0.00    -0.002 C 
ATOM      8  C   UNL     1      33.463 -21.324 -19.586  0.00  0.00    -0.000 C 
ENDBRANCH   6   7
ENDBRANCH   5   6
ENDBRANCH   1   5
TORSDOF 3
ENDMDL
MODEL 2
REMARK VINA RESULT:      -3.5      2.288      2.987
REMARK  Name = 8007
REMARK  3 active torsions:
REMARK  status: ('A' for Active; 'I' for Inactive)
REMARK    1  A    between atoms: N_1  and  C_5
REMARK    2  A    between atoms: C_5  and  C_6
REMARK    3  A    between atoms: C_6  and  C_7
REMARK                            x       y       z     vdW  Elec       q    Type
REMARK                         _______ _______ _______ _____ _____    ______ ____
ROOT
ATOM      1  N   UNL     1      32.798 -22.214 -18.713  0.00  0.00    +0.380 N 
ATOM      2  H   UNL     1      32.020 -22.563 -19.273  0.00  0.00    -0.089 HD
ATOM      3  H   UNL     1      32.439 -21.621 -17.964  0.00  0.00    -0.089 HD
ATOM      4  H   UNL     1      33.305 -23.002 -18.308  0.00  0.00    -0.089 HD
ENDROOT
BRANCH   1   5
ATOM      5  C   UNL     1      33.698 -21.440 -19.558  0.00  0.00    -0.086 C 
BRANCH   5   6
ATOM      6  C   UNL     1      32.934 -20.320 -20.262  0.00  0.00    -0.024 C 
BRANCH   6   7
ATOM      7  C   UNL     1      33.877 -19.433 -21.076  0.00  0.00    -0.002 C 
ATOM      8  C   UNL     1      35.331 -19.826 -20.866  0.00  0.00    -0.000 C 
ENDBRANCH   6   7
ENDBRANCH   5   6
ENDBRANCH   1   5
TORSDOF 3
ENDMDL
MODEL 3
REMARK VINA RESULT:      -3.4      0.696      1.374
REMARK  Name = 8007
REMARK  3 active torsions:
REMARK  status: ('A' for Active; 'I' for Inactive)
REMARK    1  A    between atoms: N_1  and  C_5
REMARK    2  A    between atoms: C_5  and  C_6
REMARK    3  A    between atoms: C_6  and  C_7
REMARK                            x       y       z     vdW  Elec       q    Type
REMARK                         _______ _______ _______ _____ _____    ______ ____
ROOT
ATOM      1  N   UNL     1      36.087 -18.726 -20.669  0.00  0.00    +0.380 N 
ATOM      2  H   UNL     1      35.796 -18.497 -19.718  0.00  0.00    -0.089 HD
ATOM      3  H   UNL     1      35.931 -17.920 -21.275  0.00  0.00    -0.089 HD
ATOM      4  H   UNL     1      37.079 -18.967 -20.672  0.00  0.00    -0.089 HD
ENDROOT
BRANCH   1   5
ATOM      5  C   UNL     1      35.310 -19.859 -21.156  0.00  0.00    -0.086 C 
BRANCH   5   6
ATOM      6  C   UNL     1      35.019 -20.833 -20.016  0.00  0.00    -0.024 C 
BRANCH   6   7
ATOM      7  C   UNL     1      33.514 -21.027 -19.827  0.00  0.00    -0.002 C 
ATOM      8  C   UNL     1      32.716 -19.972 -20.576  0.00  0.00    -0.000 C 
ENDBRANCH   6   7
ENDBRANCH   5   6
ENDBRANCH   1   5
TORSDOF 3
ENDMDL
MODEL 4
REMARK VINA RESULT:      -3.4      9.906     10.469
REMARK  Name = 8007
REMARK  3 active torsions:
REMARK  status: ('A' for Active; 'I' for Inactive)
REMARK    1  A    between atoms: N_1  and  C_5
REMARK    2  A    between atoms: C_5  and  C_6
REMARK    3  A    between atoms: C_6  and  C_7
REMARK                            x       y       z     vdW  Elec       q    Type
REMARK                         _______ _______ _______ _____ _____    ______ ____
ROOT
ATOM      1  N   UNL     1      32.837  -7.923 -19.709  0.00  0.00    +0.380 N 
ATOM      2  H   UNL     1      33.703  -8.250 -19.281  0.00  0.00    -0.089 HD
ATOM      3  H   UNL     1      32.266  -7.456 -19.005  0.00  0.00    -0.089 HD
ATOM      4  H   UNL     1      33.055  -7.267 -20.460  0.00  0.00    -0.089 HD
ENDROOT
BRANCH   1   5
ATOM      5  C   UNL     1      32.104  -9.060 -20.254  0.00  0.00    -0.086 C 
BRANCH   5   6
ATOM      6  C   UNL     1      31.890 -10.121 -19.176  0.00  0.00    -0.024 C 
BRANCH   6   7
ATOM      7  C   UNL     1      31.553 -11.478 -19.795  0.00  0.00    -0.002 C 
ATOM      8  C   UNL     1      30.866 -11.321 -21.143  0.00  0.00    -0.000 C 
ENDBRANCH   6   7
ENDBRANCH   5   6
ENDBRANCH   1   5
TORSDOF 3
ENDMDL
MODEL 5
REMARK VINA RESULT:      -3.4      1.592      1.691
REMARK  Name = 8007
REMARK  3 active torsions:
REMARK  status: ('A' for Active; 'I' for Inactive)
REMARK    1  A    between atoms: N_1  and  C_5
REMARK    2  A    between atoms: C_5  and  C_6
REMARK    3  A    between atoms: C_6  and  C_7
REMARK                            x       y       z     vdW  Elec       q    Type
REMARK                         _______ _______ _______ _____ _____    ______ ____
ROOT
ATOM      1  N   UNL     1      35.820 -18.084 -23.145  0.00  0.00    +0.380 N 
ATOM      2  H   UNL     1      36.077 -17.598 -22.286  0.00  0.00    -0.089 HD
ATOM      3  H   UNL     1      35.474 -17.408 -23.827  0.00  0.00    -0.089 HD
ATOM      4  H   UNL     1      36.639 -18.560 -23.524  0.00  0.00    -0.089 HD
ENDROOT
BRANCH   1   5
ATOM      5  C   UNL     1      34.779 -19.063 -22.858  0.00  0.00    -0.086 C 
BRANCH   5   6
ATOM      6  C   UNL     1      34.752 -19.387 -21.365  0.00  0.00    -0.024 C 
BRANCH   6   7
ATOM      7  C   UNL     1      33.329 -19.681 -20.889  0.00  0.00    -0.002 C 
ATOM      8  C   UNL     1      33.294 -20.861 -19.930  0.00  0.00    -0.000 C 
ENDBRANCH   6   7
ENDBRANCH   5   6
ENDBRANCH   1   5
TORSDOF 3
ENDMDL
MODEL 6
REMARK VINA RESULT:      -3.4      2.227      3.226
REMARK  Name = 8007
REMARK  3 active torsions:
REMARK  status: ('A' for Active; 'I' for Inactive)
REMARK    1  A    between atoms: N_1  and  C_5
REMARK    2  A    between atoms: C_5  and  C_6
REMARK    3  A    between atoms: C_6  and  C_7
REMARK                            x       y       z     vdW  Elec       q    Type
REMARK                         _______ _______ _______ _____ _____    ______ ____
ROOT
ATOM      1  N   UNL     1      32.707 -20.938 -19.474  0.00  0.00    +0.380 N 
ATOM      2  H   UNL     1      32.840 -20.438 -18.594  0.00  0.00    -0.089 HD
ATOM      3  H   UNL     1      33.405 -21.677 -19.553  0.00  0.00    -0.089 HD
ATOM      4  H   UNL     1      31.773 -21.348 -19.493  0.00  0.00    -0.089 HD
ENDROOT
BRANCH   1   5
ATOM      5  C   UNL     1      32.853 -20.009 -20.588  0.00  0.00    -0.086 C 
BRANCH   5   6
ATOM      6  C   UNL     1      34.329 -19.826 -20.937  0.00  0.00    -0.024 C 
BRANCH   6   7
ATOM      7  C   UNL     1      34.525 -18.680 -21.931  0.00  0.00    -0.002 C 
ATOM      8  C   UNL     1      34.849 -19.199 -23.323  0.00  0.00    -0.000 C 
ENDBRANCH   6   7
ENDBRANCH   5   6
ENDBRANCH   1   5
TORSDOF 3
ENDMDL
MODEL 7
REMARK VINA RESULT:      -3.3     12.097     12.907
REMARK  Name = 8007
REMARK  3 active torsions:
REMARK  status: ('A' for Active; 'I' for Inactive)
REMARK    1  A    between atoms: N_1  and  C_5
REMARK    2  A    between atoms: C_5  and  C_6
REMARK    3  A    between atoms: C_6  and  C_7
REMARK                            x       y       z     vdW  Elec       q    Type
REMARK                         _______ _______ _______ _____ _____    ______ ____
ROOT
ATOM      1  N   UNL     1      33.005  -7.721 -19.922  0.00  0.00    +0.380 N 
ATOM      2  H   UNL     1      32.281  -7.085 -19.588  0.00  0.00    -0.089 HD
ATOM      3  H   UNL     1      33.897  -7.227 -19.968  0.00  0.00    -0.089 HD
ATOM      4  H   UNL     1      33.086  -8.510 -19.279  0.00  0.00    -0.089 HD
ENDROOT
BRANCH   1   5
ATOM      5  C   UNL     1      32.651  -8.211 -21.248  0.00  0.00    -0.086 C 
BRANCH   5   6
ATOM      6  C   UNL     1      33.058  -7.196 -22.315  0.00  0.00    -0.024 C 
BRANCH   6   7
ATOM      7  C   UNL     1      34.336  -7.632 -23.033  0.00  0.00    -0.002 C 
ATOM      8  C   UNL     1      34.458  -6.979 -24.401  0.00  0.00    -0.000 C 
ENDBRANCH   6   7
ENDBRANCH   5   6
ENDBRANCH   1   5
TORSDOF 3
ENDMDL
MODEL 8
REMARK VINA RESULT:      -3.3      9.882     10.718
REMARK  Name = 8007
REMARK  3 active torsions:
REMARK  status: ('A' for Active; 'I' for Inactive)
REMARK    1  A    between atoms: N_1  and  C_5
REMARK    2  A    between atoms: C_5  and  C_6
REMARK    3  A    between atoms: C_6  and  C_7
REMARK                            x       y       z     vdW  Elec       q    Type
REMARK                         _______ _______ _______ _____ _____    ______ ____
ROOT
ATOM      1  N   UNL     1      40.672 -13.071 -13.600  0.00  0.00    +0.380 N 
ATOM      2  H   UNL     1      39.842 -12.509 -13.787  0.00  0.00    -0.089 HD
ATOM      3  H   UNL     1      41.490 -12.463 -13.553  0.00  0.00    -0.089 HD
ATOM      4  H   UNL     1      40.559 -13.558 -12.710  0.00  0.00    -0.089 HD
ENDROOT
BRANCH   1   5
ATOM      5  C   UNL     1      40.852 -14.046 -14.668  0.00  0.00    -0.086 C 
BRANCH   5   6
ATOM      6  C   UNL     1      41.736 -13.468 -15.772  0.00  0.00    -0.024 C 
BRANCH   6   7
ATOM      7  C   UNL     1      42.028 -14.513 -16.850  0.00  0.00    -0.002 C 
ATOM      8  C   UNL     1      41.195 -14.273 -18.099  0.00  0.00    -0.000 C 
ENDBRANCH   6   7
ENDBRANCH   5   6
ENDBRANCH   1   5
TORSDOF 3
ENDMDL
MODEL 9
REMARK VINA RESULT:      -3.2      3.327      3.961
REMARK  Name = 8007
REMARK  3 active torsions:
REMARK  status: ('A' for Active; 'I' for Inactive)
REMARK    1  A    between atoms: N_1  and  C_5
REMARK    2  A    between atoms: C_5  and  C_6
REMARK    3  A    between atoms: C_6  and  C_7
REMARK                            x       y       z     vdW  Elec       q    Type
REMARK                         _______ _______ _______ _____ _____    ______ ____
ROOT
ATOM      1  N   UNL     1      35.308 -16.548 -24.200  0.00  0.00    +0.380 N 
ATOM      2  H   UNL     1      36.302 -16.507 -24.425  0.00  0.00    -0.089 HD
ATOM      3  H   UNL     1      35.191 -16.830 -23.226  0.00  0.00    -0.089 HD
ATOM      4  H   UNL     1      34.890 -15.627 -24.340  0.00  0.00    -0.089 HD
ENDROOT
BRANCH   1   5
ATOM      5  C   UNL     1      34.651 -17.516 -25.069  0.00  0.00    -0.086 C 
BRANCH   5   6
ATOM      6  C   UNL     1      34.569 -18.878 -24.381  0.00  0.00    -0.024 C 
BRANCH   6   7
ATOM      7  C   UNL     1      35.225 -18.839 -23.000  0.00  0.00    -0.002 C 
ATOM      8  C   UNL     1      34.303 -19.403 -21.930  0.00  0.00    -0.000 C 
ENDBRANCH   6   7
ENDBRANCH   5   6
ENDBRANCH   1   5
TORSDOF 3
ENDMDL
