MODEL 1
REMARK VINA RESULT:      -7.8      0.000      0.000
REMARK  Name = 92249
REMARK  1 active torsions:
REMARK  status: ('A' for Active; 'I' for Inactive)
REMARK    1  A    between atoms: C_8  and  N_13
REMARK                            x       y       z     vdW  Elec       q    Type
REMARK                         _______ _______ _______ _____ _____    ______ ____
ROOT
ATOM      1  O   UNL     1      33.736 -15.409 -24.554  0.00  0.00    -0.421 OA
ATOM      2  O   UNL     1      34.823 -16.919 -25.883  0.00  0.00    -0.244 OA
ATOM      3  C   UNL     1      33.878 -15.637 -22.125  0.00  0.00    +0.031 C 
ATOM      4  C   UNL     1      34.723 -16.824 -22.311  0.00  0.00    -0.012 C 
ATOM      5  C   UNL     1      33.410 -14.966 -23.256  0.00  0.00    +0.150 C 
ATOM      6  C   UNL     1      33.508 -15.132 -20.871  0.00  0.00    +0.004 C 
ATOM      7  C   UNL     1      32.602 -13.831 -23.169  0.00  0.00    +0.052 C 
ATOM      8  C   UNL     1      32.247 -13.345 -21.915  0.00  0.00    +0.045 C 
ATOM      9  C   UNL     1      35.018 -17.223 -23.556  0.00  0.00    +0.078 C 
ATOM     10  C   UNL     1      32.700 -13.995 -20.767  0.00  0.00    +0.014 C 
ATOM     11  C   UNL     1      35.241 -17.568 -21.115  0.00  0.00    +0.031 C 
ATOM     12  C   UNL     1      34.532 -16.525 -24.759  0.00  0.00    +0.346 C 
ENDROOT
BRANCH   8  13
ATOM     13  N   UNL     1      31.434 -12.199 -21.803  0.00  0.00    -0.357 N 
ATOM     14  H   UNL     1      31.573 -11.565 -21.063  0.00  0.00    +0.142 HD
ATOM     15  H   UNL     1      30.726 -12.032 -22.467  0.00  0.00    +0.142 HD
ENDBRANCH   8  13
TORSDOF 1
ENDMDL
MODEL 2
REMARK VINA RESULT:      -7.7      2.403      3.690
REMARK  Name = 92249
REMARK  1 active torsions:
REMARK  status: ('A' for Active; 'I' for Inactive)
REMARK    1  A    between atoms: C_8  and  N_13
REMARK                            x       y       z     vdW  Elec       q    Type
REMARK                         _______ _______ _______ _____ _____    ______ ____
ROOT
ATOM      1  O   UNL     1      34.151 -16.232 -24.839  0.00  0.00    -0.421 OA
ATOM      2  O   UNL     1      33.390 -15.329 -26.798  0.00  0.00    -0.244 OA
ATOM      3  C   UNL     1      33.779 -15.028 -22.746  0.00  0.00    +0.031 C 
ATOM      4  C   UNL     1      33.100 -13.969 -23.504  0.00  0.00    -0.012 C 
ATOM      5  C   UNL     1      34.285 -16.128 -23.439  0.00  0.00    +0.150 C 
ATOM      6  C   UNL     1      33.954 -15.001 -21.355  0.00  0.00    +0.004 C 
ATOM      7  C   UNL     1      34.944 -17.177 -22.796  0.00  0.00    +0.052 C 
ATOM      8  C   UNL     1      35.106 -17.132 -21.415  0.00  0.00    +0.045 C 
ATOM      9  C   UNL     1      32.987 -14.094 -24.834  0.00  0.00    +0.078 C 
ATOM     10  C   UNL     1      34.611 -16.045 -20.696  0.00  0.00    +0.014 C 
ATOM     11  C   UNL     1      32.546 -12.772 -22.787  0.00  0.00    +0.031 C 
ATOM     12  C   UNL     1      33.514 -15.249 -25.580  0.00  0.00    +0.346 C 
ENDROOT
BRANCH   8  13
ATOM     13  N   UNL     1      35.767 -18.181 -20.745  0.00  0.00    -0.357 N 
ATOM     14  H   UNL     1      36.276 -18.851 -21.258  0.00  0.00    +0.142 HD
ATOM     15  H   UNL     1      35.723 -18.244 -19.764  0.00  0.00    +0.142 HD
ENDBRANCH   8  13
TORSDOF 1
ENDMDL
MODEL 3
REMARK VINA RESULT:      -7.5      2.219      3.040
REMARK  Name = 92249
REMARK  1 active torsions:
REMARK  status: ('A' for Active; 'I' for Inactive)
REMARK    1  A    between atoms: C_8  and  N_13
REMARK                            x       y       z     vdW  Elec       q    Type
REMARK                         _______ _______ _______ _____ _____    ______ ____
ROOT
ATOM      1  O   UNL     1      35.075 -17.100 -20.625  0.00  0.00    -0.421 OA
ATOM      2  O   UNL     1      36.365 -18.988 -20.636  0.00  0.00    -0.244 OA
ATOM      3  C   UNL     1      34.256 -16.201 -22.744  0.00  0.00    +0.031 C 
ATOM      4  C   UNL     1      34.940 -17.297 -23.445  0.00  0.00    -0.012 C 
ATOM      5  C   UNL     1      34.346 -16.137 -21.353  0.00  0.00    +0.150 C 
ATOM      6  C   UNL     1      33.513 -15.206 -23.393  0.00  0.00    +0.004 C 
ATOM      7  C   UNL     1      33.727 -15.131 -20.610  0.00  0.00    +0.052 C 
ATOM      8  C   UNL     1      32.993 -14.152 -21.273  0.00  0.00    +0.045 C 
ATOM      9  C   UNL     1      35.625 -18.198 -22.727  0.00  0.00    +0.078 C 
ATOM     10  C   UNL     1      32.885 -14.190 -22.662  0.00  0.00    +0.014 C 
ATOM     11  C   UNL     1      34.862 -17.391 -24.941  0.00  0.00    +0.031 C 
ATOM     12  C   UNL     1      35.729 -18.145 -21.259  0.00  0.00    +0.346 C 
ENDROOT
BRANCH   8  13
ATOM     13  N   UNL     1      32.359 -13.127 -20.543  0.00  0.00    -0.357 N 
ATOM     14  H   UNL     1      32.854 -12.639 -19.846  0.00  0.00    +0.142 HD
ATOM     15  H   UNL     1      31.420 -12.897 -20.731  0.00  0.00    +0.142 HD
ENDBRANCH   8  13
TORSDOF 1
ENDMDL
MODEL 4
REMARK VINA RESULT:      -7.2      5.237      6.881
REMARK  Name = 92249
REMARK  1 active torsions:
REMARK  status: ('A' for Active; 'I' for Inactive)
REMARK    1  A    between atoms: C_8  and  N_13
REMARK                            x       y       z     vdW  Elec       q    Type
REMARK                         _______ _______ _______ _____ _____    ______ ____
ROOT
ATOM      1  O   UNL     1      33.058 -21.251 -19.769  0.00  0.00    -0.421 OA
ATOM      2  O   UNL     1      32.278 -22.785 -18.263  0.00  0.00    -0.244 OA
ATOM      3  C   UNL     1      35.438 -20.699 -19.786  0.00  0.00    +0.031 C 
ATOM      4  C   UNL     1      35.641 -21.646 -18.682  0.00  0.00    -0.012 C 
ATOM      5  C   UNL     1      34.150 -20.530 -20.295  0.00  0.00    +0.150 C 
ATOM      6  C   UNL     1      36.468 -19.945 -20.365  0.00  0.00    +0.004 C 
ATOM      7  C   UNL     1      33.870 -19.651 -21.342  0.00  0.00    +0.052 C 
ATOM      8  C   UNL     1      34.906 -18.913 -21.904  0.00  0.00    +0.045 C 
ATOM      9  C   UNL     1      34.585 -22.318 -18.201  0.00  0.00    +0.078 C 
ATOM     10  C   UNL     1      36.204 -19.060 -21.416  0.00  0.00    +0.014 C 
ATOM     11  C   UNL     1      37.015 -21.848 -18.113  0.00  0.00    +0.031 C 
ATOM     12  C   UNL     1      33.220 -22.152 -18.728  0.00  0.00    +0.346 C 
ENDROOT
BRANCH   8  13
ATOM     13  N   UNL     1      34.647 -18.020 -22.963  0.00  0.00    -0.357 N 
ATOM     14  H   UNL     1      34.161 -17.180 -22.793  0.00  0.00    +0.142 HD
ATOM     15  H   UNL     1      34.952 -18.234 -23.874  0.00  0.00    +0.142 HD
ENDBRANCH   8  13
TORSDOF 1
ENDMDL
MODEL 5
REMARK VINA RESULT:      -7.2      2.932      4.667
REMARK  Name = 92249
REMARK  1 active torsions:
REMARK  status: ('A' for Active; 'I' for Inactive)
REMARK    1  A    between atoms: C_8  and  N_13
REMARK                            x       y       z     vdW  Elec       q    Type
REMARK                         _______ _______ _______ _____ _____    ______ ____
ROOT
ATOM      1  O   UNL     1      33.402 -14.713 -21.326  0.00  0.00    -0.421 OA
ATOM      2  O   UNL     1      32.139 -12.826 -21.593  0.00  0.00    -0.244 OA
ATOM      3  C   UNL     1      34.133 -15.950 -23.301  0.00  0.00    +0.031 C 
ATOM      4  C   UNL     1      33.440 -14.966 -24.144  0.00  0.00    -0.012 C 
ATOM      5  C   UNL     1      34.092 -15.792 -21.916  0.00  0.00    +0.150 C 
ATOM      6  C   UNL     1      34.840 -17.050 -23.808  0.00  0.00    +0.004 C 
ATOM      7  C   UNL     1      34.723 -16.681 -21.044  0.00  0.00    +0.052 C 
ATOM      8  C   UNL     1      35.420 -17.765 -21.567  0.00  0.00    +0.045 C 
ATOM      9  C   UNL     1      32.792 -13.951 -23.556  0.00  0.00    +0.078 C 
ATOM     10  C   UNL     1      35.478 -17.949 -22.947  0.00  0.00    +0.014 C 
ATOM     11  C   UNL     1      33.465 -15.110 -25.638  0.00  0.00    +0.031 C 
ATOM     12  C   UNL     1      32.740 -13.769 -22.095  0.00  0.00    +0.346 C 
ENDROOT
BRANCH   8  13
ATOM     13  N   UNL     1      36.066 -18.674 -20.705  0.00  0.00    -0.357 N 
ATOM     14  H   UNL     1      36.824 -19.209 -21.032  0.00  0.00    +0.142 HD
ATOM     15  H   UNL     1      35.759 -18.773 -19.774  0.00  0.00    +0.142 HD
ENDBRANCH   8  13
TORSDOF 1
ENDMDL
MODEL 6
REMARK VINA RESULT:      -7.1      2.402      3.614
REMARK  Name = 92249
REMARK  1 active torsions:
REMARK  status: ('A' for Active; 'I' for Inactive)
REMARK    1  A    between atoms: C_8  and  N_13
REMARK                            x       y       z     vdW  Elec       q    Type
REMARK                         _______ _______ _______ _____ _____    ______ ____
ROOT
ATOM      1  O   UNL     1      34.281 -15.079 -21.903  0.00  0.00    -0.421 OA
ATOM      2  O   UNL     1      34.956 -15.784 -19.835  0.00  0.00    -0.244 OA
ATOM      3  C   UNL     1      34.380 -16.634 -23.785  0.00  0.00    +0.031 C 
ATOM      4  C   UNL     1      34.911 -17.660 -22.878  0.00  0.00    -0.012 C 
ATOM      5  C   UNL     1      34.082 -15.373 -23.268  0.00  0.00    +0.150 C 
ATOM      6  C   UNL     1      34.154 -16.844 -25.152  0.00  0.00    +0.004 C 
ATOM      7  C   UNL     1      33.575 -14.341 -24.060  0.00  0.00    +0.052 C 
ATOM      8  C   UNL     1      33.356 -14.571 -25.414  0.00  0.00    +0.045 C 
ATOM      9  C   UNL     1      35.090 -17.353 -21.585  0.00  0.00    +0.078 C 
ATOM     10  C   UNL     1      33.645 -15.821 -25.960  0.00  0.00    +0.014 C 
ATOM     11  C   UNL     1      35.242 -19.026 -23.405  0.00  0.00    +0.031 C 
ATOM     12  C   UNL     1      34.779 -16.028 -21.024  0.00  0.00    +0.346 C 
ENDROOT
BRANCH   8  13
ATOM     13  N   UNL     1      32.844 -13.544 -26.233  0.00  0.00    -0.357 N 
ATOM     14  H   UNL     1      32.441 -13.763 -27.104  0.00  0.00    +0.142 HD
ATOM     15  H   UNL     1      32.888 -12.608 -25.933  0.00  0.00    +0.142 HD
ENDBRANCH   8  13
TORSDOF 1
ENDMDL
MODEL 7
REMARK VINA RESULT:      -7.0      2.865      4.316
REMARK  Name = 92249
REMARK  1 active torsions:
REMARK  status: ('A' for Active; 'I' for Inactive)
REMARK    1  A    between atoms: C_8  and  N_13
REMARK                            x       y       z     vdW  Elec       q    Type
REMARK                         _______ _______ _______ _____ _____    ______ ____
ROOT
ATOM      1  O   UNL     1      33.953 -15.376 -24.831  0.00  0.00    -0.421 OA
ATOM      2  O   UNL     1      33.471 -13.141 -24.799  0.00  0.00    -0.244 OA
ATOM      3  C   UNL     1      34.527 -16.504 -22.742  0.00  0.00    +0.031 C 
ATOM      4  C   UNL     1      34.362 -15.227 -22.036  0.00  0.00    -0.012 C 
ATOM      5  C   UNL     1      34.317 -16.538 -24.121  0.00  0.00    +0.150 C 
ATOM      6  C   UNL     1      34.887 -17.703 -22.110  0.00  0.00    +0.004 C 
ATOM      7  C   UNL     1      34.453 -17.710 -24.868  0.00  0.00    +0.052 C 
ATOM      8  C   UNL     1      34.810 -18.889 -24.222  0.00  0.00    +0.045 C 
ATOM      9  C   UNL     1      34.015 -14.138 -22.736  0.00  0.00    +0.078 C 
ATOM     10  C   UNL     1      35.026 -18.885 -22.845  0.00  0.00    +0.014 C 
ATOM     11  C   UNL     1      34.582 -15.158 -20.552  0.00  0.00    +0.031 C 
ATOM     12  C   UNL     1      33.789 -14.158 -24.192  0.00  0.00    +0.346 C 
ENDROOT
BRANCH   8  13
ATOM     13  N   UNL     1      34.951 -20.084 -24.956  0.00  0.00    -0.357 N 
ATOM     14  H   UNL     1      35.482 -20.827 -24.590  0.00  0.00    +0.142 HD
ATOM     15  H   UNL     1      34.518 -20.176 -25.835  0.00  0.00    +0.142 HD
ENDBRANCH   8  13
TORSDOF 1
ENDMDL
MODEL 8
REMARK VINA RESULT:      -7.0      2.325      3.157
REMARK  Name = 92249
REMARK  1 active torsions:
REMARK  status: ('A' for Active; 'I' for Inactive)
REMARK    1  A    between atoms: C_8  and  N_13
REMARK                            x       y       z     vdW  Elec       q    Type
REMARK                         _______ _______ _______ _____ _____    ______ ____
ROOT
ATOM      1  O   UNL     1      34.621 -17.776 -23.865  0.00  0.00    -0.421 OA
ATOM      2  O   UNL     1      35.343 -19.447 -22.480  0.00  0.00    -0.244 OA
ATOM      3  C   UNL     1      34.175 -15.562 -22.934  0.00  0.00    +0.031 C 
ATOM      4  C   UNL     1      34.560 -16.069 -21.609  0.00  0.00    -0.012 C 
ATOM      5  C   UNL     1      34.218 -16.434 -24.022  0.00  0.00    +0.150 C 
ATOM      6  C   UNL     1      33.764 -14.244 -23.174  0.00  0.00    +0.004 C 
ATOM      7  C   UNL     1      33.869 -16.035 -25.313  0.00  0.00    +0.052 C 
ATOM      8  C   UNL     1      33.464 -14.722 -25.531  0.00  0.00    +0.045 C 
ATOM      9  C   UNL     1      34.939 -17.349 -21.490  0.00  0.00    +0.078 C 
ATOM     10  C   UNL     1      33.412 -13.828 -24.462  0.00  0.00    +0.014 C 
ATOM     11  C   UNL     1      34.524 -15.155 -20.419  0.00  0.00    +0.031 C 
ATOM     12  C   UNL     1      34.990 -18.282 -22.628  0.00  0.00    +0.346 C 
ENDROOT
BRANCH   8  13
ATOM     13  N   UNL     1      33.108 -14.296 -26.826  0.00  0.00    -0.357 N 
ATOM     14  H   UNL     1      32.906 -13.348 -26.996  0.00  0.00    +0.142 HD
ATOM     15  H   UNL     1      33.063 -14.947 -27.564  0.00  0.00    +0.142 HD
ENDBRANCH   8  13
TORSDOF 1
ENDMDL
MODEL 9
REMARK VINA RESULT:      -7.0      2.140      2.820
REMARK  Name = 92249
REMARK  1 active torsions:
REMARK  status: ('A' for Active; 'I' for Inactive)
REMARK    1  A    between atoms: C_8  and  N_13
REMARK                            x       y       z     vdW  Elec       q    Type
REMARK                         _______ _______ _______ _____ _____    ______ ____
ROOT
ATOM      1  O   UNL     1      34.324 -18.029 -25.352  0.00  0.00    -0.421 OA
ATOM      2  O   UNL     1      34.925 -20.207 -24.996  0.00  0.00    -0.244 OA
ATOM      3  C   UNL     1      34.398 -16.451 -23.489  0.00  0.00    +0.031 C 
ATOM      4  C   UNL     1      34.862 -17.539 -22.617  0.00  0.00    -0.012 C 
ATOM      5  C   UNL     1      34.143 -16.732 -24.831  0.00  0.00    +0.150 C 
ATOM      6  C   UNL     1      34.192 -15.135 -23.050  0.00  0.00    +0.004 C 
ATOM      7  C   UNL     1      33.699 -15.757 -25.727  0.00  0.00    +0.052 C 
ATOM      8  C   UNL     1      33.502 -14.457 -25.272  0.00  0.00    +0.045 C 
ATOM      9  C   UNL     1      35.026 -18.762 -23.139  0.00  0.00    +0.078 C 
ATOM     10  C   UNL     1      33.749 -14.146 -23.936  0.00  0.00    +0.014 C 
ATOM     11  C   UNL     1      35.144 -17.268 -21.168  0.00  0.00    +0.031 C 
ATOM     12  C   UNL     1      34.762 -19.075 -24.554  0.00  0.00    +0.346 C 
ENDROOT
BRANCH   8  13
ATOM     13  N   UNL     1      33.056 -13.456 -26.159  0.00  0.00    -0.357 N 
ATOM     14  H   UNL     1      32.405 -12.784 -25.856  0.00  0.00    +0.142 HD
ATOM     15  H   UNL     1      33.397 -13.429 -27.082  0.00  0.00    +0.142 HD
ENDBRANCH   8  13
TORSDOF 1
ENDMDL
