MODEL 1
REMARK VINA RESULT:      -8.4      0.000      0.000
REMARK  Name = 9600414
REMARK  4 active torsions:
REMARK  status: ('A' for Active; 'I' for Inactive)
REMARK    1  A    between atoms: C_4  and  S_14
REMARK    2  A    between atoms: C_5  and  C_22
REMARK    3  A    between atoms: S_14  and  C_16
REMARK    4  A    between atoms: C_22  and  C_23
REMARK                            x       y       z     vdW  Elec       q    Type
REMARK                         _______ _______ _______ _____ _____    ______ ____
ROOT
ATOM      1 CL   UNL     1      31.639  -8.269 -20.005  0.00  0.00    -0.082 Cl
ATOM      2  O   UNL     1      35.631 -10.630 -26.503  0.00  0.00    -0.268 OA
ATOM      3  N   UNL     1      34.894  -9.285 -24.816  0.00  0.00    -0.321 N 
ATOM      4  C   UNL     1      33.314 -11.402 -23.875  0.00  0.00    +0.058 A 
ATOM      5  C   UNL     1      34.072 -11.601 -24.977  0.00  0.00    +0.042 A 
ATOM      6  C   UNL     1      33.311 -10.097 -23.174  0.00  0.00    +0.024 A 
ATOM      7  C   UNL     1      34.114  -9.066 -23.675  0.00  0.00    +0.059 A 
ATOM      8  C   UNL     1      34.932 -10.476 -25.501  0.00  0.00    +0.254 A 
ATOM      9  C   UNL     1      32.547  -9.824 -22.026  0.00  0.00    +0.013 C 
ATOM     10  C   UNL     1      34.159  -7.807 -23.063  0.00  0.00    +0.018 C 
ATOM     11  C   UNL     1      32.589  -8.569 -21.410  0.00  0.00    +0.058 C 
ATOM     12  C   UNL     1      33.395  -7.561 -21.928  0.00  0.00    +0.013 C 
ATOM     13  H   UNL     1      35.449  -8.542 -25.148  0.00  0.00    +0.169 HD
ENDROOT
BRANCH   4  14
ATOM     14  S   UNL     1      32.283 -12.729 -23.234  0.00  0.00    +0.064 S 
ATOM     15  O   UNL     1      31.543 -12.128 -22.082  0.00  0.00    -0.251 OA
BRANCH  14  16
ATOM     16  C   UNL     1      33.651 -13.749 -22.570  0.00  0.00    +0.084 C 
ATOM     17  C   UNL     1      33.389 -14.078 -21.100  0.00  0.00    +0.014 C 
ATOM     18  C   UNL     1      33.808 -15.019 -23.409  0.00  0.00    +0.014 C 
ATOM     19  C   UNL     1      34.473 -14.992 -20.533  0.00  0.00    +0.001 C 
ATOM     20  C   UNL     1      34.891 -15.931 -22.840  0.00  0.00    +0.001 C 
ATOM     21  C   UNL     1      34.638 -16.257 -21.371  0.00  0.00    +0.000 C 
ENDBRANCH  14  16
ENDBRANCH   4  14
BRANCH   5  22
ATOM     22  C   UNL     1      34.189 -12.858 -25.803  0.00  0.00    +0.032 C 
BRANCH  22  23
ATOM     23  C   UNL     1      33.014 -13.002 -26.757  0.00  0.00    +0.005 C 
ATOM     24  C   UNL     1      32.601 -14.460 -26.891  0.00  0.00    +0.000 C 
ENDBRANCH  22  23
ENDBRANCH   5  22
TORSDOF 4
ENDMDL
MODEL 2
REMARK VINA RESULT:      -7.8     10.297     13.499
REMARK  Name = 9600414
REMARK  4 active torsions:
REMARK  status: ('A' for Active; 'I' for Inactive)
REMARK    1  A    between atoms: C_4  and  S_14
REMARK    2  A    between atoms: C_5  and  C_22
REMARK    3  A    between atoms: S_14  and  C_16
REMARK    4  A    between atoms: C_22  and  C_23
REMARK                            x       y       z     vdW  Elec       q    Type
REMARK                         _______ _______ _______ _____ _____    ______ ____
ROOT
ATOM      1 CL   UNL     1      27.844 -22.814 -17.249  0.00  0.00    -0.082 Cl
ATOM      2  O   UNL     1      35.206 -23.083 -14.171  0.00  0.00    -0.268 OA
ATOM      3  N   UNL     1      32.933 -22.933 -14.272  0.00  0.00    -0.321 N 
ATOM      4  C   UNL     1      33.083 -23.162 -17.062  0.00  0.00    +0.058 A 
ATOM      5  C   UNL     1      34.231 -23.186 -16.348  0.00  0.00    +0.042 A 
ATOM      6  C   UNL     1      31.769 -23.019 -16.393  0.00  0.00    +0.024 A 
ATOM      7  C   UNL     1      31.737 -22.908 -14.998  0.00  0.00    +0.059 A 
ATOM      8  C   UNL     1      34.175 -23.065 -14.845  0.00  0.00    +0.254 A 
ATOM      9  C   UNL     1      30.541 -22.987 -17.074  0.00  0.00    +0.013 C 
ATOM     10  C   UNL     1      30.531 -22.769 -14.300  0.00  0.00    +0.018 C 
ATOM     11  C   UNL     1      29.332 -22.849 -16.382  0.00  0.00    +0.058 C 
ATOM     12  C   UNL     1      29.328 -22.741 -14.996  0.00  0.00    +0.013 C 
ATOM     13  H   UNL     1      32.882 -22.853 -13.291  0.00  0.00    +0.169 HD
ENDROOT
BRANCH   4  14
ATOM     14  S   UNL     1      33.128 -23.304 -18.855  0.00  0.00    +0.064 S 
ATOM     15  O   UNL     1      34.126 -24.382 -19.138  0.00  0.00    -0.251 OA
BRANCH  14  16
ATOM     16  C   UNL     1      33.923 -21.685 -19.169  0.00  0.00    +0.084 C 
ATOM     17  C   UNL     1      35.319 -21.897 -19.758  0.00  0.00    +0.014 C 
ATOM     18  C   UNL     1      33.045 -20.845 -20.097  0.00  0.00    +0.014 C 
ATOM     19  C   UNL     1      35.984 -20.566 -20.104  0.00  0.00    +0.001 C 
ATOM     20  C   UNL     1      33.712 -19.516 -20.443  0.00  0.00    +0.001 C 
ATOM     21  C   UNL     1      35.108 -19.722 -21.025  0.00  0.00    +0.000 C 
ENDBRANCH  14  16
ENDBRANCH   4  14
BRANCH   5  22
ATOM     22  C   UNL     1      35.640 -23.323 -16.871  0.00  0.00    +0.032 C 
BRANCH  22  23
ATOM     23  C   UNL     1      36.456 -22.069 -16.595  0.00  0.00    +0.005 C 
ATOM     24  C   UNL     1      37.880 -22.426 -16.197  0.00  0.00    +0.000 C 
ENDBRANCH  22  23
ENDBRANCH   5  22
TORSDOF 4
ENDMDL
MODEL 3
REMARK VINA RESULT:      -7.6      2.432      5.484
REMARK  Name = 9600414
REMARK  4 active torsions:
REMARK  status: ('A' for Active; 'I' for Inactive)
REMARK    1  A    between atoms: C_4  and  S_14
REMARK    2  A    between atoms: C_5  and  C_22
REMARK    3  A    between atoms: S_14  and  C_16
REMARK    4  A    between atoms: C_22  and  C_23
REMARK                            x       y       z     vdW  Elec       q    Type
REMARK                         _______ _______ _______ _____ _____    ______ ____
ROOT
ATOM      1 CL   UNL     1      34.776  -6.771 -24.421  0.00  0.00    -0.082 Cl
ATOM      2  O   UNL     1      33.392 -14.625 -24.082  0.00  0.00    -0.268 OA
ATOM      3  N   UNL     1      34.227 -12.629 -24.800  0.00  0.00    -0.321 N 
ATOM      4  C   UNL     1      32.830 -11.350 -22.733  0.00  0.00    +0.058 A 
ATOM      5  C   UNL     1      32.726 -12.692 -22.849  0.00  0.00    +0.042 A 
ATOM      6  C   UNL     1      33.662 -10.562 -23.674  0.00  0.00    +0.024 A 
ATOM      7  C   UNL     1      34.343 -11.239 -24.692  0.00  0.00    +0.059 A 
ATOM      8  C   UNL     1      33.469 -13.404 -23.954  0.00  0.00    +0.254 A 
ATOM      9  C   UNL     1      33.812  -9.167 -23.609  0.00  0.00    +0.013 C 
ATOM     10  C   UNL     1      35.146 -10.559 -25.615  0.00  0.00    +0.018 C 
ATOM     11  C   UNL     1      34.614  -8.482 -24.529  0.00  0.00    +0.058 C 
ATOM     12  C   UNL     1      35.281  -9.178 -25.531  0.00  0.00    +0.013 C 
ATOM     13  H   UNL     1      34.717 -13.081 -25.526  0.00  0.00    +0.169 HD
ENDROOT
BRANCH   4  14
ATOM     14  S   UNL     1      31.952 -10.482 -21.424  0.00  0.00    +0.064 S 
ATOM     15  O   UNL     1      30.544 -10.980 -21.501  0.00  0.00    -0.251 OA
BRANCH  14  16
ATOM     16  C   UNL     1      32.020  -8.824 -22.195  0.00  0.00    +0.084 C 
ATOM     17  C   UNL     1      30.777  -8.599 -23.056  0.00  0.00    +0.014 C 
ATOM     18  C   UNL     1      32.154  -7.751 -21.113  0.00  0.00    +0.014 C 
ATOM     19  C   UNL     1      30.762  -7.194 -23.656  0.00  0.00    +0.001 C 
ATOM     20  C   UNL     1      32.137  -6.348 -21.715  0.00  0.00    +0.001 C 
ATOM     21  C   UNL     1      30.902  -6.121 -22.581  0.00  0.00    +0.000 C 
ENDBRANCH  14  16
ENDBRANCH   4  14
BRANCH   5  22
ATOM     22  C   UNL     1      31.928 -13.635 -21.983  0.00  0.00    +0.032 C 
BRANCH  22  23
ATOM     23  C   UNL     1      32.737 -14.099 -20.781  0.00  0.00    +0.005 C 
ATOM     24  C   UNL     1      32.688 -15.614 -20.649  0.00  0.00    +0.000 C 
ENDBRANCH  22  23
ENDBRANCH   5  22
TORSDOF 4
ENDMDL
MODEL 4
REMARK VINA RESULT:      -7.6      3.162      6.393
REMARK  Name = 9600414
REMARK  4 active torsions:
REMARK  status: ('A' for Active; 'I' for Inactive)
REMARK    1  A    between atoms: C_4  and  S_14
REMARK    2  A    between atoms: C_5  and  C_22
REMARK    3  A    between atoms: S_14  and  C_16
REMARK    4  A    between atoms: C_22  and  C_23
REMARK                            x       y       z     vdW  Elec       q    Type
REMARK                         _______ _______ _______ _____ _____    ______ ____
ROOT
ATOM      1 CL   UNL     1      35.358 -17.436 -24.021  0.00  0.00    -0.082 Cl
ATOM      2  O   UNL     1      31.583 -11.931 -19.642  0.00  0.00    -0.268 OA
ATOM      3  N   UNL     1      32.824 -13.773 -20.157  0.00  0.00    -0.321 N 
ATOM      4  C   UNL     1      32.492 -13.183 -22.878  0.00  0.00    +0.058 A 
ATOM      5  C   UNL     1      31.925 -12.364 -21.965  0.00  0.00    +0.042 A 
ATOM      6  C   UNL     1      33.275 -14.370 -22.459  0.00  0.00    +0.024 A 
ATOM      7  C   UNL     1      33.417 -14.629 -21.091  0.00  0.00    +0.059 A 
ATOM      8  C   UNL     1      32.090 -12.660 -20.494  0.00  0.00    +0.254 A 
ATOM      9  C   UNL     1      33.890 -15.261 -23.355  0.00  0.00    +0.013 C 
ATOM     10  C   UNL     1      34.143 -15.732 -20.624  0.00  0.00    +0.018 C 
ATOM     11  C   UNL     1      34.617 -16.364 -22.895  0.00  0.00    +0.058 C 
ATOM     12  C   UNL     1      34.743 -16.599 -21.530  0.00  0.00    +0.013 C 
ATOM     13  H   UNL     1      32.940 -13.978 -19.200  0.00  0.00    +0.169 HD
ENDROOT
BRANCH   4  14
ATOM     14  S   UNL     1      32.307 -12.848 -24.636  0.00  0.00    +0.064 S 
ATOM     15  O   UNL     1      32.407 -14.183 -25.302  0.00  0.00    -0.251 OA
BRANCH  14  16
ATOM     16  C   UNL     1      33.904 -11.978 -24.848  0.00  0.00    +0.084 C 
ATOM     17  C   UNL     1      34.219 -11.826 -26.336  0.00  0.00    +0.014 C 
ATOM     18  C   UNL     1      33.855 -10.621 -24.144  0.00  0.00    +0.014 C 
ATOM     19  C   UNL     1      35.509 -11.036 -26.553  0.00  0.00    +0.001 C 
ATOM     20  C   UNL     1      35.143  -9.833 -24.363  0.00  0.00    +0.001 C 
ATOM     21  C   UNL     1      35.466  -9.684 -25.847  0.00  0.00    +0.000 C 
ENDBRANCH  14  16
ENDBRANCH   4  14
BRANCH   5  22
ATOM     22  C   UNL     1      31.103 -11.125 -22.221  0.00  0.00    +0.032 C 
BRANCH  22  23
ATOM     23  C   UNL     1      31.864  -9.867 -21.833  0.00  0.00    +0.005 C 
ATOM     24  C   UNL     1      31.434  -8.687 -22.691  0.00  0.00    +0.000 C 
ENDBRANCH  22  23
ENDBRANCH   5  22
TORSDOF 4
ENDMDL
MODEL 5
REMARK VINA RESULT:      -7.5      2.911      5.427
REMARK  Name = 9600414
REMARK  4 active torsions:
REMARK  status: ('A' for Active; 'I' for Inactive)
REMARK    1  A    between atoms: C_4  and  S_14
REMARK    2  A    between atoms: C_5  and  C_22
REMARK    3  A    between atoms: S_14  and  C_16
REMARK    4  A    between atoms: C_22  and  C_23
REMARK                            x       y       z     vdW  Elec       q    Type
REMARK                         _______ _______ _______ _____ _____    ______ ____
ROOT
ATOM      1 CL   UNL     1      30.610 -10.945 -21.369  0.00  0.00    -0.082 Cl
ATOM      2  O   UNL     1      35.316 -17.316 -22.365  0.00  0.00    -0.268 OA
ATOM      3  N   UNL     1      34.073 -15.717 -21.318  0.00  0.00    -0.321 N 
ATOM      4  C   UNL     1      33.463 -14.611 -23.822  0.00  0.00    +0.058 A 
ATOM      5  C   UNL     1      34.255 -15.706 -23.773  0.00  0.00    +0.042 A 
ATOM      6  C   UNL     1      32.925 -14.002 -22.583  0.00  0.00    +0.024 A 
ATOM      7  C   UNL     1      33.253 -14.584 -21.353  0.00  0.00    +0.059 A 
ATOM      8  C   UNL     1      34.597 -16.319 -22.437  0.00  0.00    +0.254 A 
ATOM      9  C   UNL     1      32.098 -12.866 -22.563  0.00  0.00    +0.013 C 
ATOM     10  C   UNL     1      32.779 -14.061 -20.144  0.00  0.00    +0.018 C 
ATOM     11  C   UNL     1      31.621 -12.339 -21.357  0.00  0.00    +0.058 C 
ATOM     12  C   UNL     1      31.962 -12.936 -20.148  0.00  0.00    +0.013 C 
ATOM     13  H   UNL     1      34.288 -16.107 -20.439  0.00  0.00    +0.169 HD
ENDROOT
BRANCH   4  14
ATOM     14  S   UNL     1      33.045 -13.865 -25.404  0.00  0.00    +0.064 S 
ATOM     15  O   UNL     1      33.483 -14.857 -26.433  0.00  0.00    -0.251 OA
BRANCH  14  16
ATOM     16  C   UNL     1      34.287 -12.522 -25.332  0.00  0.00    +0.084 C 
ATOM     17  C   UNL     1      34.565 -11.994 -26.740  0.00  0.00    +0.014 C 
ATOM     18  C   UNL     1      33.798 -11.409 -24.403  0.00  0.00    +0.014 C 
ATOM     19  C   UNL     1      35.541 -10.820 -26.711  0.00  0.00    +0.001 C 
ATOM     20  C   UNL     1      34.775 -10.237 -24.377  0.00  0.00    +0.001 C 
ATOM     21  C   UNL     1      35.061  -9.711 -25.781  0.00  0.00    +0.000 C 
ENDBRANCH  14  16
ENDBRANCH   4  14
BRANCH   5  22
ATOM     22  C   UNL     1      34.881 -16.444 -24.931  0.00  0.00    +0.032 C 
BRANCH  22  23
ATOM     23  C   UNL     1      34.011 -17.607 -25.380  0.00  0.00    +0.005 C 
ATOM     24  C   UNL     1      34.626 -18.935 -24.965  0.00  0.00    +0.000 C 
ENDBRANCH  22  23
ENDBRANCH   5  22
TORSDOF 4
ENDMDL
MODEL 6
REMARK VINA RESULT:      -7.5      3.537      7.047
REMARK  Name = 9600414
REMARK  4 active torsions:
REMARK  status: ('A' for Active; 'I' for Inactive)
REMARK    1  A    between atoms: C_4  and  S_14
REMARK    2  A    between atoms: C_5  and  C_22
REMARK    3  A    between atoms: S_14  and  C_16
REMARK    4  A    between atoms: C_22  and  C_23
REMARK                            x       y       z     vdW  Elec       q    Type
REMARK                         _______ _______ _______ _____ _____    ______ ____
ROOT
ATOM      1 CL   UNL     1      36.141 -10.253 -26.921  0.00  0.00    -0.082 Cl
ATOM      2  O   UNL     1      30.732 -11.808 -21.260  0.00  0.00    -0.268 OA
ATOM      3  N   UNL     1      32.059 -12.104 -23.089  0.00  0.00    -0.321 N 
ATOM      4  C   UNL     1      33.099  -9.530 -22.699  0.00  0.00    +0.058 A 
ATOM      5  C   UNL     1      32.161  -9.986 -21.839  0.00  0.00    +0.042 A 
ATOM      6  C   UNL     1      33.574 -10.365 -23.827  0.00  0.00    +0.024 A 
ATOM      7  C   UNL     1      33.029 -11.645 -23.987  0.00  0.00    +0.059 A 
ATOM      8  C   UNL     1      31.587 -11.369 -22.028  0.00  0.00    +0.254 A 
ATOM      9  C   UNL     1      34.544  -9.952 -24.755  0.00  0.00    +0.013 C 
ATOM     10  C   UNL     1      33.430 -12.488 -25.030  0.00  0.00    +0.018 C 
ATOM     11  C   UNL     1      34.949 -10.791 -25.800  0.00  0.00    +0.058 C 
ATOM     12  C   UNL     1      34.393 -12.058 -25.937  0.00  0.00    +0.013 C 
ATOM     13  H   UNL     1      31.693 -13.009 -23.225  0.00  0.00    +0.169 HD
ENDROOT
BRANCH   4  14
ATOM     14  S   UNL     1      33.796  -7.884 -22.491  0.00  0.00    +0.064 S 
ATOM     15  O   UNL     1      33.249  -7.389 -21.190  0.00  0.00    -0.251 OA
BRANCH  14  16
ATOM     16  C   UNL     1      32.859  -7.092 -23.849  0.00  0.00    +0.084 C 
ATOM     17  C   UNL     1      31.763  -6.195 -23.270  0.00  0.00    +0.014 C 
ATOM     18  C   UNL     1      33.812  -6.303 -24.749  0.00  0.00    +0.014 C 
ATOM     19  C   UNL     1      31.008  -5.457 -24.374  0.00  0.00    +0.001 C 
ATOM     20  C   UNL     1      33.055  -5.565 -25.850  0.00  0.00    +0.001 C 
ATOM     21  C   UNL     1      31.956  -4.674 -25.278  0.00  0.00    +0.000 C 
ENDBRANCH  14  16
ENDBRANCH   4  14
BRANCH   5  22
ATOM     22  C   UNL     1      31.573  -9.268 -20.649  0.00  0.00    +0.032 C 
BRANCH  22  23
ATOM     23  C   UNL     1      32.263  -9.683 -19.358  0.00  0.00    +0.005 C 
ATOM     24  C   UNL     1      31.357 -10.577 -18.524  0.00  0.00    +0.000 C 
ENDBRANCH  22  23
ENDBRANCH   5  22
TORSDOF 4
ENDMDL
MODEL 7
REMARK VINA RESULT:      -7.5      2.671      4.430
REMARK  Name = 9600414
REMARK  4 active torsions:
REMARK  status: ('A' for Active; 'I' for Inactive)
REMARK    1  A    between atoms: C_4  and  S_14
REMARK    2  A    between atoms: C_5  and  C_22
REMARK    3  A    between atoms: S_14  and  C_16
REMARK    4  A    between atoms: C_22  and  C_23
REMARK                            x       y       z     vdW  Elec       q    Type
REMARK                         _______ _______ _______ _____ _____    ______ ____
ROOT
ATOM      1 CL   UNL     1      34.557 -12.775 -27.151  0.00  0.00    -0.082 Cl
ATOM      2  O   UNL     1      33.478  -7.356 -21.389  0.00  0.00    -0.268 OA
ATOM      3  N   UNL     1      34.347  -8.370 -23.236  0.00  0.00    -0.321 N 
ATOM      4  C   UNL     1      32.524 -10.472 -22.888  0.00  0.00    +0.058 A 
ATOM      5  C   UNL     1      32.504  -9.446 -22.009  0.00  0.00    +0.042 A 
ATOM      6  C   UNL     1      33.486 -10.495 -24.015  0.00  0.00    +0.024 A 
ATOM      7  C   UNL     1      34.379  -9.426 -24.154  0.00  0.00    +0.059 A 
ATOM      8  C   UNL     1      33.475  -8.303 -22.176  0.00  0.00    +0.254 A 
ATOM      9  C   UNL     1      33.560 -11.529 -24.964  0.00  0.00    +0.013 C 
ATOM     10  C   UNL     1      35.315  -9.381 -25.195  0.00  0.00    +0.018 C 
ATOM     11  C   UNL     1      34.493 -11.490 -26.006  0.00  0.00    +0.058 C 
ATOM     12  C   UNL     1      35.369 -10.416 -26.122  0.00  0.00    +0.013 C 
ATOM     13  H   UNL     1      34.987  -7.631 -23.357  0.00  0.00    +0.169 HD
ENDROOT
BRANCH   4  14
ATOM     14  S   UNL     1      31.376 -11.845 -22.707  0.00  0.00    +0.064 S 
ATOM     15  O   UNL     1      30.476 -11.456 -21.577  0.00  0.00    -0.251 OA
BRANCH  14  16
ATOM     16  C   UNL     1      32.599 -13.054 -22.079  0.00  0.00    +0.084 C 
ATOM     17  C   UNL     1      32.094 -13.677 -20.777  0.00  0.00    +0.014 C 
ATOM     18  C   UNL     1      32.870 -14.120 -23.142  0.00  0.00    +0.014 C 
ATOM     19  C   UNL     1      33.055 -14.747 -20.263  0.00  0.00    +0.001 C 
ATOM     20  C   UNL     1      33.829 -15.190 -22.626  0.00  0.00    +0.001 C 
ATOM     21  C   UNL     1      33.333 -15.809 -21.322  0.00  0.00    +0.000 C 
ENDBRANCH  14  16
ENDBRANCH   4  14
BRANCH   5  22
ATOM     22  C   UNL     1      31.597  -9.271 -20.816  0.00  0.00    +0.032 C 
BRANCH  22  23
ATOM     23  C   UNL     1      32.303  -9.655 -19.524  0.00  0.00    +0.005 C 
ATOM     24  C   UNL     1      31.505 -10.702 -18.762  0.00  0.00    +0.000 C 
ENDBRANCH  22  23
ENDBRANCH   5  22
TORSDOF 4
ENDMDL
MODEL 8
REMARK VINA RESULT:      -7.5      3.920      6.329
REMARK  Name = 9600414
REMARK  4 active torsions:
REMARK  status: ('A' for Active; 'I' for Inactive)
REMARK    1  A    between atoms: C_4  and  S_14
REMARK    2  A    between atoms: C_5  and  C_22
REMARK    3  A    between atoms: S_14  and  C_16
REMARK    4  A    between atoms: C_22  and  C_23
REMARK                            x       y       z     vdW  Elec       q    Type
REMARK                         _______ _______ _______ _____ _____    ______ ____
ROOT
ATOM      1 CL   UNL     1      34.532  -5.165 -27.770  0.00  0.00    -0.082 Cl
ATOM      2  O   UNL     1      30.171  -5.731 -21.107  0.00  0.00    -0.268 OA
ATOM      3  N   UNL     1      30.822  -5.065 -23.188  0.00  0.00    -0.321 N 
ATOM      4  C   UNL     1      33.070  -6.726 -22.971  0.00  0.00    +0.058 A 
ATOM      5  C   UNL     1      32.198  -6.679 -21.939  0.00  0.00    +0.042 A 
ATOM      6  C   UNL     1      32.850  -5.921 -24.195  0.00  0.00    +0.024 A 
ATOM      7  C   UNL     1      31.715  -5.104 -24.264  0.00  0.00    +0.059 A 
ATOM      8  C   UNL     1      30.980  -5.793 -22.033  0.00  0.00    +0.254 A 
ATOM      9  C   UNL     1      33.715  -5.923 -25.302  0.00  0.00    +0.013 C 
ATOM     10  C   UNL     1      31.445  -4.316 -25.390  0.00  0.00    +0.018 C 
ATOM     11  C   UNL     1      33.450  -5.138 -26.430  0.00  0.00    +0.058 C 
ATOM     12  C   UNL     1      32.316  -4.335 -26.474  0.00  0.00    +0.013 C 
ATOM     13  H   UNL     1      30.031  -4.481 -23.263  0.00  0.00    +0.169 HD
ENDROOT
BRANCH   4  14
ATOM     14  S   UNL     1      34.528  -7.776 -22.879  0.00  0.00    +0.064 S 
ATOM     15  O   UNL     1      35.591  -7.036 -23.626  0.00  0.00    -0.251 OA
BRANCH  14  16
ATOM     16  C   UNL     1      33.889  -9.110 -23.958  0.00  0.00    +0.084 C 
ATOM     17  C   UNL     1      35.038  -9.732 -24.752  0.00  0.00    +0.014 C 
ATOM     18  C   UNL     1      33.159 -10.157 -23.115  0.00  0.00    +0.014 C 
ATOM     19  C   UNL     1      34.553 -10.900 -25.608  0.00  0.00    +0.001 C 
ATOM     20  C   UNL     1      32.677 -11.324 -23.972  0.00  0.00    +0.001 C 
ATOM     21  C   UNL     1      33.819 -11.944 -24.772  0.00  0.00    +0.000 C 
ENDBRANCH  14  16
ENDBRANCH   4  14
BRANCH   5  22
ATOM     22  C   UNL     1      32.274  -7.429 -20.632  0.00  0.00    +0.032 C 
BRANCH  22  23
ATOM     23  C   UNL     1      31.701  -8.832 -20.766  0.00  0.00    +0.005 C 
ATOM     24  C   UNL     1      31.945  -9.640 -19.501  0.00  0.00    +0.000 C 
ENDBRANCH  22  23
ENDBRANCH   5  22
TORSDOF 4
ENDMDL
MODEL 9
REMARK VINA RESULT:      -7.4     10.335     13.729
REMARK  Name = 9600414
REMARK  4 active torsions:
REMARK  status: ('A' for Active; 'I' for Inactive)
REMARK    1  A    between atoms: C_4  and  S_14
REMARK    2  A    between atoms: C_5  and  C_22
REMARK    3  A    between atoms: S_14  and  C_16
REMARK    4  A    between atoms: C_22  and  C_23
REMARK                            x       y       z     vdW  Elec       q    Type
REMARK                         _______ _______ _______ _____ _____    ______ ____
ROOT
ATOM      1 CL   UNL     1      34.945 -24.658 -12.415  0.00  0.00    -0.082 Cl
ATOM      2  O   UNL     1      36.361 -21.230 -19.484  0.00  0.00    -0.268 OA
ATOM      3  N   UNL     1      36.721 -21.992 -17.366  0.00  0.00    -0.321 N 
ATOM      4  C   UNL     1      34.075 -22.917 -17.295  0.00  0.00    +0.058 A 
ATOM      5  C   UNL     1      34.515 -22.301 -18.415  0.00  0.00    +0.042 A 
ATOM      6  C   UNL     1      34.964 -23.104 -16.125  0.00  0.00    +0.024 A 
ATOM      7  C   UNL     1      36.279 -22.628 -16.201  0.00  0.00    +0.059 A 
ATOM      8  C   UNL     1      35.935 -21.795 -18.477  0.00  0.00    +0.254 A 
ATOM      9  C   UNL     1      34.571 -23.734 -14.932  0.00  0.00    +0.013 C 
ATOM     10  C   UNL     1      37.174 -22.771 -15.133  0.00  0.00    +0.018 C 
ATOM     11  C   UNL     1      35.461 -23.880 -13.863  0.00  0.00    +0.058 C 
ATOM     12  C   UNL     1      36.762 -23.399 -13.963  0.00  0.00    +0.013 C 
ATOM     13  H   UNL     1      37.651 -21.667 -17.393  0.00  0.00    +0.169 HD
ENDROOT
BRANCH   4  14
ATOM     14  S   UNL     1      32.385 -23.526 -17.200  0.00  0.00    +0.064 S 
ATOM     15  O   UNL     1      31.527 -22.364 -17.587  0.00  0.00    -0.251 OA
BRANCH  14  16
ATOM     16  C   UNL     1      32.332 -23.701 -15.378  0.00  0.00    +0.084 C 
ATOM     17  C   UNL     1      31.591 -22.513 -14.763  0.00  0.00    +0.014 C 
ATOM     18  C   UNL     1      31.673 -25.028 -15.001  0.00  0.00    +0.014 C 
ATOM     19  C   UNL     1      31.460 -22.662 -13.249  0.00  0.00    +0.001 C 
ATOM     20  C   UNL     1      31.542 -25.175 -13.488  0.00  0.00    +0.001 C 
ATOM     21  C   UNL     1      30.809 -23.988 -12.868  0.00  0.00    +0.000 C 
ENDBRANCH  14  16
ENDBRANCH   4  14
BRANCH   5  22
ATOM     22  C   UNL     1      33.744 -22.031 -19.683  0.00  0.00    +0.032 C 
BRANCH  22  23
ATOM     23  C   UNL     1      33.148 -20.632 -19.680  0.00  0.00    +0.005 C 
ATOM     24  C   UNL     1      33.472 -19.902 -20.975  0.00  0.00    +0.000 C 
ENDBRANCH  22  23
ENDBRANCH   5  22
TORSDOF 4
ENDMDL
