MODEL 1
REMARK VINA RESULT:      -6.5      0.000      0.000
REMARK  Name = 80654
REMARK  2 active torsions:
REMARK  status: ('A' for Active; 'I' for Inactive)
REMARK    1  A    between atoms: C_1  and  C_7
REMARK    2  A    between atoms: C_7  and  N_9
REMARK                            x       y       z     vdW  Elec       q    Type
REMARK                         _______ _______ _______ _____ _____    ______ ____
ROOT
ATOM      1  C   UNL     1      35.074 -19.589 -20.918  0.00  0.00    -0.003 C 
ATOM      2  C   UNL     1      33.679 -19.637 -20.904  0.00  0.00    -0.003 C 
ATOM      3  C   UNL     1      35.810 -20.539 -20.211  0.00  0.00    -0.003 C 
ATOM      4  C   UNL     1      33.023 -20.634 -20.183  0.00  0.00    -0.000 C 
ATOM      5  C   UNL     1      35.153 -21.537 -19.491  0.00  0.00    -0.000 C 
ATOM      6  C   UNL     1      33.760 -21.584 -19.477  0.00  0.00    -0.000 C 
ENDROOT
BRANCH   1   7
ATOM      7  C   UNL     1      35.775 -18.523 -21.689  0.00  0.00    +0.117 C 
BRANCH   7   9
ATOM      8  O   UNL     1      35.112 -16.133 -20.123  0.00  0.00    -0.265 OA
ATOM      9  N   UNL     1      34.883 -17.422 -22.057  0.00  0.00    -0.293 N 
ATOM     10  C   UNL     1      34.652 -16.354 -21.235  0.00  0.00    +0.300 C 
ATOM     11  H   UNL     1      34.431 -17.451 -22.931  0.00  0.00    +0.150 HD
ENDBRANCH   7   9
ENDBRANCH   1   7
TORSDOF 2
ENDMDL
MODEL 2
REMARK VINA RESULT:      -6.5      0.045      1.528
REMARK  Name = 80654
REMARK  2 active torsions:
REMARK  status: ('A' for Active; 'I' for Inactive)
REMARK    1  A    between atoms: C_1  and  C_7
REMARK    2  A    between atoms: C_7  and  N_9
REMARK                            x       y       z     vdW  Elec       q    Type
REMARK                         _______ _______ _______ _____ _____    ______ ____
ROOT
ATOM      1  C   UNL     1      35.051 -19.572 -20.933  0.00  0.00    -0.003 C 
ATOM      2  C   UNL     1      35.816 -20.508 -20.235  0.00  0.00    -0.003 C 
ATOM      3  C   UNL     1      33.659 -19.647 -20.903  0.00  0.00    -0.003 C 
ATOM      4  C   UNL     1      35.186 -21.519 -19.509  0.00  0.00    -0.000 C 
ATOM      5  C   UNL     1      33.030 -20.658 -20.176  0.00  0.00    -0.000 C 
ATOM      6  C   UNL     1      33.794 -21.594 -19.478  0.00  0.00    -0.000 C 
ENDROOT
BRANCH   1   7
ATOM      7  C   UNL     1      35.725 -18.492 -21.710  0.00  0.00    +0.117 C 
BRANCH   7   9
ATOM      8  O   UNL     1      35.114 -16.109 -20.112  0.00  0.00    -0.265 OA
ATOM      9  N   UNL     1      34.815 -17.393 -22.039  0.00  0.00    -0.293 N 
ATOM     10  C   UNL     1      34.613 -16.329 -21.206  0.00  0.00    +0.300 C 
ATOM     11  H   UNL     1      34.330 -17.421 -22.896  0.00  0.00    +0.150 HD
ENDBRANCH   7   9
ENDBRANCH   1   7
TORSDOF 2
ENDMDL
MODEL 3
REMARK VINA RESULT:      -6.5      1.356      1.356
REMARK  Name = 80654
REMARK  2 active torsions:
REMARK  status: ('A' for Active; 'I' for Inactive)
REMARK    1  A    between atoms: C_1  and  C_7
REMARK    2  A    between atoms: C_7  and  N_9
REMARK                            x       y       z     vdW  Elec       q    Type
REMARK                         _______ _______ _______ _____ _____    ______ ____
ROOT
ATOM      1  C   UNL     1      35.079 -19.485 -21.065  0.00  0.00    -0.003 C 
ATOM      2  C   UNL     1      33.688 -19.376 -21.055  0.00  0.00    -0.003 C 
ATOM      3  C   UNL     1      35.703 -20.503 -20.345  0.00  0.00    -0.003 C 
ATOM      4  C   UNL     1      32.923 -20.284 -20.325  0.00  0.00    -0.000 C 
ATOM      5  C   UNL     1      34.937 -21.412 -19.615  0.00  0.00    -0.000 C 
ATOM      6  C   UNL     1      33.547 -21.303 -19.605  0.00  0.00    -0.000 C 
ENDROOT
BRANCH   1   7
ATOM      7  C   UNL     1      35.897 -18.514 -21.847  0.00  0.00    +0.117 C 
BRANCH   7   9
ATOM      8  O   UNL     1      35.328 -15.933 -23.120  0.00  0.00    -0.265 OA
ATOM      9  N   UNL     1      35.347 -18.268 -23.181  0.00  0.00    -0.293 N 
ATOM     10  C   UNL     1      35.125 -17.010 -23.666  0.00  0.00    +0.300 C 
ATOM     11  H   UNL     1      35.128 -19.039 -23.752  0.00  0.00    +0.150 HD
ENDBRANCH   7   9
ENDBRANCH   1   7
TORSDOF 2
ENDMDL
MODEL 4
REMARK VINA RESULT:      -6.4      3.720      5.183
REMARK  Name = 80654
REMARK  2 active torsions:
REMARK  status: ('A' for Active; 'I' for Inactive)
REMARK    1  A    between atoms: C_1  and  C_7
REMARK    2  A    between atoms: C_7  and  N_9
REMARK                            x       y       z     vdW  Elec       q    Type
REMARK                         _______ _______ _______ _____ _____    ______ ____
ROOT
ATOM      1  C   UNL     1      34.144 -21.394 -19.563  0.00  0.00    -0.003 C 
ATOM      2  C   UNL     1      35.426 -21.012 -19.959  0.00  0.00    -0.003 C 
ATOM      3  C   UNL     1      33.034 -20.682 -20.016  0.00  0.00    -0.003 C 
ATOM      4  C   UNL     1      35.597 -19.918 -20.807  0.00  0.00    -0.000 C 
ATOM      5  C   UNL     1      33.205 -19.588 -20.865  0.00  0.00    -0.000 C 
ATOM      6  C   UNL     1      34.487 -19.207 -21.261  0.00  0.00    -0.000 C 
ENDROOT
BRANCH   1   7
ATOM      7  C   UNL     1      33.961 -22.564 -18.656  0.00  0.00    +0.117 C 
BRANCH   7   9
ATOM      8  O   UNL     1      33.110 -23.536 -16.023  0.00  0.00    -0.265 OA
ATOM      9  N   UNL     1      32.601 -22.648 -18.122  0.00  0.00    -0.293 N 
ATOM     10  C   UNL     1      32.329 -23.123 -16.870  0.00  0.00    +0.300 C 
ATOM     11  H   UNL     1      31.852 -22.349 -18.687  0.00  0.00    +0.150 HD
ENDBRANCH   7   9
ENDBRANCH   1   7
TORSDOF 2
ENDMDL
MODEL 5
REMARK VINA RESULT:      -6.2      3.390      4.698
REMARK  Name = 80654
REMARK  2 active torsions:
REMARK  status: ('A' for Active; 'I' for Inactive)
REMARK    1  A    between atoms: C_1  and  C_7
REMARK    2  A    between atoms: C_7  and  N_9
REMARK                            x       y       z     vdW  Elec       q    Type
REMARK                         _______ _______ _______ _____ _____    ______ ____
ROOT
ATOM      1  C   UNL     1      34.815 -21.091 -19.731  0.00  0.00    -0.003 C 
ATOM      2  C   UNL     1      35.645 -20.249 -20.472  0.00  0.00    -0.003 C 
ATOM      3  C   UNL     1      33.430 -20.950 -19.809  0.00  0.00    -0.003 C 
ATOM      4  C   UNL     1      35.088 -19.267 -21.291  0.00  0.00    -0.000 C 
ATOM      5  C   UNL     1      32.873 -19.969 -20.630  0.00  0.00    -0.000 C 
ATOM      6  C   UNL     1      33.702 -19.127 -21.371  0.00  0.00    -0.000 C 
ENDROOT
BRANCH   1   7
ATOM      7  C   UNL     1      35.410 -22.141 -18.855  0.00  0.00    +0.117 C 
BRANCH   7   9
ATOM      8  O   UNL     1      36.416 -23.098 -16.271  0.00  0.00    -0.265 OA
ATOM      9  N   UNL     1      36.560 -21.647 -18.095  0.00  0.00    -0.293 N 
ATOM     10  C   UNL     1      36.932 -22.179 -16.893  0.00  0.00    +0.300 C 
ATOM     11  H   UNL     1      37.087 -20.902 -18.465  0.00  0.00    +0.150 HD
ENDBRANCH   7   9
ENDBRANCH   1   7
TORSDOF 2
ENDMDL
MODEL 6
REMARK VINA RESULT:      -6.0      2.743      4.632
REMARK  Name = 80654
REMARK  2 active torsions:
REMARK  status: ('A' for Active; 'I' for Inactive)
REMARK    1  A    between atoms: C_1  and  C_7
REMARK    2  A    between atoms: C_7  and  N_9
REMARK                            x       y       z     vdW  Elec       q    Type
REMARK                         _______ _______ _______ _____ _____    ______ ____
ROOT
ATOM      1  C   UNL     1      35.280 -18.230 -22.584  0.00  0.00    -0.003 C 
ATOM      2  C   UNL     1      34.891 -19.125 -23.582  0.00  0.00    -0.003 C 
ATOM      3  C   UNL     1      35.261 -16.858 -22.832  0.00  0.00    -0.003 C 
ATOM      4  C   UNL     1      34.484 -18.646 -24.826  0.00  0.00    -0.000 C 
ATOM      5  C   UNL     1      34.852 -16.379 -24.076  0.00  0.00    -0.000 C 
ATOM      6  C   UNL     1      34.463 -17.273 -25.074  0.00  0.00    -0.000 C 
ENDROOT
BRANCH   1   7
ATOM      7  C   UNL     1      35.717 -18.743 -21.253  0.00  0.00    +0.117 C 
BRANCH   7   9
ATOM      8  O   UNL     1      36.546 -20.616 -19.153  0.00  0.00    -0.265 OA
ATOM      9  N   UNL     1      35.172 -20.070 -20.961  0.00  0.00    -0.293 N 
ATOM     10  C   UNL     1      35.646 -20.854 -19.947  0.00  0.00    +0.300 C 
ATOM     11  H   UNL     1      34.433 -20.410 -21.516  0.00  0.00    +0.150 HD
ENDBRANCH   7   9
ENDBRANCH   1   7
TORSDOF 2
ENDMDL
MODEL 7
REMARK VINA RESULT:      -6.0      3.459      4.343
REMARK  Name = 80654
REMARK  2 active torsions:
REMARK  status: ('A' for Active; 'I' for Inactive)
REMARK    1  A    between atoms: C_1  and  C_7
REMARK    2  A    between atoms: C_7  and  N_9
REMARK                            x       y       z     vdW  Elec       q    Type
REMARK                         _______ _______ _______ _____ _____    ______ ____
ROOT
ATOM      1  C   UNL     1      34.803 -17.371 -23.611  0.00  0.00    -0.003 C 
ATOM      2  C   UNL     1      35.019 -16.651 -22.435  0.00  0.00    -0.003 C 
ATOM      3  C   UNL     1      34.764 -18.764 -23.577  0.00  0.00    -0.003 C 
ATOM      4  C   UNL     1      35.195 -17.325 -21.228  0.00  0.00    -0.000 C 
ATOM      5  C   UNL     1      34.940 -19.439 -22.369  0.00  0.00    -0.000 C 
ATOM      6  C   UNL     1      35.155 -18.719 -21.194  0.00  0.00    -0.000 C 
ENDROOT
BRANCH   1   7
ATOM      7  C   UNL     1      34.615 -16.649 -24.902  0.00  0.00    +0.117 C 
BRANCH   7   9
ATOM      8  O   UNL     1      33.607 -14.910 -27.039  0.00  0.00    -0.265 OA
ATOM      9  N   UNL     1      33.634 -15.567 -24.798  0.00  0.00    -0.293 N 
ATOM     10  C   UNL     1      33.242 -14.822 -25.874  0.00  0.00    +0.300 C 
ATOM     11  H   UNL     1      33.240 -15.369 -23.918  0.00  0.00    +0.150 HD
ENDBRANCH   7   9
ENDBRANCH   1   7
TORSDOF 2
ENDMDL
MODEL 8
REMARK VINA RESULT:      -5.9      8.086      8.968
REMARK  Name = 80654
REMARK  2 active torsions:
REMARK  status: ('A' for Active; 'I' for Inactive)
REMARK    1  A    between atoms: C_1  and  C_7
REMARK    2  A    between atoms: C_7  and  N_9
REMARK                            x       y       z     vdW  Elec       q    Type
REMARK                         _______ _______ _______ _____ _____    ______ ____
ROOT
ATOM      1  C   UNL     1      29.605 -24.060 -15.720  0.00  0.00    -0.003 C 
ATOM      2  C   UNL     1      29.743 -25.003 -14.701  0.00  0.00    -0.003 C 
ATOM      3  C   UNL     1      30.516 -23.009 -15.825  0.00  0.00    -0.003 C 
ATOM      4  C   UNL     1      30.792 -24.894 -13.788  0.00  0.00    -0.000 C 
ATOM      5  C   UNL     1      31.565 -22.901 -14.912  0.00  0.00    -0.000 C 
ATOM      6  C   UNL     1      31.703 -23.844 -13.894  0.00  0.00    -0.000 C 
ENDROOT
BRANCH   1   7
ATOM      7  C   UNL     1      28.484 -24.176 -16.696  0.00  0.00    +0.117 C 
BRANCH   7   9
ATOM      8  O   UNL     1      26.399 -22.316 -15.804  0.00  0.00    -0.265 OA
ATOM      9  N   UNL     1      28.116 -22.885 -17.280  0.00  0.00    -0.293 N 
ATOM     10  C   UNL     1      27.119 -22.103 -16.770  0.00  0.00    +0.300 C 
ATOM     11  H   UNL     1      28.609 -22.567 -18.071  0.00  0.00    +0.150 HD
ENDBRANCH   7   9
ENDBRANCH   1   7
TORSDOF 2
ENDMDL
MODEL 9
REMARK VINA RESULT:      -5.8      4.440      5.650
REMARK  Name = 80654
REMARK  2 active torsions:
REMARK  status: ('A' for Active; 'I' for Inactive)
REMARK    1  A    between atoms: C_1  and  C_7
REMARK    2  A    between atoms: C_7  and  N_9
REMARK                            x       y       z     vdW  Elec       q    Type
REMARK                         _______ _______ _______ _____ _____    ______ ____
ROOT
ATOM      1  C   UNL     1      34.272 -15.578 -22.423  0.00  0.00    -0.003 C 
ATOM      2  C   UNL     1      33.864 -15.701 -21.095  0.00  0.00    -0.003 C 
ATOM      3  C   UNL     1      33.733 -14.575 -23.228  0.00  0.00    -0.003 C 
ATOM      4  C   UNL     1      32.916 -14.821 -20.573  0.00  0.00    -0.000 C 
ATOM      5  C   UNL     1      32.786 -13.695 -22.705  0.00  0.00    -0.000 C 
ATOM      6  C   UNL     1      32.378 -13.817 -21.377  0.00  0.00    -0.000 C 
ENDROOT
BRANCH   1   7
ATOM      7  C   UNL     1      35.285 -16.520 -22.981  0.00  0.00    +0.117 C 
BRANCH   7   9
ATOM      8  O   UNL     1      34.826 -16.821 -25.863  0.00  0.00    -0.265 OA
ATOM      9  N   UNL     1      34.671 -17.647 -23.684  0.00  0.00    -0.293 N 
ATOM     10  C   UNL     1      34.511 -17.671 -25.041  0.00  0.00    +0.300 C 
ATOM     11  H   UNL     1      34.361 -18.420 -23.158  0.00  0.00    +0.150 HD
ENDBRANCH   7   9
ENDBRANCH   1   7
TORSDOF 2
ENDMDL
