MODEL 1
REMARK VINA RESULT:     -12.2      0.000      0.000
REMARK  Name = 46937081
REMARK  6 active torsions:
REMARK  status: ('A' for Active; 'I' for Inactive)
REMARK    1  A    between atoms: N_1  and  C_10
REMARK    2  A    between atoms: C_4  and  C_16
REMARK    3  A    between atoms: C_9  and  C_31
REMARK    4  A    between atoms: C_16  and  C_17
REMARK    5  A    between atoms: C_18  and  N_23
REMARK    6  A    between atoms: C_31  and  N_32
REMARK                            x       y       z     vdW  Elec       q    Type
REMARK                         _______ _______ _______ _____ _____    ______ ____
ROOT
ATOM      1  N   UNL     1      34.096 -23.322 -15.786  0.00  0.00    -0.267 N 
ATOM      2  N   UNL     1      35.207 -23.593 -13.662  0.00  0.00    -0.341 NA
ATOM      3  N   UNL     1      37.584 -23.073 -13.761  0.00  0.00    -0.188 NA
ATOM      4  C   UNL     1      34.453 -22.946 -17.054  0.00  0.00    +0.035 C 
ATOM      5  C   UNL     1      35.197 -23.285 -14.971  0.00  0.00    +0.199 C 
ATOM      6  C   UNL     1      36.282 -22.876 -15.736  0.00  0.00    +0.066 C 
ATOM      7  C   UNL     1      35.802 -22.663 -17.054  0.00  0.00    +0.016 C 
ATOM      8  C   UNL     1      37.508 -22.776 -15.079  0.00  0.00    +0.114 C 
ATOM      9  C   UNL     1      36.445 -23.458 -13.143  0.00  0.00    +0.042 C 
ENDROOT
BRANCH   1  10
ATOM     10  C   UNL     1      32.700 -23.721 -15.344  0.00  0.00    +0.079 C 
ATOM     11  C   UNL     1      32.730 -24.811 -14.259  0.00  0.00    +0.020 C 
ATOM     12  C   UNL     1      31.877 -22.506 -14.881  0.00  0.00    +0.020 C 
ATOM     13  C   UNL     1      31.319 -25.211 -13.829  0.00  0.00    +0.002 C 
ATOM     14  C   UNL     1      30.470 -22.915 -14.449  0.00  0.00    +0.002 C 
ATOM     15  C   UNL     1      30.504 -24.003 -13.379  0.00  0.00    +0.000 C 
ENDBRANCH   1  10
BRANCH   4  16
ATOM     16  C   UNL     1      33.450 -22.885 -18.190  0.00  0.00    +0.068 C 
BRANCH  16  17
ATOM     17  C   UNL     1      33.713 -21.792 -19.171  0.00  0.00    -0.016 C 
ATOM     18  C   UNL     1      34.205 -19.750 -21.007  0.00  0.00    +0.048 C 
ATOM     19  C   UNL     1      35.003 -21.593 -19.664  0.00  0.00    -0.003 C 
ATOM     20  C   UNL     1      32.670 -20.971 -19.596  0.00  0.00    -0.003 C 
ATOM     21  C   UNL     1      35.249 -20.573 -20.582  0.00  0.00    +0.014 C 
ATOM     22  C   UNL     1      32.915 -19.949 -20.514  0.00  0.00    +0.014 C 
BRANCH  18  23
ATOM     23  N   UNL     1      34.451 -18.726 -21.928  0.00  0.00    -0.312 N 
ATOM     24  N   UNL     1      35.203 -16.646 -23.736  0.00  0.00    +0.388 N 
ATOM     25  C   UNL     1      34.909 -19.059 -23.281  0.00  0.00    +0.068 C 
ATOM     26  C   UNL     1      34.890 -17.425 -21.411  0.00  0.00    +0.068 C 
ATOM     27  C   UNL     1      34.612 -16.320 -22.432  0.00  0.00    -0.056 C 
ATOM     28  C   UNL     1      34.632 -17.901 -24.242  0.00  0.00    -0.056 C 
ATOM     29  C   UNL     1      34.978 -15.560 -24.688  0.00  0.00    -0.101 C 
ATOM     30  H   UNL     1      36.209 -16.765 -23.622  0.00  0.00    -0.080 HD
ENDBRANCH  18  23
ENDBRANCH  16  17
ENDBRANCH   4  16
BRANCH   9  31
ATOM     31  C   UNL     1      36.575 -23.776 -11.690  0.00  0.00    +0.030 C 
BRANCH  31  32
ATOM     32  N   UNL     1      37.966 -23.989 -11.290  0.00  0.00    +0.390 N 
ATOM     33  H   UNL     1      38.224 -23.304 -10.578  0.00  0.00    -0.088 HD
ATOM     34  H   UNL     1      38.574 -23.879 -12.102  0.00  0.00    -0.088 HD
ATOM     35  H   UNL     1      38.071 -24.930 -10.912  0.00  0.00    -0.088 HD
ENDBRANCH  31  32
ENDBRANCH   9  31
TORSDOF 6
ENDMDL
MODEL 2
REMARK VINA RESULT:     -11.3      1.936      4.099
REMARK  Name = 46937081
REMARK  6 active torsions:
REMARK  status: ('A' for Active; 'I' for Inactive)
REMARK    1  A    between atoms: N_1  and  C_10
REMARK    2  A    between atoms: C_4  and  C_16
REMARK    3  A    between atoms: C_9  and  C_31
REMARK    4  A    between atoms: C_16  and  C_17
REMARK    5  A    between atoms: C_18  and  N_23
REMARK    6  A    between atoms: C_31  and  N_32
REMARK                            x       y       z     vdW  Elec       q    Type
REMARK                         _______ _______ _______ _____ _____    ______ ____
ROOT
ATOM      1  N   UNL     1      34.108 -23.136 -16.907  0.00  0.00    -0.267 N 
ATOM      2  N   UNL     1      32.837 -23.700 -14.935  0.00  0.00    -0.341 NA
ATOM      3  N   UNL     1      30.457 -23.250 -15.180  0.00  0.00    -0.188 NA
ATOM      4  C   UNL     1      33.841 -22.623 -18.149  0.00  0.00    +0.035 C 
ATOM      5  C   UNL     1      32.943 -23.235 -16.193  0.00  0.00    +0.199 C 
ATOM      6  C   UNL     1      31.908 -22.774 -16.997  0.00  0.00    +0.066 C 
ATOM      7  C   UNL     1      32.485 -22.389 -18.234  0.00  0.00    +0.016 C 
ATOM      8  C   UNL     1      30.628 -22.794 -16.442  0.00  0.00    +0.114 C 
ATOM      9  C   UNL     1      31.556 -23.669 -14.514  0.00  0.00    +0.042 C 
ENDROOT
BRANCH   1  10
ATOM     10  C   UNL     1      35.479 -23.535 -16.394  0.00  0.00    +0.079 C 
ATOM     11  C   UNL     1      36.223 -22.346 -15.761  0.00  0.00    +0.020 C 
ATOM     12  C   UNL     1      35.402 -24.720 -15.415  0.00  0.00    +0.020 C 
ATOM     13  C   UNL     1      37.607 -22.757 -15.258  0.00  0.00    +0.002 C 
ATOM     14  C   UNL     1      36.788 -25.121 -14.912  0.00  0.00    +0.002 C 
ATOM     15  C   UNL     1      37.527 -23.937 -14.294  0.00  0.00    +0.000 C 
ENDBRANCH   1  10
BRANCH   4  16
ATOM     16  C   UNL     1      34.930 -22.394 -19.179  0.00  0.00    +0.068 C 
BRANCH  16  17
ATOM     17  C   UNL     1      34.827 -21.086 -19.888  0.00  0.00    -0.016 C 
ATOM     18  C   UNL     1      34.633 -18.638 -21.211  0.00  0.00    +0.048 C 
ATOM     19  C   UNL     1      33.573 -20.559 -20.200  0.00  0.00    -0.003 C 
ATOM     20  C   UNL     1      35.982 -20.389 -20.236  0.00  0.00    -0.003 C 
ATOM     21  C   UNL     1      33.476 -19.335 -20.862  0.00  0.00    +0.014 C 
ATOM     22  C   UNL     1      35.886 -19.165 -20.899  0.00  0.00    +0.014 C 
BRANCH  18  23
ATOM     23  N   UNL     1      34.536 -17.410 -21.875  0.00  0.00    -0.312 N 
ATOM     24  N   UNL     1      34.587 -14.863 -23.168  0.00  0.00    +0.388 N 
ATOM     25  C   UNL     1      34.952 -17.306 -23.278  0.00  0.00    +0.068 C 
ATOM     26  C   UNL     1      34.672 -16.184 -21.080  0.00  0.00    +0.068 C 
ATOM     27  C   UNL     1      34.041 -14.997 -21.813  0.00  0.00    -0.056 C 
ATOM     28  C   UNL     1      34.314 -16.083 -23.939  0.00  0.00    -0.056 C 
ATOM     29  C   UNL     1      34.018 -13.695 -23.838  0.00  0.00    -0.101 C 
ATOM     30  H   UNL     1      35.597 -14.734 -23.106  0.00  0.00    -0.080 HD
ENDBRANCH  18  23
ENDBRANCH  16  17
ENDBRANCH   4  16
BRANCH   9  31
ATOM     31  C   UNL     1      31.320 -24.163 -13.125  0.00  0.00    +0.030 C 
BRANCH  31  32
ATOM     32  N   UNL     1      30.144 -25.030 -13.036  0.00  0.00    +0.390 N 
ATOM     33  H   UNL     1      29.307 -24.491 -13.262  0.00  0.00    -0.088 HD
ATOM     34  H   UNL     1      30.065 -25.400 -12.090  0.00  0.00    -0.088 HD
ATOM     35  H   UNL     1      30.240 -25.802 -13.697  0.00  0.00    -0.088 HD
ENDBRANCH  31  32
ENDBRANCH   9  31
TORSDOF 6
ENDMDL
MODEL 3
REMARK VINA RESULT:     -10.7      5.468     12.831
REMARK  Name = 46937081
REMARK  6 active torsions:
REMARK  status: ('A' for Active; 'I' for Inactive)
REMARK    1  A    between atoms: N_1  and  C_10
REMARK    2  A    between atoms: C_4  and  C_16
REMARK    3  A    between atoms: C_9  and  C_31
REMARK    4  A    between atoms: C_16  and  C_17
REMARK    5  A    between atoms: C_18  and  N_23
REMARK    6  A    between atoms: C_31  and  N_32
REMARK                            x       y       z     vdW  Elec       q    Type
REMARK                         _______ _______ _______ _____ _____    ______ ____
ROOT
ATOM      1  N   UNL     1      32.575 -10.980 -22.651  0.00  0.00    -0.267 N 
ATOM      2  N   UNL     1      32.618  -8.880 -21.464  0.00  0.00    -0.341 NA
ATOM      3  N   UNL     1      31.612  -9.020 -19.251  0.00  0.00    -0.188 NA
ATOM      4  C   UNL     1      32.129 -12.252 -22.406  0.00  0.00    +0.035 C 
ATOM      5  C   UNL     1      32.313 -10.186 -21.566  0.00  0.00    +0.199 C 
ATOM      6  C   UNL     1      31.685 -10.969 -20.605  0.00  0.00    +0.066 C 
ATOM      7  C   UNL     1      31.572 -12.275 -21.145  0.00  0.00    +0.016 C 
ATOM      8  C   UNL     1      31.332 -10.334 -19.414  0.00  0.00    +0.114 C 
ATOM      9  C   UNL     1      32.228  -8.383 -20.272  0.00  0.00    +0.042 C 
ENDROOT
BRANCH   1  10
ATOM     10  C   UNL     1      33.255 -10.514 -23.925  0.00  0.00    +0.079 C 
ATOM     11  C   UNL     1      34.268  -9.387 -23.657  0.00  0.00    +0.020 C 
ATOM     12  C   UNL     1      33.917 -11.680 -24.680  0.00  0.00    +0.020 C 
ATOM     13  C   UNL     1      34.938  -8.919 -24.947  0.00  0.00    +0.002 C 
ATOM     14  C   UNL     1      34.590 -11.203 -25.966  0.00  0.00    +0.002 C 
ATOM     15  C   UNL     1      35.586 -10.079 -25.697  0.00  0.00    +0.000 C 
ENDBRANCH   1  10
BRANCH   4  16
ATOM     16  C   UNL     1      32.276 -13.369 -23.421  0.00  0.00    +0.068 C 
BRANCH  16  17
ATOM     17  C   UNL     1      32.903 -14.606 -22.873  0.00  0.00    -0.016 C 
ATOM     18  C   UNL     1      34.079 -16.919 -21.848  0.00  0.00    +0.048 C 
ATOM     19  C   UNL     1      33.809 -15.331 -23.648  0.00  0.00    -0.003 C 
ATOM     20  C   UNL     1      32.586 -15.037 -21.586  0.00  0.00    -0.003 C 
ATOM     21  C   UNL     1      34.396 -16.487 -23.136  0.00  0.00    +0.014 C 
ATOM     22  C   UNL     1      33.173 -16.194 -21.072  0.00  0.00    +0.014 C 
BRANCH  18  23
ATOM     23  N   UNL     1      34.668 -18.079 -21.333  0.00  0.00    -0.312 N 
ATOM     24  N   UNL     1      35.831 -20.556 -20.515  0.00  0.00    +0.388 N 
ATOM     25  C   UNL     1      36.097 -18.326 -21.548  0.00  0.00    +0.068 C 
ATOM     26  C   UNL     1      33.830 -19.276 -21.198  0.00  0.00    +0.068 C 
ATOM     27  C   UNL     1      34.437 -20.244 -20.180  0.00  0.00    -0.056 C 
ATOM     28  C   UNL     1      36.631 -19.325 -20.519  0.00  0.00    -0.056 C 
ATOM     29  C   UNL     1      36.383 -21.523 -19.566  0.00  0.00    -0.101 C 
ATOM     30  H   UNL     1      35.862 -20.971 -21.445  0.00  0.00    -0.080 HD
ENDBRANCH  18  23
ENDBRANCH  16  17
ENDBRANCH   4  16
BRANCH   9  31
ATOM     31  C   UNL     1      32.517  -6.936 -20.049  0.00  0.00    +0.030 C 
BRANCH  31  32
ATOM     32  N   UNL     1      31.897  -6.083 -21.063  0.00  0.00    +0.390 N 
ATOM     33  H   UNL     1      32.625  -5.651 -21.635  0.00  0.00    -0.088 HD
ATOM     34  H   UNL     1      31.348  -5.355 -20.607  0.00  0.00    -0.088 HD
ATOM     35  H   UNL     1      31.288  -6.647 -21.656  0.00  0.00    -0.088 HD
ENDBRANCH  31  32
ENDBRANCH   9  31
TORSDOF 6
ENDMDL
MODEL 4
REMARK VINA RESULT:      -9.4      8.790     13.895
REMARK  Name = 46937081
REMARK  6 active torsions:
REMARK  status: ('A' for Active; 'I' for Inactive)
REMARK    1  A    between atoms: N_1  and  C_10
REMARK    2  A    between atoms: C_4  and  C_16
REMARK    3  A    between atoms: C_9  and  C_31
REMARK    4  A    between atoms: C_16  and  C_17
REMARK    5  A    between atoms: C_18  and  N_23
REMARK    6  A    between atoms: C_31  and  N_32
REMARK                            x       y       z     vdW  Elec       q    Type
REMARK                         _______ _______ _______ _____ _____    ______ ____
ROOT
ATOM      1  N   UNL     1      33.717 -12.923 -23.753  0.00  0.00    -0.267 N 
ATOM      2  N   UNL     1      33.376 -15.047 -24.844  0.00  0.00    -0.341 NA
ATOM      3  N   UNL     1      33.277 -14.864 -27.269  0.00  0.00    -0.188 NA
ATOM      4  C   UNL     1      33.875 -11.619 -24.144  0.00  0.00    +0.035 C 
ATOM      5  C   UNL     1      33.554 -13.714 -24.859  0.00  0.00    +0.199 C 
ATOM      6  C   UNL     1      33.609 -12.898 -25.982  0.00  0.00    +0.066 C 
ATOM      7  C   UNL     1      33.812 -11.572 -25.520  0.00  0.00    +0.016 C 
ATOM      8  C   UNL     1      33.461 -13.524 -27.219  0.00  0.00    +0.114 C 
ATOM      9  C   UNL     1      33.246 -15.533 -26.095  0.00  0.00    +0.042 C 
ENDROOT
BRANCH   1  10
ATOM     10  C   UNL     1      33.721 -13.421 -22.320  0.00  0.00    +0.079 C 
ATOM     11  C   UNL     1      32.295 -13.594 -21.769  0.00  0.00    +0.020 C 
ATOM     12  C   UNL     1      34.532 -14.719 -22.167  0.00  0.00    +0.020 C 
ATOM     13  C   UNL     1      32.311 -14.086 -20.322  0.00  0.00    +0.002 C 
ATOM     14  C   UNL     1      34.539 -15.207 -20.719  0.00  0.00    +0.002 C 
ATOM     15  C   UNL     1      33.123 -15.369 -20.173  0.00  0.00    +0.000 C 
ENDBRANCH   1  10
BRANCH   4  16
ATOM     16  C   UNL     1      34.078 -10.496 -23.144  0.00  0.00    +0.068 C 
BRANCH  16  17
ATOM     17  C   UNL     1      33.584  -9.170 -23.616  0.00  0.00    -0.016 C 
ATOM     18  C   UNL     1      32.661  -6.690 -24.500  0.00  0.00    +0.048 C 
ATOM     19  C   UNL     1      34.491  -8.199 -24.041  0.00  0.00    -0.003 C 
ATOM     20  C   UNL     1      32.216  -8.901 -23.633  0.00  0.00    -0.003 C 
ATOM     21  C   UNL     1      34.030  -6.960 -24.483  0.00  0.00    +0.014 C 
ATOM     22  C   UNL     1      31.754  -7.661 -24.075  0.00  0.00    +0.014 C 
BRANCH  18  23
ATOM     23  N   UNL     1      32.198  -5.447 -24.943  0.00  0.00    -0.312 N 
ATOM     24  N   UNL     1      31.415  -2.800 -25.678  0.00  0.00    +0.388 N 
ATOM     25  C   UNL     1      32.934  -4.726 -25.987  0.00  0.00    +0.068 C 
ATOM     26  C   UNL     1      31.459  -4.607 -23.993  0.00  0.00    +0.068 C 
ATOM     27  C   UNL     1      30.603  -3.580 -24.737  0.00  0.00    -0.056 C 
ATOM     28  C   UNL     1      32.031  -3.694 -26.666  0.00  0.00    -0.056 C 
ATOM     29  C   UNL     1      30.598  -1.786 -26.343  0.00  0.00    -0.101 C 
ATOM     30  H   UNL     1      32.153  -2.323 -25.160  0.00  0.00    -0.080 HD
ENDBRANCH  18  23
ENDBRANCH  16  17
ENDBRANCH   4  16
BRANCH   9  31
ATOM     31  C   UNL     1      33.042 -17.008 -26.198  0.00  0.00    +0.030 C 
BRANCH  31  32
ATOM     32  N   UNL     1      34.053 -17.762 -25.456  0.00  0.00    +0.390 N 
ATOM     33  H   UNL     1      33.634 -18.614 -25.080  0.00  0.00    -0.088 HD
ATOM     34  H   UNL     1      34.407 -17.192 -24.688  0.00  0.00    -0.088 HD
ATOM     35  H   UNL     1      34.821 -18.007 -26.080  0.00  0.00    -0.088 HD
ENDBRANCH  31  32
ENDBRANCH   9  31
TORSDOF 6
ENDMDL
