MODEL 1
REMARK VINA RESULT:      -8.7      0.000      0.000
REMARK  Name = 24820112
REMARK  7 active torsions:
REMARK  status: ('A' for Active; 'I' for Inactive)
REMARK    1  A    between atoms: N_2  and  C_7
REMARK    2  A    between atoms: N_3  and  C_15
REMARK    3  A    between atoms: C_7  and  C_8
REMARK    4  A    between atoms: C_8  and  O_9
REMARK    5  A    between atoms: C_8  and  C_12
REMARK    6  A    between atoms: C_12  and  O_13
REMARK    7  A    between atoms: C_15  and  C_16
REMARK                            x       y       z     vdW  Elec       q    Type
REMARK                         _______ _______ _______ _____ _____    ______ ____
ROOT
ATOM      1  O   UNL     1      32.699 -23.468 -15.935  0.00  0.00    -0.253 OA
ATOM      2  N   UNL     1      30.558 -22.990 -16.690  0.00  0.00    -0.286 N 
ATOM      3  N   UNL     1      32.363 -22.585 -18.055  0.00  0.00    -0.285 N 
ATOM      4  C   UNL     1      31.944 -23.052 -16.813  0.00  0.00    +0.301 C 
ATOM      5  H   UNL     1      30.034 -22.640 -17.447  0.00  0.00    +0.151 HD
ATOM      6  H   UNL     1      31.680 -22.271 -18.693  0.00  0.00    +0.151 HD
ENDROOT
BRANCH   2   7
ATOM      7  C   UNL     1      29.858 -23.413 -15.501  0.00  0.00    +0.132 C 
BRANCH   7   8
ATOM      8  C   UNL     1      28.392 -22.995 -15.533  0.00  0.00    +0.229 C 
BRANCH   8   9
ATOM      9  O   UNL     1      28.281 -21.690 -14.982  0.00  0.00    -0.373 OA
ATOM     10  H   UNL     1      28.918 -21.588 -14.258  0.00  0.00    +0.211 HD
ENDBRANCH   8   9
BRANCH   8  12
ATOM     11  O   UNL     1      27.739 -23.907 -17.694  0.00  0.00    -0.248 OA
ATOM     12  C   UNL     1      27.872 -22.946 -16.952  0.00  0.00    +0.343 C 
BRANCH  12  13
ATOM     13  O   UNL     1      27.590 -21.670 -17.319  0.00  0.00    -0.478 OA
ATOM     14  H   UNL     1      27.488 -21.006 -16.664  0.00  0.00    +0.295 HD
ENDBRANCH  12  13
ENDBRANCH   8  12
ENDBRANCH   7   8
ENDBRANCH   2   7
BRANCH   3  15
ATOM     15  C   UNL     1      33.750 -22.535 -18.455  0.00  0.00    +0.118 C 
BRANCH  15  16
ATOM     16  C   UNL     1      34.016 -21.425 -19.430  0.00  0.00    -0.003 C 
ATOM     17  C   UNL     1      35.323 -21.140 -19.823  0.00  0.00    -0.003 C 
ATOM     18  C   UNL     1      32.954 -20.679 -19.944  0.00  0.00    -0.003 C 
ATOM     19  C   UNL     1      35.570 -20.108 -20.729  0.00  0.00    -0.000 C 
ATOM     20  C   UNL     1      33.201 -19.648 -20.849  0.00  0.00    -0.000 C 
ATOM     21  C   UNL     1      34.509 -19.362 -21.243  0.00  0.00    -0.000 C 
ENDBRANCH  15  16
ENDBRANCH   3  15
TORSDOF 7
ENDMDL
MODEL 2
REMARK VINA RESULT:      -8.1      4.226      5.880
REMARK  Name = 24820112
REMARK  7 active torsions:
REMARK  status: ('A' for Active; 'I' for Inactive)
REMARK    1  A    between atoms: N_2  and  C_7
REMARK    2  A    between atoms: N_3  and  C_15
REMARK    3  A    between atoms: C_7  and  C_8
REMARK    4  A    between atoms: C_8  and  O_9
REMARK    5  A    between atoms: C_8  and  C_12
REMARK    6  A    between atoms: C_12  and  O_13
REMARK    7  A    between atoms: C_15  and  C_16
REMARK                            x       y       z     vdW  Elec       q    Type
REMARK                         _______ _______ _______ _____ _____    ______ ____
ROOT
ATOM      1  O   UNL     1      35.336 -24.662 -16.033  0.00  0.00    -0.253 OA
ATOM      2  N   UNL     1      35.011 -23.025 -14.421  0.00  0.00    -0.286 N 
ATOM      3  N   UNL     1      33.989 -22.823 -16.471  0.00  0.00    -0.285 N 
ATOM      4  C   UNL     1      34.826 -23.602 -15.675  0.00  0.00    +0.301 C 
ATOM      5  H   UNL     1      34.562 -22.171 -14.225  0.00  0.00    +0.151 HD
ATOM      6  H   UNL     1      33.629 -21.987 -16.095  0.00  0.00    +0.151 HD
ENDROOT
BRANCH   2   7
ATOM      7  C   UNL     1      35.834 -23.624 -13.398  0.00  0.00    +0.132 C 
BRANCH   7   8
ATOM      8  C   UNL     1      35.043 -23.888 -12.123  0.00  0.00    +0.229 C 
BRANCH   8   9
ATOM      9  O   UNL     1      34.139 -24.958 -12.363  0.00  0.00    -0.373 OA
ATOM     10  H   UNL     1      33.232 -24.661 -12.191  0.00  0.00    +0.211 HD
ENDBRANCH   8   9
BRANCH   8  12
ATOM     11  O   UNL     1      37.137 -23.997 -10.884  0.00  0.00    -0.248 OA
ATOM     12  C   UNL     1      35.958 -24.300 -10.991  0.00  0.00    +0.343 C 
BRANCH  12  13
ATOM     13  O   UNL     1      35.301 -25.087 -10.101  0.00  0.00    -0.478 OA
ATOM     14  H   UNL     1      35.182 -25.999 -10.282  0.00  0.00    +0.295 HD
ENDBRANCH  12  13
ENDBRANCH   8  12
ENDBRANCH   7   8
ENDBRANCH   2   7
BRANCH   3  15
ATOM     15  C   UNL     1      33.625 -23.181 -17.822  0.00  0.00    +0.118 C 
BRANCH  15  16
ATOM     16  C   UNL     1      34.023 -22.125 -18.811  0.00  0.00    -0.003 C 
ATOM     17  C   UNL     1      33.045 -21.364 -19.452  0.00  0.00    -0.003 C 
ATOM     18  C   UNL     1      35.372 -21.903 -19.089  0.00  0.00    -0.003 C 
ATOM     19  C   UNL     1      33.415 -20.383 -20.371  0.00  0.00    -0.000 C 
ATOM     20  C   UNL     1      35.743 -20.921 -20.008  0.00  0.00    -0.000 C 
ATOM     21  C   UNL     1      34.764 -20.161 -20.648  0.00  0.00    -0.000 C 
ENDBRANCH  15  16
ENDBRANCH   3  15
TORSDOF 7
ENDMDL
MODEL 3
REMARK VINA RESULT:      -8.0      3.619      5.764
REMARK  Name = 24820112
REMARK  7 active torsions:
REMARK  status: ('A' for Active; 'I' for Inactive)
REMARK    1  A    between atoms: N_2  and  C_7
REMARK    2  A    between atoms: N_3  and  C_15
REMARK    3  A    between atoms: C_7  and  C_8
REMARK    4  A    between atoms: C_8  and  O_9
REMARK    5  A    between atoms: C_8  and  C_12
REMARK    6  A    between atoms: C_12  and  O_13
REMARK    7  A    between atoms: C_15  and  C_16
REMARK                            x       y       z     vdW  Elec       q    Type
REMARK                         _______ _______ _______ _____ _____    ______ ____
ROOT
ATOM      1  O   UNL     1      33.285 -23.771 -15.527  0.00  0.00    -0.253 OA
ATOM      2  N   UNL     1      35.596 -23.740 -15.324  0.00  0.00    -0.286 N 
ATOM      3  N   UNL     1      34.615 -23.017 -17.274  0.00  0.00    -0.285 N 
ATOM      4  C   UNL     1      34.396 -23.532 -15.999  0.00  0.00    +0.301 C 
ATOM      5  H   UNL     1      36.439 -23.520 -15.784  0.00  0.00    +0.151 HD
ATOM      6  H   UNL     1      35.544 -22.860 -17.562  0.00  0.00    +0.151 HD
ENDROOT
BRANCH   2   7
ATOM      7  C   UNL     1      35.658 -24.268 -13.982  0.00  0.00    +0.132 C 
BRANCH   7   8
ATOM      8  C   UNL     1      36.797 -25.267 -13.822  0.00  0.00    +0.229 C 
BRANCH   8   9
ATOM      9  O   UNL     1      36.461 -26.175 -12.783  0.00  0.00    -0.373 OA
ATOM     10  H   UNL     1      37.107 -26.099 -12.063  0.00  0.00    +0.211 HD
ENDBRANCH   8   9
BRANCH   8  12
ATOM     11  O   UNL     1      36.154 -26.758 -15.637  0.00  0.00    -0.248 OA
ATOM     12  C   UNL     1      37.001 -26.067 -15.089  0.00  0.00    +0.343 C 
BRANCH  12  13
ATOM     13  O   UNL     1      38.276 -25.944 -15.539  0.00  0.00    -0.478 OA
ATOM     14  H   UNL     1      38.445 -25.904 -16.460  0.00  0.00    +0.295 HD
ENDBRANCH  12  13
ENDBRANCH   8  12
ENDBRANCH   7   8
ENDBRANCH   2   7
BRANCH   3  15
ATOM     15  C   UNL     1      33.548 -22.705 -18.195  0.00  0.00    +0.118 C 
BRANCH  15  16
ATOM     16  C   UNL     1      33.954 -21.659 -19.193  0.00  0.00    -0.003 C 
ATOM     17  C   UNL     1      35.301 -21.480 -19.508  0.00  0.00    -0.003 C 
ATOM     18  C   UNL     1      32.983 -20.867 -19.806  0.00  0.00    -0.003 C 
ATOM     19  C   UNL     1      35.678 -20.509 -20.435  0.00  0.00    -0.000 C 
ATOM     20  C   UNL     1      33.360 -19.895 -20.733  0.00  0.00    -0.000 C 
ATOM     21  C   UNL     1      34.707 -19.716 -21.048  0.00  0.00    -0.000 C 
ENDBRANCH  15  16
ENDBRANCH   3  15
TORSDOF 7
ENDMDL
MODEL 4
REMARK VINA RESULT:      -7.9      6.845      9.289
REMARK  Name = 24820112
REMARK  7 active torsions:
REMARK  status: ('A' for Active; 'I' for Inactive)
REMARK    1  A    between atoms: N_2  and  C_7
REMARK    2  A    between atoms: N_3  and  C_15
REMARK    3  A    between atoms: C_7  and  C_8
REMARK    4  A    between atoms: C_8  and  O_9
REMARK    5  A    between atoms: C_8  and  C_12
REMARK    6  A    between atoms: C_12  and  O_13
REMARK    7  A    between atoms: C_15  and  C_16
REMARK                            x       y       z     vdW  Elec       q    Type
REMARK                         _______ _______ _______ _____ _____    ______ ____
ROOT
ATOM      1  O   UNL     1      35.199 -18.279 -24.402  0.00  0.00    -0.253 OA
ATOM      2  N   UNL     1      34.334 -16.180 -23.926  0.00  0.00    -0.286 N 
ATOM      3  N   UNL     1      35.376 -17.384 -22.268  0.00  0.00    -0.285 N 
ATOM      4  C   UNL     1      34.989 -17.366 -23.605  0.00  0.00    +0.301 C 
ATOM      5  H   UNL     1      34.210 -15.505 -23.220  0.00  0.00    +0.151 HD
ATOM      6  H   UNL     1      35.161 -16.603 -21.707  0.00  0.00    +0.151 HD
ENDROOT
BRANCH   2   7
ATOM      7  C   UNL     1      33.827 -15.899 -25.248  0.00  0.00    +0.132 C 
BRANCH   7   8
ATOM      8  C   UNL     1      33.431 -14.436 -25.399  0.00  0.00    +0.229 C 
BRANCH   8   9
ATOM      9  O   UNL     1      32.203 -14.370 -26.112  0.00  0.00    -0.373 OA
ATOM     10  H   UNL     1      32.068 -15.197 -26.601  0.00  0.00    +0.211 HD
ENDBRANCH   8   9
BRANCH   8  12
ATOM     11  O   UNL     1      32.227 -13.922 -23.345  0.00  0.00    -0.248 OA
ATOM     12  C   UNL     1      33.217 -13.788 -24.050  0.00  0.00    +0.343 C 
BRANCH  12  13
ATOM     13  O   UNL     1      34.271 -12.999 -23.720  0.00  0.00    -0.478 OA
ATOM     14  H   UNL     1      34.727 -12.524 -24.387  0.00  0.00    +0.295 HD
ENDBRANCH  12  13
ENDBRANCH   8  12
ENDBRANCH   7   8
ENDBRANCH   2   7
BRANCH   3  15
ATOM     15  C   UNL     1      36.075 -18.493 -21.661  0.00  0.00    +0.118 C 
BRANCH  15  16
ATOM     16  C   UNL     1      35.136 -19.443 -20.976  0.00  0.00    -0.003 C 
ATOM     17  C   UNL     1      33.758 -19.238 -21.051  0.00  0.00    -0.003 C 
ATOM     18  C   UNL     1      35.642 -20.532 -20.266  0.00  0.00    -0.003 C 
ATOM     19  C   UNL     1      32.886 -20.121 -20.414  0.00  0.00    -0.000 C 
ATOM     20  C   UNL     1      34.770 -21.416 -19.630  0.00  0.00    -0.000 C 
ATOM     21  C   UNL     1      33.392 -21.211 -19.705  0.00  0.00    -0.000 C 
ENDBRANCH  15  16
ENDBRANCH   3  15
TORSDOF 7
ENDMDL
MODEL 5
REMARK VINA RESULT:      -7.8      6.769      8.803
REMARK  Name = 24820112
REMARK  7 active torsions:
REMARK  status: ('A' for Active; 'I' for Inactive)
REMARK    1  A    between atoms: N_2  and  C_7
REMARK    2  A    between atoms: N_3  and  C_15
REMARK    3  A    between atoms: C_7  and  C_8
REMARK    4  A    between atoms: C_8  and  O_9
REMARK    5  A    between atoms: C_8  and  C_12
REMARK    6  A    between atoms: C_12  and  O_13
REMARK    7  A    between atoms: C_15  and  C_16
REMARK                            x       y       z     vdW  Elec       q    Type
REMARK                         _______ _______ _______ _____ _____    ______ ____
ROOT
ATOM      1  O   UNL     1      34.904 -15.935 -20.376  0.00  0.00    -0.253 OA
ATOM      2  N   UNL     1      33.473 -15.489 -22.147  0.00  0.00    -0.286 N 
ATOM      3  N   UNL     1      34.771 -17.386 -22.183  0.00  0.00    -0.285 N 
ATOM      4  C   UNL     1      34.427 -16.242 -21.468  0.00  0.00    +0.301 C 
ATOM      5  H   UNL     1      33.149 -15.815 -23.019  0.00  0.00    +0.151 HD
ATOM      6  H   UNL     1      34.333 -17.545 -23.051  0.00  0.00    +0.151 HD
ENDROOT
BRANCH   2   7
ATOM      7  C   UNL     1      32.939 -14.252 -21.629  0.00  0.00    +0.132 C 
BRANCH   7   8
ATOM      8  C   UNL     1      32.300 -13.412 -22.728  0.00  0.00    +0.229 C 
BRANCH   8   9
ATOM      9  O   UNL     1      32.260 -12.058 -22.299  0.00  0.00    -0.373 OA
ATOM     10  H   UNL     1      33.112 -11.634 -22.485  0.00  0.00    +0.211 HD
ENDBRANCH   8   9
BRANCH   8  12
ATOM     11  O   UNL     1      32.833 -14.123 -24.996  0.00  0.00    -0.248 OA
ATOM     12  C   UNL     1      33.114 -13.471 -24.001  0.00  0.00    +0.343 C 
BRANCH  12  13
ATOM     13  O   UNL     1      34.236 -12.715 -23.892  0.00  0.00    -0.478 OA
ATOM     14  H   UNL     1      34.500 -12.387 -23.055  0.00  0.00    +0.295 HD
ENDBRANCH  12  13
ENDBRANCH   8  12
ENDBRANCH   7   8
ENDBRANCH   2   7
BRANCH   3  15
ATOM     15  C   UNL     1      35.739 -18.351 -21.715  0.00  0.00    +0.118 C 
BRANCH  15  16
ATOM     16  C   UNL     1      35.094 -19.470 -20.951  0.00  0.00    -0.003 C 
ATOM     17  C   UNL     1      35.885 -20.414 -20.295  0.00  0.00    -0.003 C 
ATOM     18  C   UNL     1      33.703 -19.567 -20.895  0.00  0.00    -0.003 C 
ATOM     19  C   UNL     1      35.286 -21.454 -19.585  0.00  0.00    -0.000 C 
ATOM     20  C   UNL     1      33.104 -20.607 -20.186  0.00  0.00    -0.000 C 
ATOM     21  C   UNL     1      33.895 -21.550 -19.530  0.00  0.00    -0.000 C 
ENDBRANCH  15  16
ENDBRANCH   3  15
TORSDOF 7
ENDMDL
MODEL 6
REMARK VINA RESULT:      -7.7      6.794      9.072
REMARK  Name = 24820112
REMARK  7 active torsions:
REMARK  status: ('A' for Active; 'I' for Inactive)
REMARK    1  A    between atoms: N_2  and  C_7
REMARK    2  A    between atoms: N_3  and  C_15
REMARK    3  A    between atoms: C_7  and  C_8
REMARK    4  A    between atoms: C_8  and  O_9
REMARK    5  A    between atoms: C_8  and  C_12
REMARK    6  A    between atoms: C_12  and  O_13
REMARK    7  A    between atoms: C_15  and  C_16
REMARK                            x       y       z     vdW  Elec       q    Type
REMARK                         _______ _______ _______ _____ _____    ______ ____
ROOT
ATOM      1  O   UNL     1      35.025 -17.396 -24.035  0.00  0.00    -0.253 OA
ATOM      2  N   UNL     1      34.380 -15.576 -22.748  0.00  0.00    -0.286 N 
ATOM      3  N   UNL     1      35.374 -17.387 -21.739  0.00  0.00    -0.285 N 
ATOM      4  C   UNL     1      34.935 -16.838 -22.942  0.00  0.00    +0.301 C 
ATOM      5  H   UNL     1      34.349 -15.210 -21.834  0.00  0.00    +0.151 HD
ATOM      6  H   UNL     1      35.256 -16.862 -20.914  0.00  0.00    +0.151 HD
ENDROOT
BRANCH   2   7
ATOM      7  C   UNL     1      33.846 -14.782 -23.829  0.00  0.00    +0.132 C 
BRANCH   7   8
ATOM      8  C   UNL     1      33.797 -13.302 -23.468  0.00  0.00    +0.229 C 
BRANCH   8   9
ATOM      9  O   UNL     1      33.799 -12.543 -24.670  0.00  0.00    -0.373 OA
ATOM     10  H   UNL     1      34.441 -12.920 -25.290  0.00  0.00    +0.211 HD
ENDBRANCH   8   9
BRANCH   8  12
ATOM     11  O   UNL     1      32.083 -11.845 -22.534  0.00  0.00    -0.248 OA
ATOM     12  C   UNL     1      32.531 -12.968 -22.712  0.00  0.00    +0.343 C 
BRANCH  12  13
ATOM     13  O   UNL     1      31.952 -14.093 -22.218  0.00  0.00    -0.478 OA
ATOM     14  H   UNL     1      32.315 -14.933 -22.419  0.00  0.00    +0.295 HD
ENDBRANCH  12  13
ENDBRANCH   8  12
ENDBRANCH   7   8
ENDBRANCH   2   7
BRANCH   3  15
ATOM     15  C   UNL     1      35.992 -18.689 -21.643  0.00  0.00    +0.118 C 
BRANCH  15  16
ATOM     16  C   UNL     1      35.132 -19.666 -20.896  0.00  0.00    -0.003 C 
ATOM     17  C   UNL     1      35.721 -20.701 -20.169  0.00  0.00    -0.003 C 
ATOM     18  C   UNL     1      33.743 -19.539 -20.927  0.00  0.00    -0.003 C 
ATOM     19  C   UNL     1      34.921 -21.608 -19.474  0.00  0.00    -0.000 C 
ATOM     20  C   UNL     1      32.943 -20.447 -20.233  0.00  0.00    -0.000 C 
ATOM     21  C   UNL     1      33.533 -21.481 -19.506  0.00  0.00    -0.000 C 
ENDBRANCH  15  16
ENDBRANCH   3  15
TORSDOF 7
ENDMDL
MODEL 7
REMARK VINA RESULT:      -7.7      5.441      8.074
REMARK  Name = 24820112
REMARK  7 active torsions:
REMARK  status: ('A' for Active; 'I' for Inactive)
REMARK    1  A    between atoms: N_2  and  C_7
REMARK    2  A    between atoms: N_3  and  C_15
REMARK    3  A    between atoms: C_7  and  C_8
REMARK    4  A    between atoms: C_8  and  O_9
REMARK    5  A    between atoms: C_8  and  C_12
REMARK    6  A    between atoms: C_12  and  O_13
REMARK    7  A    between atoms: C_15  and  C_16
REMARK                            x       y       z     vdW  Elec       q    Type
REMARK                         _______ _______ _______ _____ _____    ______ ____
ROOT
ATOM      1  O   UNL     1      36.534 -24.789 -15.577  0.00  0.00    -0.253 OA
ATOM      2  N   UNL     1      36.114 -25.426 -13.386  0.00  0.00    -0.286 N 
ATOM      3  N   UNL     1      34.530 -24.231 -14.547  0.00  0.00    -0.285 N 
ATOM      4  C   UNL     1      35.794 -24.812 -14.595  0.00  0.00    +0.301 C 
ATOM      5  H   UNL     1      35.457 -25.392 -12.653  0.00  0.00    +0.151 HD
ATOM      6  H   UNL     1      34.012 -24.302 -13.712  0.00  0.00    +0.151 HD
ENDROOT
BRANCH   2   7
ATOM      7  C   UNL     1      37.367 -26.106 -13.162  0.00  0.00    +0.132 C 
BRANCH   7   8
ATOM      8  C   UNL     1      38.454 -25.144 -12.699  0.00  0.00    +0.229 C 
BRANCH   8   9
ATOM      9  O   UNL     1      39.151 -24.665 -13.840  0.00  0.00    -0.373 OA
ATOM     10  H   UNL     1      38.518 -24.305 -14.480  0.00  0.00    +0.211 HD
ENDBRANCH   8   9
BRANCH   8  12
ATOM     11  O   UNL     1      37.898 -22.795 -12.380  0.00  0.00    -0.248 OA
ATOM     12  C   UNL     1      37.858 -23.952 -11.986  0.00  0.00    +0.343 C 
BRANCH  12  13
ATOM     13  O   UNL     1      37.282 -24.326 -10.815  0.00  0.00    -0.478 OA
ATOM     14  H   UNL     1      36.702 -23.740 -10.370  0.00  0.00    +0.295 HD
ENDBRANCH  12  13
ENDBRANCH   8  12
ENDBRANCH   7   8
ENDBRANCH   2   7
BRANCH   3  15
ATOM     15  C   UNL     1      33.941 -23.525 -15.661  0.00  0.00    +0.118 C 
BRANCH  15  16
ATOM     16  C   UNL     1      32.463 -23.332 -15.487  0.00  0.00    -0.003 C 
ATOM     17  C   UNL     1      31.891 -23.431 -14.219  0.00  0.00    -0.003 C 
ATOM     18  C   UNL     1      31.661 -23.052 -16.594  0.00  0.00    -0.003 C 
ATOM     19  C   UNL     1      30.517 -23.251 -14.058  0.00  0.00    -0.000 C 
ATOM     20  C   UNL     1      30.288 -22.872 -16.433  0.00  0.00    -0.000 C 
ATOM     21  C   UNL     1      29.715 -22.970 -15.165  0.00  0.00    -0.000 C 
ENDBRANCH  15  16
ENDBRANCH   3  15
TORSDOF 7
ENDMDL
MODEL 8
REMARK VINA RESULT:      -7.7      9.441     11.760
REMARK  Name = 24820112
REMARK  7 active torsions:
REMARK  status: ('A' for Active; 'I' for Inactive)
REMARK    1  A    between atoms: N_2  and  C_7
REMARK    2  A    between atoms: N_3  and  C_15
REMARK    3  A    between atoms: C_7  and  C_8
REMARK    4  A    between atoms: C_8  and  O_9
REMARK    5  A    between atoms: C_8  and  C_12
REMARK    6  A    between atoms: C_12  and  O_13
REMARK    7  A    between atoms: C_15  and  C_16
REMARK                            x       y       z     vdW  Elec       q    Type
REMARK                         _______ _______ _______ _____ _____    ______ ____
ROOT
ATOM      1  O   UNL     1      32.742 -13.815 -24.626  0.00  0.00    -0.253 OA
ATOM      2  N   UNL     1      34.071 -14.370 -22.806  0.00  0.00    -0.286 N 
ATOM      3  N   UNL     1      34.294 -12.304 -23.791  0.00  0.00    -0.285 N 
ATOM      4  C   UNL     1      33.621 -13.523 -23.816  0.00  0.00    +0.301 C 
ATOM      5  H   UNL     1      34.781 -14.049 -22.204  0.00  0.00    +0.151 HD
ATOM      6  H   UNL     1      34.984 -12.165 -23.102  0.00  0.00    +0.151 HD
ENDROOT
BRANCH   2   7
ATOM      7  C   UNL     1      33.542 -15.698 -22.606  0.00  0.00    +0.132 C 
BRANCH   7   8
ATOM      8  C   UNL     1      34.649 -16.743 -22.561  0.00  0.00    +0.229 C 
BRANCH   8   9
ATOM      9  O   UNL     1      35.758 -16.260 -23.306  0.00  0.00    -0.373 OA
ATOM     10  H   UNL     1      35.729 -15.292 -23.340  0.00  0.00    +0.211 HD
ENDBRANCH   8   9
BRANCH   8  12
ATOM     11  O   UNL     1      35.556 -18.037 -20.707  0.00  0.00    -0.248 OA
ATOM     12  C   UNL     1      35.113 -16.984 -21.142  0.00  0.00    +0.343 C 
BRANCH  12  13
ATOM     13  O   UNL     1      34.950 -15.869 -20.385  0.00  0.00    -0.478 OA
ATOM     14  H   UNL     1      35.182 -15.030 -20.731  0.00  0.00    +0.295 HD
ENDBRANCH  12  13
ENDBRANCH   8  12
ENDBRANCH   7   8
ENDBRANCH   2   7
BRANCH   3  15
ATOM     15  C   UNL     1      34.030 -11.235 -24.725  0.00  0.00    +0.118 C 
BRANCH  15  16
ATOM     16  C   UNL     1      33.911  -9.905 -24.040  0.00  0.00    -0.003 C 
ATOM     17  C   UNL     1      34.908  -8.943 -24.207  0.00  0.00    -0.003 C 
ATOM     18  C   UNL     1      32.804  -9.630 -23.238  0.00  0.00    -0.003 C 
ATOM     19  C   UNL     1      34.797  -7.707 -23.570  0.00  0.00    -0.000 C 
ATOM     20  C   UNL     1      32.693  -8.394 -22.602  0.00  0.00    -0.000 C 
ATOM     21  C   UNL     1      33.689  -7.432 -22.768  0.00  0.00    -0.000 C 
ENDBRANCH  15  16
ENDBRANCH   3  15
TORSDOF 7
ENDMDL
MODEL 9
REMARK VINA RESULT:      -7.6      9.916     12.255
REMARK  Name = 24820112
REMARK  7 active torsions:
REMARK  status: ('A' for Active; 'I' for Inactive)
REMARK    1  A    between atoms: N_2  and  C_7
REMARK    2  A    between atoms: N_3  and  C_15
REMARK    3  A    between atoms: C_7  and  C_8
REMARK    4  A    between atoms: C_8  and  O_9
REMARK    5  A    between atoms: C_8  and  C_12
REMARK    6  A    between atoms: C_12  and  O_13
REMARK    7  A    between atoms: C_15  and  C_16
REMARK                            x       y       z     vdW  Elec       q    Type
REMARK                         _______ _______ _______ _____ _____    ______ ____
ROOT
ATOM      1  O   UNL     1      32.763 -13.799 -24.569  0.00  0.00    -0.253 OA
ATOM      2  N   UNL     1      34.568 -14.269 -23.190  0.00  0.00    -0.286 N 
ATOM      3  N   UNL     1      34.219 -12.115 -23.913  0.00  0.00    -0.285 N 
ATOM      4  C   UNL     1      33.758 -13.428 -23.948  0.00  0.00    +0.301 C 
ATOM      5  H   UNL     1      35.347 -13.882 -22.728  0.00  0.00    +0.151 HD
ATOM      6  H   UNL     1      35.028 -11.917 -23.386  0.00  0.00    +0.151 HD
ENDROOT
BRANCH   2   7
ATOM      7  C   UNL     1      34.318 -15.685 -23.055  0.00  0.00    +0.132 C 
BRANCH   7   8
ATOM      8  C   UNL     1      35.251 -16.508 -23.934  0.00  0.00    +0.229 C 
BRANCH   8   9
ATOM      9  O   UNL     1      35.714 -17.622 -23.184  0.00  0.00    -0.373 OA
ATOM     10  H   UNL     1      36.596 -17.430 -22.829  0.00  0.00    +0.211 HD
ENDBRANCH   8   9
BRANCH   8  12
ATOM     11  O   UNL     1      34.313 -18.216 -25.394  0.00  0.00    -0.248 OA
ATOM     12  C   UNL     1      34.526 -17.037 -25.151  0.00  0.00    +0.343 C 
BRANCH  12  13
ATOM     13  O   UNL     1      34.155 -16.022 -25.973  0.00  0.00    -0.478 OA
ATOM     14  H   UNL     1      33.335 -15.589 -25.841  0.00  0.00    +0.295 HD
ENDBRANCH  12  13
ENDBRANCH   8  12
ENDBRANCH   7   8
ENDBRANCH   2   7
BRANCH   3  15
ATOM     15  C   UNL     1      33.570 -11.030 -24.611  0.00  0.00    +0.118 C 
BRANCH  15  16
ATOM     16  C   UNL     1      33.648  -9.741 -23.845  0.00  0.00    -0.003 C 
ATOM     17  C   UNL     1      32.682  -9.441 -22.884  0.00  0.00    -0.003 C 
ATOM     18  C   UNL     1      34.688  -8.845 -24.092  0.00  0.00    -0.003 C 
ATOM     19  C   UNL     1      32.756  -8.243 -22.172  0.00  0.00    -0.000 C 
ATOM     20  C   UNL     1      34.761  -7.648 -23.380  0.00  0.00    -0.000 C 
ATOM     21  C   UNL     1      33.795  -7.347 -22.420  0.00  0.00    -0.000 C 
ENDBRANCH  15  16
ENDBRANCH   3  15
TORSDOF 7
ENDMDL
