MODEL 1
REMARK VINA RESULT:      -9.9      0.000      0.000
REMARK  Name = 17754108
REMARK  8 active torsions:
REMARK  status: ('A' for Active; 'I' for Inactive)
REMARK    1  A    between atoms: N_2  and  C_8
REMARK    2  A    between atoms: C_3  and  C_19
REMARK    3  A    between atoms: C_19  and  S_20
REMARK    4  A    between atoms: S_20  and  C_21
REMARK    5  A    between atoms: C_21  and  C_22
REMARK    6  A    between atoms: C_22  and  N_23
REMARK    7  A    between atoms: C_22  and  C_28
REMARK    8  A    between atoms: C_28  and  O_29
REMARK                            x       y       z     vdW  Elec       q    Type
REMARK                         _______ _______ _______ _____ _____    ______ ____
ROOT
ATOM      1  O   UNK     1      35.700 -26.168 -15.749  0.00  0.00    -0.274 OA
ATOM      2  N   UNK     1      35.532 -23.857 -15.338  0.00  0.00    -0.283 N 
ATOM      3  C   UNK     1      36.162 -25.106 -15.338  0.00  0.00    +0.237 C 
ATOM      4  H   UNK     1      36.049 -23.112 -14.955  0.00  0.00    +0.155 HD
ENDROOT
BRANCH   2   8
ATOM      5  N   UNK     1      32.549 -22.042 -18.705  0.00  0.00    -0.242 NA
ATOM      6  N   UNK     1      30.408 -22.635 -17.111  0.00  0.00    -0.242 NA
ATOM      7  C   UNK     1      34.053 -22.933 -17.059  0.00  0.00    +0.033 C 
ATOM      8  C   UNK     1      34.254 -23.536 -15.814  0.00  0.00    +0.052 C 
ATOM      9  C   UNK     1      32.748 -22.625 -17.504  0.00  0.00    +0.100 C 
ATOM     10  C   UNK     1      31.872 -23.537 -15.436  0.00  0.00    +0.020 C 
ATOM     11  C   UNK     1      31.657 -22.927 -16.692  0.00  0.00    +0.099 C 
ATOM     12  C   UNK     1      33.168 -23.837 -15.006  0.00  0.00    +0.016 C 
ATOM     13  C   UNK     1      35.138 -22.622 -17.890  0.00  0.00    +0.004 C 
ATOM     14  C   UNK     1      30.762 -23.833 -14.634  0.00  0.00    +0.003 C 
ATOM     15  C   UNK     1      34.925 -22.023 -19.122  0.00  0.00    +0.021 C 
ATOM     16  C   UNK     1      29.482 -23.530 -15.072  0.00  0.00    +0.021 C 
ATOM     17  C   UNK     1      33.621 -21.756 -19.479  0.00  0.00    +0.099 C 
ATOM     18  C   UNK     1      29.361 -22.936 -16.309  0.00  0.00    +0.099 C 
ENDBRANCH   2   8
BRANCH   3  19
ATOM     19  C   UNK     1      37.550 -25.055 -14.735  0.00  0.00    +0.143 C 
BRANCH  19  20
ATOM     20  S   UNK     1      37.596 -26.142 -13.289  0.00  0.00    -0.132 S 
BRANCH  20  21
ATOM     21  C   UNK     1      37.912 -24.890 -12.022  0.00  0.00    +0.047 C 
BRANCH  21  22
ATOM     22  C   UNK     1      36.741 -23.916 -11.877  0.00  0.00    +0.047 C 
BRANCH  22  23
ATOM     23  N   UNK     1      37.082 -22.862 -10.919  0.00  0.00    +0.389 N 
ATOM     24  H   UNK     1      37.251 -23.277 -10.003  0.00  0.00    -0.088 HD
ATOM     25  H   UNK     1      36.310 -22.198 -10.855  0.00  0.00    -0.088 HD
ATOM     26  H   UNK     1      37.922 -22.376 -11.232  0.00  0.00    -0.088 HD
ENDBRANCH  22  23
BRANCH  22  28
ATOM     27  O   UNK     1      35.362 -25.035 -10.236  0.00  0.00    -0.253 OA
ATOM     28  C   UNK     1      35.484 -24.600 -11.375  0.00  0.00    +0.294 C 
BRANCH  28  29
ATOM     29  O   UNK     1      34.512 -24.719 -12.315  0.00  0.00    -0.482 OA
ATOM     30  H   UNK     1      34.663 -24.411 -13.187  0.00  0.00    +0.295 HD
ENDBRANCH  28  29
ENDBRANCH  22  28
ENDBRANCH  21  22
ENDBRANCH  20  21
ENDBRANCH  19  20
ENDBRANCH   3  19
TORSDOF 8
ENDMDL
MODEL 2
REMARK VINA RESULT:      -9.7      2.001      4.345
REMARK  Name = 17754108
REMARK  8 active torsions:
REMARK  status: ('A' for Active; 'I' for Inactive)
REMARK    1  A    between atoms: N_2  and  C_8
REMARK    2  A    between atoms: C_3  and  C_19
REMARK    3  A    between atoms: C_19  and  S_20
REMARK    4  A    between atoms: S_20  and  C_21
REMARK    5  A    between atoms: C_21  and  C_22
REMARK    6  A    between atoms: C_22  and  N_23
REMARK    7  A    between atoms: C_22  and  C_28
REMARK    8  A    between atoms: C_28  and  O_29
REMARK                            x       y       z     vdW  Elec       q    Type
REMARK                         _______ _______ _______ _____ _____    ______ ____
ROOT
ATOM      1  O   UNK     1      36.252 -22.980 -13.493  0.00  0.00    -0.274 OA
ATOM      2  N   UNK     1      34.566 -24.456 -14.208  0.00  0.00    -0.283 N 
ATOM      3  C   UNK     1      35.595 -24.011 -13.372  0.00  0.00    +0.237 C 
ATOM      4  H   UNK     1      34.155 -25.318 -13.967  0.00  0.00    +0.155 HD
ENDROOT
BRANCH   2   8
ATOM      5  N   UNK     1      30.864 -22.847 -16.898  0.00  0.00    -0.242 NA
ATOM      6  N   UNK     1      32.637 -21.943 -18.775  0.00  0.00    -0.242 NA
ATOM      7  C   UNK     1      32.674 -23.655 -15.543  0.00  0.00    +0.033 C 
ATOM      8  C   UNK     1      34.047 -23.828 -15.347  0.00  0.00    +0.052 C 
ATOM      9  C   UNK     1      32.190 -23.015 -16.705  0.00  0.00    +0.100 C 
ATOM     10  C   UNK     1      34.479 -22.734 -17.453  0.00  0.00    +0.020 C 
ATOM     11  C   UNK     1      33.093 -22.554 -17.662  0.00  0.00    +0.099 C 
ATOM     12  C   UNK     1      34.946 -23.369 -16.298  0.00  0.00    +0.016 C 
ATOM     13  C   UNK     1      31.750 -24.111 -14.592  0.00  0.00    +0.004 C 
ATOM     14  C   UNK     1      35.370 -22.264 -18.426  0.00  0.00    +0.003 C 
ATOM     15  C   UNK     1      30.391 -23.934 -14.798  0.00  0.00    +0.021 C 
ATOM     16  C   UNK     1      34.894 -21.637 -19.567  0.00  0.00    +0.021 C 
ATOM     17  C   UNK     1      30.003 -23.301 -15.959  0.00  0.00    +0.099 C 
ATOM     18  C   UNK     1      33.529 -21.503 -19.691  0.00  0.00    +0.099 C 
ENDBRANCH   2   8
BRANCH   3  19
ATOM     19  C   UNK     1      35.875 -24.971 -12.235  0.00  0.00    +0.143 C 
BRANCH  19  20
ATOM     20  S   UNK     1      37.661 -25.039 -11.957  0.00  0.00    -0.132 S 
BRANCH  20  21
ATOM     21  C   UNK     1      38.141 -25.869 -13.490  0.00  0.00    +0.047 C 
BRANCH  21  22
ATOM     22  C   UNK     1      39.141 -25.041 -14.300  0.00  0.00    +0.047 C 
BRANCH  22  23
ATOM     23  N   UNK     1      38.476 -24.450 -15.463  0.00  0.00    +0.389 N 
ATOM     24  H   UNK     1      38.376 -23.445 -15.323  0.00  0.00    -0.088 HD
ATOM     25  H   UNK     1      37.554 -24.871 -15.579  0.00  0.00    -0.088 HD
ATOM     26  H   UNK     1      39.035 -24.622 -16.298  0.00  0.00    -0.088 HD
ENDBRANCH  22  23
BRANCH  22  28
ATOM     27  O   UNK     1      41.080 -26.469 -14.075  0.00  0.00    -0.253 OA
ATOM     28  C   UNK     1      40.298 -25.878 -14.811  0.00  0.00    +0.294 C 
BRANCH  28  29
ATOM     29  O   UNK     1      40.413 -25.887 -16.163  0.00  0.00    -0.482 OA
ATOM     30  H   UNK     1      41.103 -25.407 -16.578  0.00  0.00    +0.295 HD
ENDBRANCH  28  29
ENDBRANCH  22  28
ENDBRANCH  21  22
ENDBRANCH  20  21
ENDBRANCH  19  20
ENDBRANCH   3  19
TORSDOF 8
ENDMDL
MODEL 3
REMARK VINA RESULT:      -9.6      2.002      3.145
REMARK  Name = 17754108
REMARK  8 active torsions:
REMARK  status: ('A' for Active; 'I' for Inactive)
REMARK    1  A    between atoms: N_2  and  C_8
REMARK    2  A    between atoms: C_3  and  C_19
REMARK    3  A    between atoms: C_19  and  S_20
REMARK    4  A    between atoms: S_20  and  C_21
REMARK    5  A    between atoms: C_21  and  C_22
REMARK    6  A    between atoms: C_22  and  N_23
REMARK    7  A    between atoms: C_22  and  C_28
REMARK    8  A    between atoms: C_28  and  O_29
REMARK                            x       y       z     vdW  Elec       q    Type
REMARK                         _______ _______ _______ _____ _____    ______ ____
ROOT
ATOM      1  O   UNK     1      34.212 -23.490 -12.030  0.00  0.00    -0.274 OA
ATOM      2  N   UNK     1      34.488 -24.636 -14.066  0.00  0.00    -0.283 N 
ATOM      3  C   UNK     1      34.819 -24.273 -12.756  0.00  0.00    +0.237 C 
ATOM      4  H   UNK     1      35.099 -25.271 -14.506  0.00  0.00    +0.155 HD
ENDROOT
BRANCH   2   8
ATOM      5  N   UNK     1      32.575 -22.494 -17.975  0.00  0.00    -0.242 NA
ATOM      6  N   UNK     1      30.067 -22.987 -17.002  0.00  0.00    -0.242 NA
ATOM      7  C   UNK     1      33.554 -23.548 -16.052  0.00  0.00    +0.033 C 
ATOM      8  C   UNK     1      33.396 -24.207 -14.830  0.00  0.00    +0.052 C 
ATOM      9  C   UNK     1      32.426 -23.131 -16.794  0.00  0.00    +0.100 C 
ATOM     10  C   UNK     1      31.000 -24.049 -15.062  0.00  0.00    +0.020 C 
ATOM     11  C   UNK     1      31.148 -23.382 -16.299  0.00  0.00    +0.099 C 
ATOM     12  C   UNK     1      32.124 -24.457 -14.337  0.00  0.00    +0.016 C 
ATOM     13  C   UNK     1      34.831 -23.287 -16.568  0.00  0.00    +0.004 C 
ATOM     14  C   UNK     1      29.707 -24.292 -14.581  0.00  0.00    +0.003 C 
ATOM     15  C   UNK     1      34.975 -22.632 -17.781  0.00  0.00    +0.021 C 
ATOM     16  C   UNK     1      28.601 -23.882 -15.310  0.00  0.00    +0.021 C 
ATOM     17  C   UNK     1      33.824 -22.260 -18.439  0.00  0.00    +0.099 C 
ATOM     18  C   UNK     1      28.834 -23.239 -16.505  0.00  0.00    +0.099 C 
ENDBRANCH   2   8
BRANCH   3  19
ATOM     19  C   UNK     1      36.082 -24.950 -12.268  0.00  0.00    +0.143 C 
BRANCH  19  20
ATOM     20  S   UNK     1      37.487 -23.850 -12.571  0.00  0.00    -0.132 S 
BRANCH  20  21
ATOM     21  C   UNK     1      38.716 -25.099 -13.017  0.00  0.00    +0.047 C 
BRANCH  21  22
ATOM     22  C   UNK     1      39.073 -25.043 -14.504  0.00  0.00    +0.047 C 
BRANCH  22  23
ATOM     23  N   UNK     1      37.955 -25.541 -15.307  0.00  0.00    +0.389 N 
ATOM     24  H   UNK     1      38.147 -26.499 -15.599  0.00  0.00    -0.088 HD
ATOM     25  H   UNK     1      37.838 -24.951 -16.131  0.00  0.00    -0.088 HD
ATOM     26  H   UNK     1      37.101 -25.521 -14.751  0.00  0.00    -0.088 HD
ENDBRANCH  22  23
BRANCH  22  28
ATOM     27  O   UNK     1      40.985 -26.431 -13.983  0.00  0.00    -0.253 OA
ATOM     28  C   UNK     1      40.287 -25.892 -14.834  0.00  0.00    +0.294 C 
BRANCH  28  29
ATOM     29  O   UNK     1      40.552 -25.975 -16.162  0.00  0.00    -0.482 OA
ATOM     30  H   UNK     1      40.226 -25.319 -16.747  0.00  0.00    +0.295 HD
ENDBRANCH  28  29
ENDBRANCH  22  28
ENDBRANCH  21  22
ENDBRANCH  20  21
ENDBRANCH  19  20
ENDBRANCH   3  19
TORSDOF 8
ENDMDL
MODEL 4
REMARK VINA RESULT:      -9.2      3.569      6.790
REMARK  Name = 17754108
REMARK  8 active torsions:
REMARK  status: ('A' for Active; 'I' for Inactive)
REMARK    1  A    between atoms: N_2  and  C_8
REMARK    2  A    between atoms: C_3  and  C_19
REMARK    3  A    between atoms: C_19  and  S_20
REMARK    4  A    between atoms: S_20  and  C_21
REMARK    5  A    between atoms: C_21  and  C_22
REMARK    6  A    between atoms: C_22  and  N_23
REMARK    7  A    between atoms: C_22  and  C_28
REMARK    8  A    between atoms: C_28  and  O_29
REMARK                            x       y       z     vdW  Elec       q    Type
REMARK                         _______ _______ _______ _____ _____    ______ ____
ROOT
ATOM      1  O   UNK     1      31.592 -22.412 -14.340  0.00  0.00    -0.274 OA
ATOM      2  N   UNK     1      32.746 -24.178 -15.382  0.00  0.00    -0.283 N 
ATOM      3  C   UNK     1      31.758 -23.607 -14.573  0.00  0.00    +0.237 C 
ATOM      4  H   UNK     1      32.738 -25.160 -15.446  0.00  0.00    +0.155 HD
ENDROOT
BRANCH   2   8
ATOM      5  N   UNK     1      37.285 -22.552 -15.914  0.00  0.00    -0.242 NA
ATOM      6  N   UNK     1      36.630 -21.566 -18.380  0.00  0.00    -0.242 NA
ATOM      7  C   UNK     1      35.047 -23.369 -15.619  0.00  0.00    +0.033 C 
ATOM      8  C   UNK     1      33.748 -23.524 -16.111  0.00  0.00    +0.052 C 
ATOM      9  C   UNK     1      36.030 -22.705 -16.386  0.00  0.00    +0.100 C 
ATOM     10  C   UNK     1      34.380 -22.365 -18.130  0.00  0.00    +0.020 C 
ATOM     11  C   UNK     1      35.696 -22.202 -17.642  0.00  0.00    +0.099 C 
ATOM     12  C   UNK     1      33.416 -23.025 -17.361  0.00  0.00    +0.016 C 
ATOM     13  C   UNK     1      35.402 -23.868 -14.358  0.00  0.00    +0.004 C 
ATOM     14  C   UNK     1      34.064 -21.853 -19.395  0.00  0.00    +0.003 C 
ATOM     15  C   UNK     1      36.693 -23.708 -13.881  0.00  0.00    +0.021 C 
ATOM     16  C   UNK     1      35.030 -21.200 -20.146  0.00  0.00    +0.021 C 
ATOM     17  C   UNK     1      37.590 -23.047 -14.693  0.00  0.00    +0.099 C 
ATOM     18  C   UNK     1      36.287 -21.085 -19.596  0.00  0.00    +0.099 C 
ENDBRANCH   2   8
BRANCH   3  19
ATOM     19  C   UNK     1      30.851 -24.644 -13.946  0.00  0.00    +0.143 C 
BRANCH  19  20
ATOM     20  S   UNK     1      29.721 -25.272 -15.212  0.00  0.00    -0.132 S 
BRANCH  20  21
ATOM     21  C   UNK     1      28.528 -23.914 -15.206  0.00  0.00    +0.047 C 
BRANCH  21  22
ATOM     22  C   UNK     1      28.364 -23.290 -16.593  0.00  0.00    +0.047 C 
BRANCH  22  23
ATOM     23  N   UNK     1      29.604 -22.619 -16.991  0.00  0.00    +0.389 N 
ATOM     24  H   UNK     1      29.822 -22.855 -17.958  0.00  0.00    -0.088 HD
ATOM     25  H   UNK     1      30.366 -22.926 -16.385  0.00  0.00    -0.088 HD
ATOM     26  H   UNK     1      29.487 -21.610 -16.905  0.00  0.00    -0.088 HD
ENDBRANCH  22  23
BRANCH  22  28
ATOM     27  O   UNK     1      27.158 -21.401 -17.503  0.00  0.00    -0.253 OA
ATOM     28  C   UNK     1      27.254 -22.257 -16.631  0.00  0.00    +0.294 C 
BRANCH  28  29
ATOM     29  O   UNK     1      26.389 -22.344 -15.589  0.00  0.00    -0.482 OA
ATOM     30  H   UNK     1      26.039 -23.177 -15.338  0.00  0.00    +0.295 HD
ENDBRANCH  28  29
ENDBRANCH  22  28
ENDBRANCH  21  22
ENDBRANCH  20  21
ENDBRANCH  19  20
ENDBRANCH   3  19
TORSDOF 8
ENDMDL
MODEL 5
REMARK VINA RESULT:      -9.2      6.694      9.187
REMARK  Name = 17754108
REMARK  8 active torsions:
REMARK  status: ('A' for Active; 'I' for Inactive)
REMARK    1  A    between atoms: N_2  and  C_8
REMARK    2  A    between atoms: C_3  and  C_19
REMARK    3  A    between atoms: C_19  and  S_20
REMARK    4  A    between atoms: S_20  and  C_21
REMARK    5  A    between atoms: C_21  and  C_22
REMARK    6  A    between atoms: C_22  and  N_23
REMARK    7  A    between atoms: C_22  and  C_28
REMARK    8  A    between atoms: C_28  and  O_29
REMARK                            x       y       z     vdW  Elec       q    Type
REMARK                         _______ _______ _______ _____ _____    ______ ____
ROOT
ATOM      1  O   UNK     1      34.059 -19.483 -21.226  0.00  0.00    -0.274 OA
ATOM      2  N   UNK     1      35.466 -17.606 -21.056  0.00  0.00    -0.283 N 
ATOM      3  C   UNK     1      35.126 -18.956 -20.922  0.00  0.00    +0.237 C 
ATOM      4  H   UNK     1      36.366 -17.355 -20.746  0.00  0.00    +0.155 HD
ENDROOT
BRANCH   2   8
ATOM      5  N   UNK     1      33.456 -15.198 -24.755  0.00  0.00    -0.242 NA
ATOM      6  N   UNK     1      32.338 -13.437 -22.985  0.00  0.00    -0.242 NA
ATOM      7  C   UNK     1      34.465 -16.412 -22.946  0.00  0.00    +0.033 C 
ATOM      8  C   UNK     1      34.684 -16.567 -21.575  0.00  0.00    +0.052 C 
ATOM      9  C   UNK     1      33.669 -15.351 -23.431  0.00  0.00    +0.100 C 
ATOM     10  C   UNK     1      33.327 -14.620 -21.145  0.00  0.00    +0.020 C 
ATOM     11  C   UNK     1      33.100 -14.453 -22.530  0.00  0.00    +0.099 C 
ATOM     12  C   UNK     1      34.117 -15.674 -20.677  0.00  0.00    +0.016 C 
ATOM     13  C   UNK     1      35.029 -17.305 -23.869  0.00  0.00    +0.004 C 
ATOM     14  C   UNK     1      32.746 -13.707 -20.255  0.00  0.00    +0.003 C 
ATOM     15  C   UNK     1      34.805 -17.141 -25.227  0.00  0.00    +0.021 C 
ATOM     16  C   UNK     1      31.965 -12.666 -20.732  0.00  0.00    +0.021 C 
ATOM     17  C   UNK     1      34.017 -16.079 -25.614  0.00  0.00    +0.099 C 
ATOM     18  C   UNK     1      31.794 -12.576 -22.095  0.00  0.00    +0.099 C 
ENDBRANCH   2   8
BRANCH   3  19
ATOM     19  C   UNK     1      36.242 -19.778 -20.313  0.00  0.00    +0.143 C 
BRANCH  19  20
ATOM     20  S   UNK     1      35.865 -21.533 -20.543  0.00  0.00    -0.132 S 
BRANCH  20  21
ATOM     21  C   UNK     1      35.252 -21.897 -18.881  0.00  0.00    +0.047 C 
BRANCH  21  22
ATOM     22  C   UNK     1      33.894 -22.601 -18.914  0.00  0.00    +0.047 C 
BRANCH  22  23
ATOM     23  N   UNK     1      32.861 -21.676 -19.387  0.00  0.00    +0.389 N 
ATOM     24  H   UNK     1      33.017 -21.469 -20.373  0.00  0.00    -0.088 HD
ATOM     25  H   UNK     1      32.906 -20.812 -18.847  0.00  0.00    -0.088 HD
ATOM     26  H   UNK     1      31.943 -22.103 -19.270  0.00  0.00    -0.088 HD
ENDBRANCH  22  23
BRANCH  22  28
ATOM     27  O   UNK     1      32.315 -23.051 -17.138  0.00  0.00    -0.253 OA
ATOM     28  C   UNK     1      33.471 -23.096 -17.544  0.00  0.00    +0.294 C 
BRANCH  28  29
ATOM     29  O   UNK     1      34.497 -23.566 -16.791  0.00  0.00    -0.482 OA
ATOM     30  H   UNK     1      34.320 -24.073 -16.022  0.00  0.00    +0.295 HD
ENDBRANCH  28  29
ENDBRANCH  22  28
ENDBRANCH  21  22
ENDBRANCH  20  21
ENDBRANCH  19  20
ENDBRANCH   3  19
TORSDOF 8
ENDMDL
MODEL 6
REMARK VINA RESULT:      -8.9      1.550      3.683
REMARK  Name = 17754108
REMARK  8 active torsions:
REMARK  status: ('A' for Active; 'I' for Inactive)
REMARK    1  A    between atoms: N_2  and  C_8
REMARK    2  A    between atoms: C_3  and  C_19
REMARK    3  A    between atoms: C_19  and  S_20
REMARK    4  A    between atoms: S_20  and  C_21
REMARK    5  A    between atoms: C_21  and  C_22
REMARK    6  A    between atoms: C_22  and  N_23
REMARK    7  A    between atoms: C_22  and  C_28
REMARK    8  A    between atoms: C_28  and  O_29
REMARK                            x       y       z     vdW  Elec       q    Type
REMARK                         _______ _______ _______ _____ _____    ______ ____
ROOT
ATOM      1  O   UNK     1      37.782 -21.840 -15.850  0.00  0.00    -0.274 OA
ATOM      2  N   UNK     1      36.214 -23.536 -16.292  0.00  0.00    -0.283 N 
ATOM      3  C   UNK     1      37.363 -22.986 -15.715  0.00  0.00    +0.237 C 
ATOM      4  H   UNK     1      36.036 -24.482 -16.084  0.00  0.00    +0.155 HD
ENDROOT
BRANCH   2   8
ATOM      5  N   UNK     1      31.671 -22.440 -17.591  0.00  0.00    -0.242 NA
ATOM      6  N   UNK     1      32.636 -20.993 -19.701  0.00  0.00    -0.242 NA
ATOM      7  C   UNK     1      33.907 -23.001 -16.921  0.00  0.00    +0.033 C 
ATOM      8  C   UNK     1      35.286 -22.909 -17.133  0.00  0.00    +0.052 C 
ATOM      9  C   UNK     1      33.003 -22.352 -17.791  0.00  0.00    +0.100 C 
ATOM     10  C   UNK     1      34.890 -21.528 -19.070  0.00  0.00    +0.020 C 
ATOM     11  C   UNK     1      33.494 -21.615 -18.867  0.00  0.00    +0.099 C 
ATOM     12  C   UNK     1      35.775 -22.175 -18.202  0.00  0.00    +0.016 C 
ATOM     13  C   UNK     1      33.394 -23.738 -15.845  0.00  0.00    +0.004 C 
ATOM     14  C   UNK     1      35.364 -20.782 -20.157  0.00  0.00    +0.003 C 
ATOM     15  C   UNK     1      32.024 -23.823 -15.646  0.00  0.00    +0.021 C 
ATOM     16  C   UNK     1      34.475 -20.146 -21.010  0.00  0.00    +0.021 C 
ATOM     17  C   UNK     1      31.213 -23.160 -16.541  0.00  0.00    +0.099 C 
ATOM     18  C   UNK     1      33.132 -20.283 -20.740  0.00  0.00    +0.099 C 
ENDBRANCH   2   8
BRANCH   3  19
ATOM     19  C   UNK     1      38.118 -23.984 -14.862  0.00  0.00    +0.143 C 
BRANCH  19  20
ATOM     20  S   UNK     1      37.152 -25.511 -14.759  0.00  0.00    -0.132 S 
BRANCH  20  21
ATOM     21  C   UNK     1      37.091 -25.671 -12.959  0.00  0.00    +0.047 C 
BRANCH  21  22
ATOM     22  C   UNK     1      36.786 -24.336 -12.276  0.00  0.00    +0.047 C 
BRANCH  22  23
ATOM     23  N   UNK     1      37.863 -23.991 -11.346  0.00  0.00    +0.389 N 
ATOM     24  H   UNK     1      37.489 -23.411 -10.594  0.00  0.00    -0.088 HD
ATOM     25  H   UNK     1      38.590 -23.476 -11.843  0.00  0.00    -0.088 HD
ATOM     26  H   UNK     1      38.259 -24.844 -10.953  0.00  0.00    -0.088 HD
ENDBRANCH  22  23
BRANCH  22  28
ATOM     27  O   UNK     1      35.337 -25.076 -10.487  0.00  0.00    -0.253 OA
ATOM     28  C   UNK     1      35.493 -24.379 -11.483  0.00  0.00    +0.294 C 
BRANCH  28  29
ATOM     29  O   UNK     1      34.509 -23.599 -11.996  0.00  0.00    -0.482 OA
ATOM     30  H   UNK     1      34.694 -22.714 -12.244  0.00  0.00    +0.295 HD
ENDBRANCH  28  29
ENDBRANCH  22  28
ENDBRANCH  21  22
ENDBRANCH  20  21
ENDBRANCH  19  20
ENDBRANCH   3  19
TORSDOF 8
ENDMDL
MODEL 7
REMARK VINA RESULT:      -8.8      1.628      2.482
REMARK  Name = 17754108
REMARK  8 active torsions:
REMARK  status: ('A' for Active; 'I' for Inactive)
REMARK    1  A    between atoms: N_2  and  C_8
REMARK    2  A    between atoms: C_3  and  C_19
REMARK    3  A    between atoms: C_19  and  S_20
REMARK    4  A    between atoms: S_20  and  C_21
REMARK    5  A    between atoms: C_21  and  C_22
REMARK    6  A    between atoms: C_22  and  N_23
REMARK    7  A    between atoms: C_22  and  C_28
REMARK    8  A    between atoms: C_28  and  O_29
REMARK                            x       y       z     vdW  Elec       q    Type
REMARK                         _______ _______ _______ _____ _____    ______ ____
ROOT
ATOM      1  O   UNK     1      35.723 -23.119 -13.135  0.00  0.00    -0.274 OA
ATOM      2  N   UNK     1      35.877 -23.458 -15.457  0.00  0.00    -0.283 N 
ATOM      3  C   UNK     1      36.364 -23.384 -14.148  0.00  0.00    +0.237 C 
ATOM      4  H   UNK     1      36.540 -23.671 -16.154  0.00  0.00    +0.155 HD
ENDROOT
BRANCH   2   8
ATOM      5  N   UNK     1      32.646 -22.072 -18.799  0.00  0.00    -0.242 NA
ATOM      6  N   UNK     1      30.614 -22.747 -17.097  0.00  0.00    -0.242 NA
ATOM      7  C   UNK     1      34.271 -22.750 -17.167  0.00  0.00    +0.033 C 
ATOM      8  C   UNK     1      34.563 -23.266 -15.901  0.00  0.00    +0.052 C 
ATOM      9  C   UNK     1      32.932 -22.571 -17.578  0.00  0.00    +0.100 C 
ATOM     10  C   UNK     1      32.202 -23.436 -15.434  0.00  0.00    +0.020 C 
ATOM     11  C   UNK     1      31.896 -22.914 -16.711  0.00  0.00    +0.099 C 
ATOM     12  C   UNK     1      33.532 -23.608 -15.038  0.00  0.00    +0.016 C 
ATOM     13  C   UNK     1      35.299 -22.399 -18.053  0.00  0.00    +0.004 C 
ATOM     14  C   UNK     1      31.148 -23.775 -14.576  0.00  0.00    +0.003 C 
ATOM     15  C   UNK     1      34.997 -21.887 -19.306  0.00  0.00    +0.021 C 
ATOM     16  C   UNK     1      29.833 -23.599 -14.981  0.00  0.00    +0.021 C 
ATOM     17  C   UNK     1      33.664 -21.745 -19.627  0.00  0.00    +0.099 C 
ATOM     18  C   UNK     1      29.623 -23.085 -16.241  0.00  0.00    +0.099 C 
ENDBRANCH   2   8
BRANCH   3  19
ATOM     19  C   UNK     1      37.851 -23.655 -14.067  0.00  0.00    +0.143 C 
BRANCH  19  20
ATOM     20  S   UNK     1      38.178 -24.673 -12.607  0.00  0.00    -0.132 S 
BRANCH  20  21
ATOM     21  C   UNK     1      37.026 -26.022 -12.955  0.00  0.00    +0.047 C 
BRANCH  21  22
ATOM     22  C   UNK     1      37.558 -26.963 -14.037  0.00  0.00    +0.047 C 
BRANCH  22  23
ATOM     23  N   UNK     1      38.888 -26.529 -14.469  0.00  0.00    +0.389 N 
ATOM     24  H   UNK     1      39.586 -27.201 -14.150  0.00  0.00    -0.088 HD
ATOM     25  H   UNK     1      39.092 -25.612 -14.072  0.00  0.00    -0.088 HD
ATOM     26  H   UNK     1      38.913 -26.472 -15.487  0.00  0.00    -0.088 HD
ENDBRANCH  22  23
BRANCH  22  28
ATOM     27  O   UNK     1      37.027 -27.429 -16.350  0.00  0.00    -0.253 OA
ATOM     28  C   UNK     1      36.666 -26.992 -15.263  0.00  0.00    +0.294 C 
BRANCH  28  29
ATOM     29  O   UNK     1      35.436 -26.457 -15.059  0.00  0.00    -0.482 OA
ATOM     30  H   UNK     1      35.306 -25.533 -15.148  0.00  0.00    +0.295 HD
ENDBRANCH  28  29
ENDBRANCH  22  28
ENDBRANCH  21  22
ENDBRANCH  20  21
ENDBRANCH  19  20
ENDBRANCH   3  19
TORSDOF 8
ENDMDL
MODEL 8
REMARK VINA RESULT:      -8.6      4.612      7.287
REMARK  Name = 17754108
REMARK  8 active torsions:
REMARK  status: ('A' for Active; 'I' for Inactive)
REMARK    1  A    between atoms: N_2  and  C_8
REMARK    2  A    between atoms: C_3  and  C_19
REMARK    3  A    between atoms: C_19  and  S_20
REMARK    4  A    between atoms: S_20  and  C_21
REMARK    5  A    between atoms: C_21  and  C_22
REMARK    6  A    between atoms: C_22  and  N_23
REMARK    7  A    between atoms: C_22  and  C_28
REMARK    8  A    between atoms: C_28  and  O_29
REMARK                            x       y       z     vdW  Elec       q    Type
REMARK                         _______ _______ _______ _____ _____    ______ ____
ROOT
ATOM      1  O   UNK     1      33.928 -23.596 -19.542  0.00  0.00    -0.274 OA
ATOM      2  N   UNK     1      34.718 -22.347 -17.711  0.00  0.00    -0.283 N 
ATOM      3  C   UNK     1      34.593 -22.680 -19.064  0.00  0.00    +0.237 C 
ATOM      4  H   UNK     1      35.307 -21.586 -17.505  0.00  0.00    +0.155 HD
ENDROOT
BRANCH   2   8
ATOM      5  N   UNK     1      34.889 -24.411 -13.325  0.00  0.00    -0.242 NA
ATOM      6  N   UNK     1      32.181 -24.786 -13.409  0.00  0.00    -0.242 NA
ATOM      7  C   UNK     1      34.839 -23.385 -15.495  0.00  0.00    +0.033 C 
ATOM      8  C   UNK     1      34.110 -22.965 -16.611  0.00  0.00    +0.052 C 
ATOM      9  C   UNK     1      34.188 -24.004 -14.404  0.00  0.00    +0.100 C 
ATOM     10  C   UNK     1      32.081 -23.767 -15.580  0.00  0.00    +0.020 C 
ATOM     11  C   UNK     1      32.808 -24.195 -14.447  0.00  0.00    +0.099 C 
ATOM     12  C   UNK     1      32.737 -23.155 -16.653  0.00  0.00    +0.016 C 
ATOM     13  C   UNK     1      36.227 -23.201 -15.433  0.00  0.00    +0.004 C 
ATOM     14  C   UNK     1      30.695 -23.968 -15.604  0.00  0.00    +0.003 C 
ATOM     15  C   UNK     1      36.939 -23.622 -14.321  0.00  0.00    +0.021 C 
ATOM     16  C   UNK     1      30.058 -24.576 -14.533  0.00  0.00    +0.021 C 
ATOM     17  C   UNK     1      36.227 -24.217 -13.301  0.00  0.00    +0.099 C 
ATOM     18  C   UNK     1      30.841 -24.963 -13.469  0.00  0.00    +0.099 C 
ENDBRANCH   2   8
BRANCH   3  19
ATOM     19  C   UNK     1      35.409 -21.774 -19.961  0.00  0.00    +0.143 C 
BRANCH  19  20
ATOM     20  S   UNK     1      34.402 -20.341 -20.414  0.00  0.00    -0.132 S 
BRANCH  20  21
ATOM     21  C   UNK     1      35.703 -19.317 -21.142  0.00  0.00    +0.047 C 
BRANCH  21  22
ATOM     22  C   UNK     1      35.138 -18.291 -22.126  0.00  0.00    +0.047 C 
BRANCH  22  23
ATOM     23  N   UNK     1      36.090 -18.065 -23.217  0.00  0.00    +0.389 N 
ATOM     24  H   UNK     1      36.962 -17.700 -22.836  0.00  0.00    -0.088 HD
ATOM     25  H   UNK     1      35.698 -17.393 -23.876  0.00  0.00    -0.088 HD
ATOM     26  H   UNK     1      36.272 -18.946 -23.697  0.00  0.00    -0.088 HD
ENDBRANCH  22  23
BRANCH  22  28
ATOM     27  O   UNK     1      35.214 -16.683 -20.321  0.00  0.00    -0.253 OA
ATOM     28  C   UNK     1      34.873 -16.950 -21.468  0.00  0.00    +0.294 C 
BRANCH  28  29
ATOM     29  O   UNK     1      34.191 -16.079 -22.253  0.00  0.00    -0.482 OA
ATOM     30  H   UNK     1      33.320 -16.283 -22.532  0.00  0.00    +0.295 HD
ENDBRANCH  28  29
ENDBRANCH  22  28
ENDBRANCH  21  22
ENDBRANCH  20  21
ENDBRANCH  19  20
ENDBRANCH   3  19
TORSDOF 8
ENDMDL
MODEL 9
REMARK VINA RESULT:      -8.6     10.063     12.863
REMARK  Name = 17754108
REMARK  8 active torsions:
REMARK  status: ('A' for Active; 'I' for Inactive)
REMARK    1  A    between atoms: N_2  and  C_8
REMARK    2  A    between atoms: C_3  and  C_19
REMARK    3  A    between atoms: C_19  and  S_20
REMARK    4  A    between atoms: S_20  and  C_21
REMARK    5  A    between atoms: C_21  and  C_22
REMARK    6  A    between atoms: C_22  and  N_23
REMARK    7  A    between atoms: C_22  and  C_28
REMARK    8  A    between atoms: C_28  and  O_29
REMARK                            x       y       z     vdW  Elec       q    Type
REMARK                         _______ _______ _______ _____ _____    ______ ____
ROOT
ATOM      1  O   UNK     1      34.884 -15.543 -20.546  0.00  0.00    -0.274 OA
ATOM      2  N   UNK     1      32.897 -15.257 -21.771  0.00  0.00    -0.283 N 
ATOM      3  C   UNK     1      33.931 -15.989 -21.179  0.00  0.00    +0.237 C 
ATOM      4  H   UNK     1      32.218 -15.781 -22.255  0.00  0.00    +0.155 HD
ENDROOT
BRANCH   2   8
ATOM      5  N   UNK     1      33.076 -10.900 -23.895  0.00  0.00    -0.242 NA
ATOM      6  N   UNK     1      32.099  -9.759 -21.609  0.00  0.00    -0.242 NA
ATOM      7  C   UNK     1      33.000 -13.071 -22.873  0.00  0.00    +0.033 C 
ATOM      8  C   UNK     1      32.708 -13.869 -21.763  0.00  0.00    +0.052 C 
ATOM      9  C   UNK     1      32.795 -11.674 -22.826  0.00  0.00    +0.100 C 
ATOM     10  C   UNK     1      32.005 -11.909 -20.546  0.00  0.00    +0.020 C 
ATOM     11  C   UNK     1      32.297 -11.092 -21.661  0.00  0.00    +0.099 C 
ATOM     12  C   UNK     1      32.213 -13.291 -20.604  0.00  0.00    +0.016 C 
ATOM     13  C   UNK     1      33.501 -13.637 -24.053  0.00  0.00    +0.004 C 
ATOM     14  C   UNK     1      31.506 -11.305 -19.384  0.00  0.00    +0.003 C 
ATOM     15  C   UNK     1      33.787 -12.835 -25.147  0.00  0.00    +0.021 C 
ATOM     16  C   UNK     1      31.306  -9.935 -19.339  0.00  0.00    +0.021 C 
ATOM     17  C   UNK     1      33.558 -11.483 -25.017  0.00  0.00    +0.099 C 
ATOM     18  C   UNK     1      31.616  -9.213 -20.471  0.00  0.00    +0.099 C 
ENDBRANCH   2   8
BRANCH   3  19
ATOM     19  C   UNK     1      33.791 -17.479 -21.406  0.00  0.00    +0.143 C 
BRANCH  19  20
ATOM     20  S   UNK     1      35.398 -18.264 -21.131  0.00  0.00    -0.132 S 
BRANCH  20  21
ATOM     21  C   UNK     1      35.903 -18.454 -22.857  0.00  0.00    +0.047 C 
BRANCH  21  22
ATOM     22  C   UNK     1      34.740 -18.218 -23.823  0.00  0.00    +0.047 C 
BRANCH  22  23
ATOM     23  N   UNK     1      34.584 -19.372 -24.711  0.00  0.00    +0.389 N 
ATOM     24  H   UNK     1      34.557 -20.227 -24.155  0.00  0.00    -0.088 HD
ATOM     25  H   UNK     1      35.372 -19.412 -25.358  0.00  0.00    -0.088 HD
ATOM     26  H   UNK     1      33.716 -19.281 -25.238  0.00  0.00    -0.088 HD
ENDBRANCH  22  23
BRANCH  22  28
ATOM     27  O   UNK     1      34.516 -16.894 -25.835  0.00  0.00    -0.253 OA
ATOM     28  C   UNK     1      34.957 -16.996 -24.695  0.00  0.00    +0.294 C 
BRANCH  28  29
ATOM     29  O   UNK     1      35.716 -16.034 -24.112  0.00  0.00    -0.482 OA
ATOM     30  H   UNK     1      36.225 -15.453 -24.642  0.00  0.00    +0.295 HD
ENDBRANCH  28  29
ENDBRANCH  22  28
ENDBRANCH  21  22
ENDBRANCH  20  21
ENDBRANCH  19  20
ENDBRANCH   3  19
TORSDOF 8
ENDMDL
