MODEL 1
REMARK VINA RESULT:     -11.7      0.000      0.000
REMARK  Name = 11154925
REMARK  9 active torsions:
REMARK  status: ('A' for Active; 'I' for Inactive)
REMARK    1  A    between atoms: C_6  and  O_11
REMARK    2  A    between atoms: C_8  and  O_24
REMARK    3  A    between atoms: O_11  and  C_12
REMARK    4  A    between atoms: C_12  and  C_13
REMARK    5  A    between atoms: C_13  and  O_15
REMARK    6  A    between atoms: O_15  and  C_17
REMARK    7  A    between atoms: C_17  and  C_18
REMARK    8  A    between atoms: C_18  and  N_20
REMARK    9  A    between atoms: O_24  and  C_29
REMARK                            x       y       z     vdW  Elec       q    Type
REMARK                         _______ _______ _______ _____ _____    ______ ____
ROOT
ATOM      1  N   UNL     1      34.034 -16.203 -24.672  0.00  0.00    -0.180 N 
ATOM      2  N   UNL     1      34.041 -17.158 -25.644  0.00  0.00    -0.151 NA
ATOM      3  N   UNL     1      35.099 -18.618 -24.034  0.00  0.00    -0.187 NA
ATOM      4  C   UNL     1      34.529 -16.402 -23.409  0.00  0.00    +0.126 C 
ATOM      5  C   UNL     1      34.364 -15.241 -22.689  0.00  0.00    +0.034 C 
ATOM      6  C   UNL     1      33.743 -14.305 -23.555  0.00  0.00    +0.153 C 
ATOM      7  C   UNL     1      33.550 -14.925 -24.773  0.00  0.00    +0.126 C 
ATOM      8  C   UNL     1      35.073 -17.686 -23.137  0.00  0.00    +0.247 C 
ATOM      9  C   UNL     1      34.738 -14.963 -21.287  0.00  0.00    +0.036 C 
ATOM     10  C   UNL     1      34.567 -18.295 -25.274  0.00  0.00    +0.220 C 
ENDROOT
BRANCH   6  11
ATOM     11  O   UNL     1      33.387 -13.040 -23.288  0.00  0.00    -0.470 OA
BRANCH  11  12
ATOM     12  C   UNL     1      33.816 -12.032 -24.210  0.00  0.00    +0.249 C 
BRANCH  12  13
ATOM     13  C   UNL     1      33.808 -10.681 -23.504  0.00  0.00    +0.212 C 
ATOM     14  C   UNL     1      34.491  -9.611 -24.342  0.00  0.00    +0.051 C 
BRANCH  13  15
ATOM     15  O   UNL     1      32.451 -10.299 -23.284  0.00  0.00    -0.450 OA
BRANCH  15  17
ATOM     16  O   UNL     1      32.708  -8.777 -21.573  0.00  0.00    -0.252 OA
ATOM     17  C   UNL     1      32.175  -9.769 -22.051  0.00  0.00    +0.296 C 
BRANCH  17  18
ATOM     18  C   UNL     1      31.109 -10.607 -21.372  0.00  0.00    +0.036 C 
ATOM     19  C   UNL     1      31.434 -10.799 -19.897  0.00  0.00    -0.013 C 
BRANCH  18  20
ATOM     20  N   UNL     1      31.059 -11.907 -22.039  0.00  0.00    +0.389 N 
ATOM     21  H   UNL     1      30.522 -12.561 -21.469  0.00  0.00    -0.088 HD
ATOM     22  H   UNL     1      32.007 -12.263 -22.161  0.00  0.00    -0.088 HD
ATOM     23  H   UNL     1      30.614 -11.806 -22.950  0.00  0.00    -0.088 HD
ENDBRANCH  18  20
ENDBRANCH  17  18
ENDBRANCH  15  17
ENDBRANCH  13  15
ENDBRANCH  12  13
ENDBRANCH  11  12
ENDBRANCH   6  11
BRANCH   8  24
ATOM     24  O   UNL     1      35.569 -17.909 -21.897  0.00  0.00    -0.433 OA
BRANCH  24  29
ATOM     25  F   UNL     1      36.834 -19.938 -20.547  0.00  0.00    -0.201 F 
ATOM     26  N   UNL     1      32.844 -21.787 -19.142  0.00  0.00    -0.316 N 
ATOM     27  C   UNL     1      34.733 -20.839 -19.858  0.00  0.00    +0.045 C 
ATOM     28  C   UNL     1      33.340 -20.736 -19.880  0.00  0.00    +0.050 C 
ATOM     29  C   UNL     1      34.839 -18.845 -21.228  0.00  0.00    +0.175 C 
ATOM     30  C   UNL     1      33.872 -22.549 -18.655  0.00  0.00    +0.026 C 
ATOM     31  C   UNL     1      35.496 -19.875 -20.545  0.00  0.00    +0.176 C 
ATOM     32  C   UNL     1      35.054 -21.987 -19.081  0.00  0.00    +0.014 C 
ATOM     33  C   UNL     1      32.670 -19.712 -20.559  0.00  0.00    +0.018 C 
ATOM     34  C   UNL     1      33.448 -18.766 -21.233  0.00  0.00    +0.041 C 
ATOM     35  C   UNL     1      33.616 -23.743 -17.828  0.00  0.00    +0.047 C 
ATOM     36  H   UNL     1      31.888 -21.965 -18.987  0.00  0.00    +0.152 HD
ENDBRANCH  24  29
ENDBRANCH   8  24
TORSDOF 9
ENDMDL
MODEL 2
REMARK VINA RESULT:     -11.0      2.645      9.579
REMARK  Name = 11154925
REMARK  9 active torsions:
REMARK  status: ('A' for Active; 'I' for Inactive)
REMARK    1  A    between atoms: C_6  and  O_11
REMARK    2  A    between atoms: C_8  and  O_24
REMARK    3  A    between atoms: O_11  and  C_12
REMARK    4  A    between atoms: C_12  and  C_13
REMARK    5  A    between atoms: C_13  and  O_15
REMARK    6  A    between atoms: O_15  and  C_17
REMARK    7  A    between atoms: C_17  and  C_18
REMARK    8  A    between atoms: C_18  and  N_20
REMARK    9  A    between atoms: O_24  and  C_29
REMARK                            x       y       z     vdW  Elec       q    Type
REMARK                         _______ _______ _______ _____ _____    ______ ____
ROOT
ATOM      1  N   UNL     1      34.048 -16.128 -25.067  0.00  0.00    -0.180 N 
ATOM      2  N   UNL     1      33.689 -15.744 -26.324  0.00  0.00    -0.151 NA
ATOM      3  N   UNL     1      32.657 -13.809 -25.307  0.00  0.00    -0.187 NA
ATOM      4  C   UNL     1      33.746 -15.410 -23.938  0.00  0.00    +0.126 C 
ATOM      5  C   UNL     1      34.254 -16.078 -22.848  0.00  0.00    +0.034 C 
ATOM      6  C   UNL     1      34.889 -17.247 -23.342  0.00  0.00    +0.153 C 
ATOM      7  C   UNL     1      34.747 -17.252 -24.715  0.00  0.00    +0.126 C 
ATOM      8  C   UNL     1      33.017 -14.206 -24.130  0.00  0.00    +0.247 C 
ATOM      9  C   UNL     1      34.185 -15.704 -21.421  0.00  0.00    +0.036 C 
ATOM     10  C   UNL     1      33.023 -14.621 -26.371  0.00  0.00    +0.220 C 
ENDROOT
BRANCH   6  11
ATOM     11  O   UNL     1      35.524 -18.201 -22.645  0.00  0.00    -0.470 OA
BRANCH  11  12
ATOM     12  C   UNL     1      34.842 -19.447 -22.470  0.00  0.00    +0.249 C 
BRANCH  12  13
ATOM     13  C   UNL     1      34.534 -19.638 -20.990  0.00  0.00    +0.212 C 
ATOM     14  C   UNL     1      33.046 -19.846 -20.754  0.00  0.00    +0.051 C 
BRANCH  13  15
ATOM     15  O   UNL     1      35.240 -20.789 -20.530  0.00  0.00    -0.450 OA
BRANCH  15  17
ATOM     16  O   UNL     1      37.147 -19.626 -19.966  0.00  0.00    -0.252 OA
ATOM     17  C   UNL     1      36.357 -20.542 -19.778  0.00  0.00    +0.296 C 
BRANCH  17  18
ATOM     18  C   UNL     1      36.463 -21.582 -18.679  0.00  0.00    +0.036 C 
ATOM     19  C   UNL     1      35.096 -22.177 -18.368  0.00  0.00    -0.013 C 
BRANCH  18  20
ATOM     20  N   UNL     1      37.001 -20.931 -17.486  0.00  0.00    +0.389 N 
ATOM     21  H   UNL     1      37.304 -21.640 -16.820  0.00  0.00    -0.088 HD
ATOM     22  H   UNL     1      36.278 -20.351 -17.060  0.00  0.00    -0.088 HD
ATOM     23  H   UNL     1      37.795 -20.346 -17.746  0.00  0.00    -0.088 HD
ENDBRANCH  18  20
ENDBRANCH  17  18
ENDBRANCH  15  17
ENDBRANCH  13  15
ENDBRANCH  12  13
ENDBRANCH  11  12
ENDBRANCH   6  11
BRANCH   8  24
ATOM     24  O   UNL     1      32.705 -13.478 -23.031  0.00  0.00    -0.433 OA
BRANCH  24  29
ATOM     25  F   UNL     1      31.050 -11.610 -21.885  0.00  0.00    -0.201 F 
ATOM     26  N   UNL     1      33.410  -8.083 -23.703  0.00  0.00    -0.316 N 
ATOM     27  C   UNL     1      32.318  -9.836 -22.859  0.00  0.00    +0.045 C 
ATOM     28  C   UNL     1      33.402  -9.459 -23.656  0.00  0.00    +0.050 C 
ATOM     29  C   UNL     1      32.930 -12.150 -23.233  0.00  0.00    +0.175 C 
ATOM     30  C   UNL     1      32.373  -7.579 -22.966  0.00  0.00    +0.026 C 
ATOM     31  C   UNL     1      32.079 -11.207 -22.644  0.00  0.00    +0.176 C 
ATOM     32  C   UNL     1      31.679  -8.640 -22.430  0.00  0.00    +0.014 C 
ATOM     33  C   UNL     1      34.260 -10.390 -24.252  0.00  0.00    +0.018 C 
ATOM     34  C   UNL     1      34.004 -11.745 -24.024  0.00  0.00    +0.041 C 
ATOM     35  C   UNL     1      32.152  -6.125 -22.849  0.00  0.00    +0.047 C 
ATOM     36  H   UNL     1      34.067  -7.541 -24.197  0.00  0.00    +0.152 HD
ENDBRANCH  24  29
ENDBRANCH   8  24
TORSDOF 9
ENDMDL
MODEL 3
REMARK VINA RESULT:     -10.8      3.928     10.680
REMARK  Name = 11154925
REMARK  9 active torsions:
REMARK  status: ('A' for Active; 'I' for Inactive)
REMARK    1  A    between atoms: C_6  and  O_11
REMARK    2  A    between atoms: C_8  and  O_24
REMARK    3  A    between atoms: O_11  and  C_12
REMARK    4  A    between atoms: C_12  and  C_13
REMARK    5  A    between atoms: C_13  and  O_15
REMARK    6  A    between atoms: O_15  and  C_17
REMARK    7  A    between atoms: C_17  and  C_18
REMARK    8  A    between atoms: C_18  and  N_20
REMARK    9  A    between atoms: O_24  and  C_29
REMARK                            x       y       z     vdW  Elec       q    Type
REMARK                         _______ _______ _______ _____ _____    ______ ____
ROOT
ATOM      1  N   UNL     1      33.939 -21.169 -19.553  0.00  0.00    -0.180 N 
ATOM      2  N   UNL     1      32.633 -20.975 -19.889  0.00  0.00    -0.151 NA
ATOM      3  N   UNL     1      33.426 -19.482 -21.617  0.00  0.00    -0.187 NA
ATOM      4  C   UNL     1      34.987 -20.565 -20.197  0.00  0.00    +0.126 C 
ATOM      5  C   UNL     1      36.158 -20.979 -19.607  0.00  0.00    +0.034 C 
ATOM      6  C   UNL     1      35.800 -21.871 -18.563  0.00  0.00    +0.153 C 
ATOM      7  C   UNL     1      34.423 -21.971 -18.553  0.00  0.00    +0.126 C 
ATOM      8  C   UNL     1      34.654 -19.693 -21.268  0.00  0.00    +0.247 C 
ATOM      9  C   UNL     1      37.546 -20.604 -19.946  0.00  0.00    +0.036 C 
ATOM     10  C   UNL     1      32.454 -20.153 -20.889  0.00  0.00    +0.220 C 
ENDROOT
BRANCH   6  11
ATOM     11  O   UNL     1      36.610 -22.524 -17.717  0.00  0.00    -0.470 OA
BRANCH  11  12
ATOM     12  C   UNL     1      36.931 -21.870 -16.485  0.00  0.00    +0.249 C 
BRANCH  12  13
ATOM     13  C   UNL     1      36.592 -22.802 -15.328  0.00  0.00    +0.212 C 
ATOM     14  C   UNL     1      35.095 -22.835 -15.061  0.00  0.00    +0.051 C 
BRANCH  13  15
ATOM     15  O   UNL     1      37.030 -24.116 -15.668  0.00  0.00    -0.450 OA
BRANCH  15  17
ATOM     16  O   UNL     1      39.216 -24.327 -14.971  0.00  0.00    -0.252 OA
ATOM     17  C   UNL     1      38.033 -24.629 -14.889  0.00  0.00    +0.296 C 
BRANCH  17  18
ATOM     18  C   UNL     1      37.448 -25.634 -13.915  0.00  0.00    +0.036 C 
ATOM     19  C   UNL     1      37.912 -25.338 -12.495  0.00  0.00    -0.013 C 
BRANCH  18  20
ATOM     20  N   UNL     1      37.895 -26.967 -14.312  0.00  0.00    +0.389 N 
ATOM     21  H   UNL     1      38.036 -26.991 -15.322  0.00  0.00    -0.088 HD
ATOM     22  H   UNL     1      37.187 -27.654 -14.052  0.00  0.00    -0.088 HD
ATOM     23  H   UNL     1      38.772 -27.188 -13.841  0.00  0.00    -0.088 HD
ENDBRANCH  18  20
ENDBRANCH  17  18
ENDBRANCH  15  17
ENDBRANCH  13  15
ENDBRANCH  12  13
ENDBRANCH  11  12
ENDBRANCH   6  11
BRANCH   8  24
ATOM     24  O   UNL     1      35.671 -19.082 -21.921  0.00  0.00    -0.433 OA
BRANCH  24  29
ATOM     25  F   UNL     1      35.299 -16.656 -20.688  0.00  0.00    -0.201 F 
ATOM     26  N   UNL     1      33.906 -14.634 -24.597  0.00  0.00    -0.316 N 
ATOM     27  C   UNL     1      34.587 -15.677 -22.746  0.00  0.00    +0.045 C 
ATOM     28  C   UNL     1      34.334 -15.849 -24.109  0.00  0.00    +0.050 C 
ATOM     29  C   UNL     1      35.231 -18.010 -22.638  0.00  0.00    +0.175 C 
ATOM     30  C   UNL     1      33.879 -13.705 -23.593  0.00  0.00    +0.026 C 
ATOM     31  C   UNL     1      35.044 -16.779 -21.997  0.00  0.00    +0.176 C 
ATOM     32  C   UNL     1      34.296 -14.320 -22.435  0.00  0.00    +0.014 C 
ATOM     33  C   UNL     1      34.516 -17.072 -24.763  0.00  0.00    +0.018 C 
ATOM     34  C   UNL     1      34.971 -18.152 -24.000  0.00  0.00    +0.041 C 
ATOM     35  C   UNL     1      33.454 -12.315 -23.846  0.00  0.00    +0.047 C 
ATOM     36  H   UNL     1      33.654 -14.461 -25.534  0.00  0.00    +0.152 HD
ENDBRANCH  24  29
ENDBRANCH   8  24
TORSDOF 9
ENDMDL
MODEL 4
REMARK VINA RESULT:     -10.7      3.984     10.699
REMARK  Name = 11154925
REMARK  9 active torsions:
REMARK  status: ('A' for Active; 'I' for Inactive)
REMARK    1  A    between atoms: C_6  and  O_11
REMARK    2  A    between atoms: C_8  and  O_24
REMARK    3  A    between atoms: O_11  and  C_12
REMARK    4  A    between atoms: C_12  and  C_13
REMARK    5  A    between atoms: C_13  and  O_15
REMARK    6  A    between atoms: O_15  and  C_17
REMARK    7  A    between atoms: C_17  and  C_18
REMARK    8  A    between atoms: C_18  and  N_20
REMARK    9  A    between atoms: O_24  and  C_29
REMARK                            x       y       z     vdW  Elec       q    Type
REMARK                         _______ _______ _______ _____ _____    ______ ____
ROOT
ATOM      1  N   UNL     1      34.022 -21.223 -19.529  0.00  0.00    -0.180 N 
ATOM      2  N   UNL     1      32.704 -21.109 -19.855  0.00  0.00    -0.151 NA
ATOM      3  N   UNL     1      33.386 -19.536 -21.560  0.00  0.00    -0.187 NA
ATOM      4  C   UNL     1      35.024 -20.539 -20.168  0.00  0.00    +0.126 C 
ATOM      5  C   UNL     1      36.224 -20.885 -19.591  0.00  0.00    +0.034 C 
ATOM      6  C   UNL     1      35.932 -21.817 -18.562  0.00  0.00    +0.153 C 
ATOM      7  C   UNL     1      34.564 -22.008 -18.546  0.00  0.00    +0.126 C 
ATOM      8  C   UNL     1      34.627 -19.672 -21.221  0.00  0.00    +0.247 C 
ATOM      9  C   UNL     1      37.582 -20.414 -19.931  0.00  0.00    +0.036 C 
ATOM     10  C   UNL     1      32.465 -20.283 -20.838  0.00  0.00    +0.220 C 
ENDROOT
BRANCH   6  11
ATOM     11  O   UNL     1      36.789 -22.429 -17.732  0.00  0.00    -0.470 OA
BRANCH  11  12
ATOM     12  C   UNL     1      37.058 -21.788 -16.481  0.00  0.00    +0.249 C 
BRANCH  12  13
ATOM     13  C   UNL     1      36.724 -22.752 -15.350  0.00  0.00    +0.212 C 
ATOM     14  C   UNL     1      35.228 -22.789 -15.073  0.00  0.00    +0.051 C 
BRANCH  13  15
ATOM     15  O   UNL     1      37.155 -24.057 -15.730  0.00  0.00    -0.450 OA
BRANCH  15  17
ATOM     16  O   UNL     1      39.307 -24.398 -14.981  0.00  0.00    -0.252 OA
ATOM     17  C   UNL     1      38.106 -24.628 -14.927  0.00  0.00    +0.296 C 
BRANCH  17  18
ATOM     18  C   UNL     1      37.438 -25.592 -13.965  0.00  0.00    +0.036 C 
ATOM     19  C   UNL     1      37.814 -25.264 -12.527  0.00  0.00    -0.013 C 
BRANCH  18  20
ATOM     20  N   UNL     1      37.883 -26.945 -14.295  0.00  0.00    +0.389 N 
ATOM     21  H   UNL     1      37.770 -27.106 -15.296  0.00  0.00    -0.088 HD
ATOM     22  H   UNL     1      37.323 -27.622 -13.777  0.00  0.00    -0.088 HD
ATOM     23  H   UNL     1      38.865 -27.052 -14.042  0.00  0.00    -0.088 HD
ENDBRANCH  18  20
ENDBRANCH  17  18
ENDBRANCH  15  17
ENDBRANCH  13  15
ENDBRANCH  12  13
ENDBRANCH  11  12
ENDBRANCH   6  11
BRANCH   8  24
ATOM     24  O   UNL     1      35.597 -18.984 -21.869  0.00  0.00    -0.433 OA
BRANCH  24  29
ATOM     25  F   UNL     1      34.934 -18.859 -24.531  0.00  0.00    -0.201 F 
ATOM     26  N   UNL     1      33.650 -14.434 -24.228  0.00  0.00    -0.316 N 
ATOM     27  C   UNL     1      34.288 -16.572 -24.300  0.00  0.00    +0.045 C 
ATOM     28  C   UNL     1      34.146 -15.464 -23.460  0.00  0.00    +0.050 C 
ATOM     29  C   UNL     1      35.117 -17.825 -22.400  0.00  0.00    +0.175 C 
ATOM     30  C   UNL     1      33.475 -14.851 -25.520  0.00  0.00    +0.026 C 
ATOM     31  C   UNL     1      34.783 -17.774 -23.759  0.00  0.00    +0.176 C 
ATOM     32  C   UNL     1      33.861 -16.170 -25.596  0.00  0.00    +0.014 C 
ATOM     33  C   UNL     1      34.475 -15.501 -22.101  0.00  0.00    +0.018 C 
ATOM     34  C   UNL     1      34.963 -16.705 -21.585  0.00  0.00    +0.041 C 
ATOM     35  C   UNL     1      32.954 -13.939 -26.555  0.00  0.00    +0.047 C 
ATOM     36  H   UNL     1      33.451 -13.529 -23.895  0.00  0.00    +0.152 HD
ENDBRANCH  24  29
ENDBRANCH   8  24
TORSDOF 9
ENDMDL
MODEL 5
REMARK VINA RESULT:     -10.3      5.359     12.085
REMARK  Name = 11154925
REMARK  9 active torsions:
REMARK  status: ('A' for Active; 'I' for Inactive)
REMARK    1  A    between atoms: C_6  and  O_11
REMARK    2  A    between atoms: C_8  and  O_24
REMARK    3  A    between atoms: O_11  and  C_12
REMARK    4  A    between atoms: C_12  and  C_13
REMARK    5  A    between atoms: C_13  and  O_15
REMARK    6  A    between atoms: O_15  and  C_17
REMARK    7  A    between atoms: C_17  and  C_18
REMARK    8  A    between atoms: C_18  and  N_20
REMARK    9  A    between atoms: O_24  and  C_29
REMARK                            x       y       z     vdW  Elec       q    Type
REMARK                         _______ _______ _______ _____ _____    ______ ____
ROOT
ATOM      1  N   UNL     1      34.103 -23.085 -15.526  0.00  0.00    -0.180 N 
ATOM      2  N   UNL     1      32.762 -23.312 -15.609  0.00  0.00    -0.151 NA
ATOM      3  N   UNL     1      32.997 -23.092 -18.005  0.00  0.00    -0.187 NA
ATOM      4  C   UNL     1      34.906 -22.864 -16.616  0.00  0.00    +0.126 C 
ATOM      5  C   UNL     1      36.195 -22.672 -16.176  0.00  0.00    +0.034 C 
ATOM      6  C   UNL     1      36.167 -22.782 -14.761  0.00  0.00    +0.153 C 
ATOM      7  C   UNL     1      34.863 -23.037 -14.387  0.00  0.00    +0.126 C 
ATOM      8  C   UNL     1      34.267 -22.880 -17.885  0.00  0.00    +0.247 C 
ATOM      9  C   UNL     1      37.410 -22.401 -16.970  0.00  0.00    +0.036 C 
ATOM     10  C   UNL     1      32.293 -23.302 -16.828  0.00  0.00    +0.220 C 
ENDROOT
BRANCH   6  11
ATOM     11  O   UNL     1      37.191 -22.668 -13.903  0.00  0.00    -0.470 OA
BRANCH  11  12
ATOM     12  C   UNL     1      37.059 -23.324 -12.637  0.00  0.00    +0.249 C 
BRANCH  12  13
ATOM     13  C   UNL     1      37.767 -24.672 -12.704  0.00  0.00    +0.212 C 
ATOM     14  C   UNL     1      37.158 -25.669 -11.730  0.00  0.00    +0.051 C 
BRANCH  13  15
ATOM     15  O   UNL     1      37.635 -25.183 -14.029  0.00  0.00    -0.450 OA
BRANCH  15  17
ATOM     16  O   UNL     1      38.257 -27.269 -14.784  0.00  0.00    -0.252 OA
ATOM     17  C   UNL     1      38.541 -26.145 -14.389  0.00  0.00    +0.296 C 
BRANCH  17  18
ATOM     18  C   UNL     1      39.946 -25.603 -14.215  0.00  0.00    +0.036 C 
ATOM     19  C   UNL     1      40.335 -24.727 -15.399  0.00  0.00    -0.013 C 
BRANCH  18  20
ATOM     20  N   UNL     1      40.863 -26.737 -14.119  0.00  0.00    +0.389 N 
ATOM     21  H   UNL     1      40.418 -27.568 -14.509  0.00  0.00    -0.088 HD
ATOM     22  H   UNL     1      41.096 -26.904 -13.140  0.00  0.00    -0.088 HD
ATOM     23  H   UNL     1      41.716 -26.531 -14.640  0.00  0.00    -0.088 HD
ENDBRANCH  18  20
ENDBRANCH  17  18
ENDBRANCH  15  17
ENDBRANCH  13  15
ENDBRANCH  12  13
ENDBRANCH  11  12
ENDBRANCH   6  11
BRANCH   8  24
ATOM     24  O   UNL     1      35.037 -22.665 -18.978  0.00  0.00    -0.433 OA
BRANCH  24  29
ATOM     25  F   UNL     1      36.945 -21.052 -20.117  0.00  0.00    -0.201 F 
ATOM     26  N   UNL     1      33.799 -18.037 -21.645  0.00  0.00    -0.316 N 
ATOM     27  C   UNL     1      35.263 -19.536 -20.876  0.00  0.00    +0.045 C 
ATOM     28  C   UNL     1      33.904 -19.219 -20.945  0.00  0.00    +0.050 C 
ATOM     29  C   UNL     1      34.669 -21.526 -19.630  0.00  0.00    +0.175 C 
ATOM     30  C   UNL     1      35.041 -17.598 -22.019  0.00  0.00    +0.026 C 
ATOM     31  C   UNL     1      35.652 -20.712 -20.206  0.00  0.00    +0.176 C 
ATOM     32  C   UNL     1      35.967 -18.505 -21.557  0.00  0.00    +0.014 C 
ATOM     33  C   UNL     1      32.912 -20.023 -20.375  0.00  0.00    +0.018 C 
ATOM     34  C   UNL     1      33.321 -21.186 -19.715  0.00  0.00    +0.041 C 
ATOM     35  C   UNL     1      35.213 -16.349 -22.783  0.00  0.00    +0.047 C 
ATOM     36  H   UNL     1      32.953 -17.575 -21.846  0.00  0.00    +0.152 HD
ENDBRANCH  24  29
ENDBRANCH   8  24
TORSDOF 9
ENDMDL
MODEL 6
REMARK VINA RESULT:     -10.3      3.536     10.171
REMARK  Name = 11154925
REMARK  9 active torsions:
REMARK  status: ('A' for Active; 'I' for Inactive)
REMARK    1  A    between atoms: C_6  and  O_11
REMARK    2  A    between atoms: C_8  and  O_24
REMARK    3  A    between atoms: O_11  and  C_12
REMARK    4  A    between atoms: C_12  and  C_13
REMARK    5  A    between atoms: C_13  and  O_15
REMARK    6  A    between atoms: O_15  and  C_17
REMARK    7  A    between atoms: C_17  and  C_18
REMARK    8  A    between atoms: C_18  and  N_20
REMARK    9  A    between atoms: O_24  and  C_29
REMARK                            x       y       z     vdW  Elec       q    Type
REMARK                         _______ _______ _______ _____ _____    ______ ____
ROOT
ATOM      1  N   UNL     1      34.075 -21.126 -19.661  0.00  0.00    -0.180 N 
ATOM      2  N   UNL     1      32.737 -21.054 -19.906  0.00  0.00    -0.151 NA
ATOM      3  N   UNL     1      33.261 -19.436 -21.625  0.00  0.00    -0.187 NA
ATOM      4  C   UNL     1      35.013 -20.399 -20.348  0.00  0.00    +0.126 C 
ATOM      5  C   UNL     1      36.257 -20.711 -19.850  0.00  0.00    +0.034 C 
ATOM      6  C   UNL     1      36.059 -21.666 -18.820  0.00  0.00    +0.153 C 
ATOM      7  C   UNL     1      34.702 -21.904 -18.725  0.00  0.00    +0.126 C 
ATOM      8  C   UNL     1      34.524 -19.534 -21.363  0.00  0.00    +0.247 C 
ATOM      9  C   UNL     1      37.575 -20.189 -20.264  0.00  0.00    +0.036 C 
ATOM     10  C   UNL     1      32.411 -20.224 -20.861  0.00  0.00    +0.220 C 
ENDROOT
BRANCH   6  11
ATOM     11  O   UNL     1      36.985 -22.259 -18.052  0.00  0.00    -0.470 OA
BRANCH  11  12
ATOM     12  C   UNL     1      37.043 -21.865 -16.677  0.00  0.00    +0.249 C 
BRANCH  12  13
ATOM     13  C   UNL     1      36.793 -23.087 -15.802  0.00  0.00    +0.212 C 
ATOM     14  C   UNL     1      37.489 -22.960 -14.455  0.00  0.00    +0.051 C 
BRANCH  13  15
ATOM     15  O   UNL     1      35.388 -23.205 -15.586  0.00  0.00    -0.450 OA
BRANCH  15  17
ATOM     16  O   UNL     1      35.436 -25.508 -15.565  0.00  0.00    -0.252 OA
ATOM     17  C   UNL     1      34.945 -24.445 -15.210  0.00  0.00    +0.296 C 
BRANCH  17  18
ATOM     18  C   UNL     1      33.750 -24.292 -14.288  0.00  0.00    +0.036 C 
ATOM     19  C   UNL     1      32.686 -23.412 -14.929  0.00  0.00    -0.013 C 
BRANCH  18  20
ATOM     20  N   UNL     1      34.210 -23.682 -13.042  0.00  0.00    +0.389 N 
ATOM     21  H   UNL     1      34.261 -22.670 -13.158  0.00  0.00    -0.088 HD
ATOM     22  H   UNL     1      35.135 -24.044 -12.808  0.00  0.00    -0.088 HD
ATOM     23  H   UNL     1      33.558 -23.907 -12.291  0.00  0.00    -0.088 HD
ENDBRANCH  18  20
ENDBRANCH  17  18
ENDBRANCH  15  17
ENDBRANCH  13  15
ENDBRANCH  12  13
ENDBRANCH  11  12
ENDBRANCH   6  11
BRANCH   8  24
ATOM     24  O   UNL     1      35.430 -18.804 -22.057  0.00  0.00    -0.433 OA
BRANCH  24  29
ATOM     25  F   UNL     1      34.953 -17.569 -24.464  0.00  0.00    -0.201 F 
ATOM     26  N   UNL     1      34.036 -13.516 -22.452  0.00  0.00    -0.316 N 
ATOM     27  C   UNL     1      34.492 -15.505 -23.355  0.00  0.00    +0.045 C 
ATOM     28  C   UNL     1      34.391 -14.811 -22.147  0.00  0.00    +0.050 C 
ATOM     29  C   UNL     1      35.086 -17.486 -22.093  0.00  0.00    +0.175 C 
ATOM     30  C   UNL     1      33.910 -13.368 -23.807  0.00  0.00    +0.026 C 
ATOM     31  C   UNL     1      34.846 -16.868 -23.327  0.00  0.00    +0.176 C 
ATOM     32  C   UNL     1      34.185 -14.582 -24.393  0.00  0.00    +0.014 C 
ATOM     33  C   UNL     1      34.628 -15.415 -20.907  0.00  0.00    +0.018 C 
ATOM     34  C   UNL     1      34.977 -16.769 -20.904  0.00  0.00    +0.041 C 
ATOM     35  C   UNL     1      33.536 -12.073 -24.405  0.00  0.00    +0.047 C 
ATOM     36  H   UNL     1      33.894 -12.800 -21.791  0.00  0.00    +0.152 HD
ENDBRANCH  24  29
ENDBRANCH   8  24
TORSDOF 9
ENDMDL
MODEL 7
REMARK VINA RESULT:     -10.2      6.011     12.304
REMARK  Name = 11154925
REMARK  9 active torsions:
REMARK  status: ('A' for Active; 'I' for Inactive)
REMARK    1  A    between atoms: C_6  and  O_11
REMARK    2  A    between atoms: C_8  and  O_24
REMARK    3  A    between atoms: O_11  and  C_12
REMARK    4  A    between atoms: C_12  and  C_13
REMARK    5  A    between atoms: C_13  and  O_15
REMARK    6  A    between atoms: O_15  and  C_17
REMARK    7  A    between atoms: C_17  and  C_18
REMARK    8  A    between atoms: C_18  and  N_20
REMARK    9  A    between atoms: O_24  and  C_29
REMARK                            x       y       z     vdW  Elec       q    Type
REMARK                         _______ _______ _______ _____ _____    ______ ____
ROOT
ATOM      1  N   UNL     1      32.423 -23.451 -15.023  0.00  0.00    -0.180 N 
ATOM      2  N   UNL     1      31.149 -23.131 -15.385  0.00  0.00    -0.151 NA
ATOM      3  N   UNL     1      31.994 -22.816 -17.628  0.00  0.00    -0.187 NA
ATOM      4  C   UNL     1      33.479 -23.468 -15.898  0.00  0.00    +0.126 C 
ATOM      5  C   UNL     1      34.612 -23.831 -15.206  0.00  0.00    +0.034 C 
ATOM      6  C   UNL     1      34.221 -24.042 -13.859  0.00  0.00    +0.153 C 
ATOM      7  C   UNL     1      32.864 -23.801 -13.774  0.00  0.00    +0.126 C 
ATOM      8  C   UNL     1      33.190 -23.126 -17.246  0.00  0.00    +0.247 C 
ATOM      9  C   UNL     1      35.991 -23.988 -15.711  0.00  0.00    +0.036 C 
ATOM     10  C   UNL     1      31.010 -22.835 -16.649  0.00  0.00    +0.220 C 
ENDROOT
BRANCH   6  11
ATOM     11  O   UNL     1      34.988 -24.409 -12.822  0.00  0.00    -0.470 OA
BRANCH  11  12
ATOM     12  C   UNL     1      35.949 -23.458 -12.351  0.00  0.00    +0.249 C 
BRANCH  12  13
ATOM     13  C   UNL     1      36.514 -23.944 -11.023  0.00  0.00    +0.212 C 
ATOM     14  C   UNL     1      35.425 -24.520 -10.130  0.00  0.00    +0.051 C 
BRANCH  13  15
ATOM     15  O   UNL     1      37.477 -24.963 -11.291  0.00  0.00    -0.450 OA
BRANCH  15  17
ATOM     16  O   UNL     1      39.113 -23.545 -12.081  0.00  0.00    -0.252 OA
ATOM     17  C   UNL     1      38.504 -24.607 -12.124  0.00  0.00    +0.296 C 
BRANCH  17  18
ATOM     18  C   UNL     1      38.764 -25.730 -13.109  0.00  0.00    +0.036 C 
ATOM     19  C   UNL     1      39.264 -25.176 -14.437  0.00  0.00    -0.013 C 
BRANCH  18  20
ATOM     20  N   UNL     1      37.510 -26.452 -13.317  0.00  0.00    +0.389 N 
ATOM     21  H   UNL     1      37.255 -26.413 -14.304  0.00  0.00    -0.088 HD
ATOM     22  H   UNL     1      36.773 -26.021 -12.758  0.00  0.00    -0.088 HD
ATOM     23  H   UNL     1      37.626 -27.425 -13.034  0.00  0.00    -0.088 HD
ENDBRANCH  18  20
ENDBRANCH  17  18
ENDBRANCH  15  17
ENDBRANCH  13  15
ENDBRANCH  12  13
ENDBRANCH  11  12
ENDBRANCH   6  11
BRANCH   8  24
ATOM     24  O   UNL     1      34.215 -23.135 -18.131  0.00  0.00    -0.433 OA
BRANCH  24  29
ATOM     25  F   UNL     1      36.530 -21.950 -19.014  0.00  0.00    -0.201 F 
ATOM     26  N   UNL     1      34.234 -18.816 -21.508  0.00  0.00    -0.316 N 
ATOM     27  C   UNL     1      35.277 -20.360 -20.280  0.00  0.00    +0.045 C 
ATOM     28  C   UNL     1      34.021 -19.890 -20.672  0.00  0.00    +0.050 C 
ATOM     29  C   UNL     1      34.158 -22.064 -18.971  0.00  0.00    +0.175 C 
ATOM     30  C   UNL     1      35.576 -18.592 -21.657  0.00  0.00    +0.026 C 
ATOM     31  C   UNL     1      35.345 -21.468 -19.413  0.00  0.00    +0.176 C 
ATOM     32  C   UNL     1      36.248 -19.532 -20.909  0.00  0.00    +0.014 C 
ATOM     33  C   UNL     1      32.827 -20.475 -20.238  0.00  0.00    +0.018 C 
ATOM     34  C   UNL     1      32.919 -21.574 -19.379  0.00  0.00    +0.041 C 
ATOM     35  C   UNL     1      36.081 -17.496 -22.504  0.00  0.00    +0.047 C 
ATOM     36  H   UNL     1      33.523 -18.286 -21.936  0.00  0.00    +0.152 HD
ENDBRANCH  24  29
ENDBRANCH   8  24
TORSDOF 9
ENDMDL
MODEL 8
REMARK VINA RESULT:     -10.0      3.370      6.025
REMARK  Name = 11154925
REMARK  9 active torsions:
REMARK  status: ('A' for Active; 'I' for Inactive)
REMARK    1  A    between atoms: C_6  and  O_11
REMARK    2  A    between atoms: C_8  and  O_24
REMARK    3  A    between atoms: O_11  and  C_12
REMARK    4  A    between atoms: C_12  and  C_13
REMARK    5  A    between atoms: C_13  and  O_15
REMARK    6  A    between atoms: O_15  and  C_17
REMARK    7  A    between atoms: C_17  and  C_18
REMARK    8  A    between atoms: C_18  and  N_20
REMARK    9  A    between atoms: O_24  and  C_29
REMARK                            x       y       z     vdW  Elec       q    Type
REMARK                         _______ _______ _______ _____ _____    ______ ____
ROOT
ATOM      1  N   UNL     1      33.524  -9.983 -23.570  0.00  0.00    -0.180 N 
ATOM      2  N   UNL     1      34.442 -10.118 -24.568  0.00  0.00    -0.151 NA
ATOM      3  N   UNL     1      33.789 -12.443 -24.689  0.00  0.00    -0.187 NA
ATOM      4  C   UNL     1      32.741 -11.013 -23.114  0.00  0.00    +0.126 C 
ATOM      5  C   UNL     1      31.932 -10.533 -22.110  0.00  0.00    +0.034 C 
ATOM      6  C   UNL     1      32.241  -9.156 -21.956  0.00  0.00    +0.153 C 
ATOM      7  C   UNL     1      33.227  -8.844 -22.871  0.00  0.00    +0.126 C 
ATOM      8  C   UNL     1      32.927 -12.274 -23.740  0.00  0.00    +0.247 C 
ATOM      9  C   UNL     1      30.922 -11.257 -21.312  0.00  0.00    +0.036 C 
ATOM     10  C   UNL     1      34.521 -11.325 -25.063  0.00  0.00    +0.220 C 
ENDROOT
BRANCH   6  11
ATOM     11  O   UNL     1      31.703  -8.279 -21.097  0.00  0.00    -0.470 OA
BRANCH  11  12
ATOM     12  C   UNL     1      32.116  -6.913 -21.212  0.00  0.00    +0.249 C 
BRANCH  12  13
ATOM     13  C   UNL     1      31.128  -6.172 -22.104  0.00  0.00    +0.212 C 
ATOM     14  C   UNL     1      30.396  -5.081 -21.338  0.00  0.00    +0.051 C 
BRANCH  13  15
ATOM     15  O   UNL     1      31.853  -5.575 -23.178  0.00  0.00    -0.450 OA
BRANCH  15  17
ATOM     16  O   UNL     1      30.901  -7.011 -24.707  0.00  0.00    -0.252 OA
ATOM     17  C   UNL     1      31.487  -5.971 -24.437  0.00  0.00    +0.296 C 
BRANCH  17  18
ATOM     18  C   UNL     1      31.926  -4.922 -25.441  0.00  0.00    +0.036 C 
ATOM     19  C   UNL     1      33.307  -5.251 -25.992  0.00  0.00    -0.013 C 
BRANCH  18  20
ATOM     20  N   UNL     1      31.961  -3.628 -24.762  0.00  0.00    +0.389 N 
ATOM     21  H   UNL     1      32.874  -3.496 -24.329  0.00  0.00    -0.088 HD
ATOM     22  H   UNL     1      31.237  -3.603 -24.043  0.00  0.00    -0.088 HD
ATOM     23  H   UNL     1      31.793  -2.884 -25.438  0.00  0.00    -0.088 HD
ENDBRANCH  18  20
ENDBRANCH  17  18
ENDBRANCH  15  17
ENDBRANCH  13  15
ENDBRANCH  12  13
ENDBRANCH  11  12
ENDBRANCH   6  11
BRANCH   8  24
ATOM     24  O   UNL     1      32.167 -13.308 -23.307  0.00  0.00    -0.433 OA
BRANCH  24  29
ATOM     25  F   UNL     1      33.399 -15.421 -24.556  0.00  0.00    -0.201 F 
ATOM     26  N   UNL     1      35.167 -17.013 -20.599  0.00  0.00    -0.316 N 
ATOM     27  C   UNL     1      34.279 -16.187 -22.472  0.00  0.00    +0.045 C 
ATOM     28  C   UNL     1      34.384 -15.993 -21.092  0.00  0.00    +0.050 C 
ATOM     29  C   UNL     1      32.901 -14.198 -22.582  0.00  0.00    +0.175 C 
ATOM     30  C   UNL     1      35.559 -17.842 -21.615  0.00  0.00    +0.026 C 
ATOM     31  C   UNL     1      33.524 -15.271 -23.230  0.00  0.00    +0.176 C 
ATOM     32  C   UNL     1      35.026 -17.356 -22.787  0.00  0.00    +0.014 C 
ATOM     33  C   UNL     1      33.767 -14.925 -20.431  0.00  0.00    +0.018 C 
ATOM     34  C   UNL     1      33.023 -14.029 -21.204  0.00  0.00    +0.041 C 
ATOM     35  C   UNL     1      36.408 -19.020 -21.358  0.00  0.00    +0.047 C 
ATOM     36  H   UNL     1      35.408 -17.129 -19.651  0.00  0.00    +0.152 HD
ENDBRANCH  24  29
ENDBRANCH   8  24
TORSDOF 9
ENDMDL
MODEL 9
REMARK VINA RESULT:     -10.0      5.311     10.497
REMARK  Name = 11154925
REMARK  9 active torsions:
REMARK  status: ('A' for Active; 'I' for Inactive)
REMARK    1  A    between atoms: C_6  and  O_11
REMARK    2  A    between atoms: C_8  and  O_24
REMARK    3  A    between atoms: O_11  and  C_12
REMARK    4  A    between atoms: C_12  and  C_13
REMARK    5  A    between atoms: C_13  and  O_15
REMARK    6  A    between atoms: O_15  and  C_17
REMARK    7  A    between atoms: C_17  and  C_18
REMARK    8  A    between atoms: C_18  and  N_20
REMARK    9  A    between atoms: O_24  and  C_29
REMARK                            x       y       z     vdW  Elec       q    Type
REMARK                         _______ _______ _______ _____ _____    ______ ____
ROOT
ATOM      1  N   UNL     1      35.782 -22.498 -15.601  0.00  0.00    -0.180 N 
ATOM      2  N   UNL     1      36.957 -21.815 -15.493  0.00  0.00    -0.151 NA
ATOM      3  N   UNL     1      36.939 -21.643 -17.904  0.00  0.00    -0.187 NA
ATOM      4  C   UNL     1      35.168 -22.768 -16.797  0.00  0.00    +0.126 C 
ATOM      5  C   UNL     1      34.012 -23.468 -16.545  0.00  0.00    +0.034 C 
ATOM      6  C   UNL     1      33.926 -23.626 -15.137  0.00  0.00    +0.153 C 
ATOM      7  C   UNL     1      35.032 -23.018 -14.580  0.00  0.00    +0.126 C 
ATOM      8  C   UNL     1      35.823 -22.293 -17.966  0.00  0.00    +0.247 C 
ATOM      9  C   UNL     1      33.014 -23.982 -17.506  0.00  0.00    +0.036 C 
ATOM     10  C   UNL     1      37.460 -21.432 -16.636  0.00  0.00    +0.220 C 
ENDROOT
BRANCH   6  11
ATOM     11  O   UNL     1      32.968 -24.244 -14.431  0.00  0.00    -0.470 OA
BRANCH  11  12
ATOM     12  C   UNL     1      31.806 -23.478 -14.095  0.00  0.00    +0.249 C 
BRANCH  12  13
ATOM     13  C   UNL     1      30.620 -24.004 -14.892  0.00  0.00    +0.212 C 
ATOM     14  C   UNL     1      29.874 -25.089 -14.130  0.00  0.00    +0.051 C 
BRANCH  13  15
ATOM     15  O   UNL     1      29.728 -22.918 -15.139  0.00  0.00    -0.450 OA
BRANCH  15  17
ATOM     16  O   UNL     1      30.471 -22.120 -17.169  0.00  0.00    -0.252 OA
ATOM     17  C   UNL     1      29.580 -22.556 -16.452  0.00  0.00    +0.296 C 
BRANCH  17  18
ATOM     18  C   UNL     1      28.140 -22.775 -16.874  0.00  0.00    +0.036 C 
ATOM     19  C   UNL     1      27.184 -22.318 -15.781  0.00  0.00    -0.013 C 
BRANCH  18  20
ATOM     20  N   UNL     1      27.952 -24.203 -17.128  0.00  0.00    +0.389 N 
ATOM     21  H   UNL     1      28.489 -24.474 -17.951  0.00  0.00    -0.088 HD
ATOM     22  H   UNL     1      26.963 -24.392 -17.288  0.00  0.00    -0.088 HD
ATOM     23  H   UNL     1      28.273 -24.737 -16.320  0.00  0.00    -0.088 HD
ENDBRANCH  18  20
ENDBRANCH  17  18
ENDBRANCH  15  17
ENDBRANCH  13  15
ENDBRANCH  12  13
ENDBRANCH  11  12
ENDBRANCH   6  11
BRANCH   8  24
ATOM     24  O   UNL     1      35.237 -22.547 -19.161  0.00  0.00    -0.433 OA
BRANCH  24  29
ATOM     25  F   UNL     1      37.026 -20.929 -20.474  0.00  0.00    -0.201 F 
ATOM     26  N   UNL     1      33.755 -17.887 -21.640  0.00  0.00    -0.316 N 
ATOM     27  C   UNL     1      35.283 -19.399 -21.041  0.00  0.00    +0.045 C 
ATOM     28  C   UNL     1      33.926 -19.076 -20.966  0.00  0.00    +0.050 C 
ATOM     29  C   UNL     1      34.811 -21.400 -19.760  0.00  0.00    +0.175 C 
ATOM     30  C   UNL     1      34.954 -17.449 -22.135  0.00  0.00    +0.026 C 
ATOM     31  C   UNL     1      35.733 -20.583 -20.426  0.00  0.00    +0.176 C 
ATOM     32  C   UNL     1      35.918 -18.364 -21.781  0.00  0.00    +0.014 C 
ATOM     33  C   UNL     1      32.993 -19.882 -20.305  0.00  0.00    +0.018 C 
ATOM     34  C   UNL     1      33.462 -21.053 -19.702  0.00  0.00    +0.041 C 
ATOM     35  C   UNL     1      35.053 -16.192 -22.901  0.00  0.00    +0.047 C 
ATOM     36  H   UNL     1      32.895 -17.419 -21.748  0.00  0.00    +0.152 HD
ENDBRANCH  24  29
ENDBRANCH   8  24
TORSDOF 9
ENDMDL
