MODEL 1
REMARK VINA RESULT:      -8.1      0.000      0.000
REMARK  Name = 736299
REMARK  4 active torsions:
REMARK  status: ('A' for Active; 'I' for Inactive)
REMARK    1  A    between atoms: C_5  and  C_16
REMARK    2  A    between atoms: C_6  and  O_11
REMARK    3  A    between atoms: C_9  and  O_13
REMARK    4  A    between atoms: C_16  and  O_17
REMARK                            x       y       z     vdW  Elec       q    Type
REMARK                         _______ _______ _______ _____ _____    ______ ____
ROOT
ATOM      1  C   UNL     1      34.566 -20.054 -20.847  0.00  0.00    +0.003 C 
ATOM      2  C   UNL     1      35.932 -20.007 -20.480  0.00  0.00    +0.003 C 
ATOM      3  C   UNL     1      33.706 -20.942 -20.182  0.00  0.00    +0.010 C 
ATOM      4  C   UNL     1      36.397 -20.851 -19.458  0.00  0.00    +0.037 C 
ATOM      5  C   UNL     1      34.186 -21.773 -19.169  0.00  0.00    +0.109 C 
ATOM      6  C   UNL     1      35.529 -21.728 -18.809  0.00  0.00    +0.140 C 
ATOM      7  C   UNL     1      34.100 -19.209 -21.868  0.00  0.00    +0.037 C 
ATOM      8  C   UNL     1      36.792 -19.117 -21.145  0.00  0.00    +0.003 C 
ATOM      9  C   UNL     1      34.968 -18.332 -22.518  0.00  0.00    +0.134 C 
ATOM     10  C   UNL     1      36.312 -18.286 -22.157  0.00  0.00    +0.037 C 
ENDROOT
BRANCH   6  11
ATOM     11  O   UNL     1      36.016 -22.532 -17.820  0.00  0.00    -0.505 OA
ATOM     12  H   UNL     1      35.426 -22.981 -17.249  0.00  0.00    +0.292 HD
ENDBRANCH   6  11
BRANCH   9  13
ATOM     13  O   UNL     1      34.503 -17.520 -23.505  0.00  0.00    -0.506 OA
ATOM     14  H   UNL     1      35.101 -17.128 -24.112  0.00  0.00    +0.292 HD
ENDBRANCH   9  13
BRANCH   5  16
ATOM     15  O   UNL     1      32.191 -22.356 -17.983  0.00  0.00    -0.245 OA
ATOM     16  C   UNL     1      33.263 -22.682 -18.503  0.00  0.00    +0.341 C 
BRANCH  16  17
ATOM     17  O   UNL     1      33.706 -23.968 -18.507  0.00  0.00    -0.477 OA
ATOM     18  H   UNL     1      34.592 -24.156 -18.750  0.00  0.00    +0.295 HD
ENDBRANCH  16  17
ENDBRANCH   5  16
TORSDOF 4
ENDMDL
MODEL 2
REMARK VINA RESULT:      -8.1      1.286      5.212
REMARK  Name = 736299
REMARK  4 active torsions:
REMARK  status: ('A' for Active; 'I' for Inactive)
REMARK    1  A    between atoms: C_5  and  C_16
REMARK    2  A    between atoms: C_6  and  O_11
REMARK    3  A    between atoms: C_9  and  O_13
REMARK    4  A    between atoms: C_16  and  O_17
REMARK                            x       y       z     vdW  Elec       q    Type
REMARK                         _______ _______ _______ _____ _____    ______ ____
ROOT
ATOM      1  C   UNL     1      34.261 -20.116 -20.515  0.00  0.00    +0.003 C 
ATOM      2  C   UNL     1      35.584 -20.505 -20.198  0.00  0.00    +0.003 C 
ATOM      3  C   UNL     1      34.053 -19.074 -21.433  0.00  0.00    +0.010 C 
ATOM      4  C   UNL     1      36.660 -19.838 -20.807  0.00  0.00    +0.037 C 
ATOM      5  C   UNL     1      35.134 -18.424 -22.029  0.00  0.00    +0.109 C 
ATOM      6  C   UNL     1      36.435 -18.805 -21.716  0.00  0.00    +0.140 C 
ATOM      7  C   UNL     1      33.185 -20.782 -19.907  0.00  0.00    +0.037 C 
ATOM      8  C   UNL     1      35.793 -21.548 -19.281  0.00  0.00    +0.003 C 
ATOM      9  C   UNL     1      33.410 -21.817 -18.998  0.00  0.00    +0.134 C 
ATOM     10  C   UNL     1      34.712 -22.198 -18.686  0.00  0.00    +0.037 C 
ENDROOT
BRANCH   6  11
ATOM     11  O   UNL     1      37.504 -18.181 -22.289  0.00  0.00    -0.505 OA
ATOM     12  H   UNL     1      38.276 -18.018 -21.785  0.00  0.00    +0.292 HD
ENDBRANCH   6  11
BRANCH   9  13
ATOM     13  O   UNL     1      32.358 -22.453 -18.416  0.00  0.00    -0.506 OA
ATOM     14  H   UNL     1      31.730 -21.964 -17.920  0.00  0.00    +0.292 HD
ENDBRANCH   9  13
BRANCH   5  16
ATOM     15  O   UNL     1      34.237 -16.319 -22.731  0.00  0.00    -0.245 OA
ATOM     16  C   UNL     1      34.877 -17.346 -22.975  0.00  0.00    +0.341 C 
BRANCH  16  17
ATOM     17  O   UNL     1      35.427 -17.586 -24.196  0.00  0.00    -0.477 OA
ATOM     18  H   UNL     1      36.013 -16.960 -24.576  0.00  0.00    +0.295 HD
ENDBRANCH  16  17
ENDBRANCH   5  16
TORSDOF 4
ENDMDL
MODEL 3
REMARK VINA RESULT:      -7.8      3.666      7.577
REMARK  Name = 736299
REMARK  4 active torsions:
REMARK  status: ('A' for Active; 'I' for Inactive)
REMARK    1  A    between atoms: C_5  and  C_16
REMARK    2  A    between atoms: C_6  and  O_11
REMARK    3  A    between atoms: C_9  and  O_13
REMARK    4  A    between atoms: C_16  and  O_17
REMARK                            x       y       z     vdW  Elec       q    Type
REMARK                         _______ _______ _______ _____ _____    ______ ____
ROOT
ATOM      1  C   UNL     1      34.640 -16.702 -22.906  0.00  0.00    +0.003 C 
ATOM      2  C   UNL     1      34.670 -17.563 -24.029  0.00  0.00    +0.003 C 
ATOM      3  C   UNL     1      34.179 -15.385 -23.063  0.00  0.00    +0.010 C 
ATOM      4  C   UNL     1      34.239 -17.080 -25.276  0.00  0.00    +0.037 C 
ATOM      5  C   UNL     1      33.754 -14.923 -24.309  0.00  0.00    +0.109 C 
ATOM      6  C   UNL     1      33.785 -15.769 -25.413  0.00  0.00    +0.140 C 
ATOM      7  C   UNL     1      35.070 -17.184 -21.659  0.00  0.00    +0.037 C 
ATOM      8  C   UNL     1      35.130 -18.880 -23.872  0.00  0.00    +0.003 C 
ATOM      9  C   UNL     1      35.524 -18.496 -21.521  0.00  0.00    +0.134 C 
ATOM     10  C   UNL     1      35.554 -19.342 -22.626  0.00  0.00    +0.037 C 
ENDROOT
BRANCH   6  11
ATOM     11  O   UNL     1      33.373 -15.335 -26.639  0.00  0.00    -0.505 OA
ATOM     12  H   UNL     1      33.444 -14.429 -26.864  0.00  0.00    +0.292 HD
ENDBRANCH   6  11
BRANCH   9  13
ATOM     13  O   UNL     1      35.938 -18.949 -20.307  0.00  0.00    -0.506 OA
ATOM     14  H   UNL     1      36.831 -19.208 -20.182  0.00  0.00    +0.292 HD
ENDBRANCH   9  13
BRANCH   5  16
ATOM     15  O   UNL     1      33.589 -12.769 -25.339  0.00  0.00    -0.245 OA
ATOM     16  C   UNL     1      33.284 -13.549 -24.432  0.00  0.00    +0.341 C 
BRANCH  16  17
ATOM     17  O   UNL     1      32.448 -13.194 -23.419  0.00  0.00    -0.477 OA
ATOM     18  H   UNL     1      31.578 -13.542 -23.387  0.00  0.00    +0.295 HD
ENDBRANCH  16  17
ENDBRANCH   5  16
TORSDOF 4
ENDMDL
MODEL 4
REMARK VINA RESULT:      -7.8      3.644      5.177
REMARK  Name = 736299
REMARK  4 active torsions:
REMARK  status: ('A' for Active; 'I' for Inactive)
REMARK    1  A    between atoms: C_5  and  C_16
REMARK    2  A    between atoms: C_6  and  O_11
REMARK    3  A    between atoms: C_9  and  O_13
REMARK    4  A    between atoms: C_16  and  O_17
REMARK                            x       y       z     vdW  Elec       q    Type
REMARK                         _______ _______ _______ _____ _____    ______ ____
ROOT
ATOM      1  C   UNL     1      34.716 -22.982 -16.701  0.00  0.00    +0.003 C 
ATOM      2  C   UNL     1      35.989 -22.421 -16.961  0.00  0.00    +0.003 C 
ATOM      3  C   UNL     1      34.481 -23.609 -15.466  0.00  0.00    +0.010 C 
ATOM      4  C   UNL     1      36.989 -22.504 -15.979  0.00  0.00    +0.037 C 
ATOM      5  C   UNL     1      35.487 -23.681 -14.502  0.00  0.00    +0.109 C 
ATOM      6  C   UNL     1      36.738 -23.131 -14.758  0.00  0.00    +0.140 C 
ATOM      7  C   UNL     1      33.715 -22.899 -17.682  0.00  0.00    +0.037 C 
ATOM      8  C   UNL     1      36.223 -21.794 -18.195  0.00  0.00    +0.003 C 
ATOM      9  C   UNL     1      33.965 -22.272 -18.903  0.00  0.00    +0.134 C 
ATOM     10  C   UNL     1      35.217 -21.720 -19.159  0.00  0.00    +0.037 C 
ENDROOT
BRANCH   6  11
ATOM     11  O   UNL     1      37.734 -23.191 -13.828  0.00  0.00    -0.505 OA
ATOM     12  H   UNL     1      37.562 -22.942 -12.942  0.00  0.00    +0.292 HD
ENDBRANCH   6  11
BRANCH   9  13
ATOM     13  O   UNL     1      32.986 -22.199 -19.844  0.00  0.00    -0.506 OA
ATOM     14  H   UNL     1      33.118 -21.690 -20.621  0.00  0.00    +0.292 HD
ENDBRANCH   9  13
BRANCH   5  16
ATOM     15  O   UNL     1      34.370 -23.966 -12.405  0.00  0.00    -0.245 OA
ATOM     16  C   UNL     1      35.205 -24.340 -13.234  0.00  0.00    +0.341 C 
BRANCH  16  17
ATOM     17  O   UNL     1      35.974 -25.445 -13.040  0.00  0.00    -0.477 OA
ATOM     18  H   UNL     1      36.639 -25.442 -12.379  0.00  0.00    +0.295 HD
ENDBRANCH  16  17
ENDBRANCH   5  16
TORSDOF 4
ENDMDL
MODEL 5
REMARK VINA RESULT:      -7.7      3.609      5.803
REMARK  Name = 736299
REMARK  4 active torsions:
REMARK  status: ('A' for Active; 'I' for Inactive)
REMARK    1  A    between atoms: C_5  and  C_16
REMARK    2  A    between atoms: C_6  and  O_11
REMARK    3  A    between atoms: C_9  and  O_13
REMARK    4  A    between atoms: C_16  and  O_17
REMARK                            x       y       z     vdW  Elec       q    Type
REMARK                         _______ _______ _______ _____ _____    ______ ____
ROOT
ATOM      1  C   UNL     1      34.291 -16.156 -23.948  0.00  0.00    +0.003 C 
ATOM      2  C   UNL     1      33.946 -15.021 -23.175  0.00  0.00    +0.003 C 
ATOM      3  C   UNL     1      34.889 -17.259 -23.319  0.00  0.00    +0.010 C 
ATOM      4  C   UNL     1      34.212 -15.025 -21.796  0.00  0.00    +0.037 C 
ATOM      5  C   UNL     1      35.145 -17.245 -21.948  0.00  0.00    +0.109 C 
ATOM      6  C   UNL     1      34.807 -16.130 -21.188  0.00  0.00    +0.140 C 
ATOM      7  C   UNL     1      34.025 -16.154 -25.327  0.00  0.00    +0.037 C 
ATOM      8  C   UNL     1      33.347 -13.918 -23.804  0.00  0.00    +0.003 C 
ATOM      9  C   UNL     1      33.429 -15.049 -25.935  0.00  0.00    +0.134 C 
ATOM     10  C   UNL     1      33.090 -13.933 -25.175  0.00  0.00    +0.037 C 
ENDROOT
BRANCH   6  11
ATOM     11  O   UNL     1      35.049 -16.097 -19.846  0.00  0.00    -0.505 OA
ATOM     12  H   UNL     1      35.651 -15.473 -19.494  0.00  0.00    +0.292 HD
ENDBRANCH   6  11
BRANCH   9  13
ATOM     13  O   UNL     1      33.177 -15.061 -27.272  0.00  0.00    -0.506 OA
ATOM     14  H   UNL     1      33.525 -14.384 -27.821  0.00  0.00    +0.292 HD
ENDBRANCH   9  13
BRANCH   5  16
ATOM     15  O   UNL     1      36.947 -18.746 -21.474  0.00  0.00    -0.245 OA
ATOM     16  C   UNL     1      35.768 -18.409 -21.332  0.00  0.00    +0.341 C 
BRANCH  16  17
ATOM     17  O   UNL     1      34.900 -19.114 -20.558  0.00  0.00    -0.477 OA
ATOM     18  H   UNL     1      34.322 -19.737 -20.952  0.00  0.00    +0.295 HD
ENDBRANCH  16  17
ENDBRANCH   5  16
TORSDOF 4
ENDMDL
MODEL 6
REMARK VINA RESULT:      -7.7      3.808      5.733
REMARK  Name = 736299
REMARK  4 active torsions:
REMARK  status: ('A' for Active; 'I' for Inactive)
REMARK    1  A    between atoms: C_5  and  C_16
REMARK    2  A    between atoms: C_6  and  O_11
REMARK    3  A    between atoms: C_9  and  O_13
REMARK    4  A    between atoms: C_16  and  O_17
REMARK                            x       y       z     vdW  Elec       q    Type
REMARK                         _______ _______ _______ _____ _____    ______ ____
ROOT
ATOM      1  C   UNL     1      33.456 -15.401 -21.898  0.00  0.00    +0.003 C 
ATOM      2  C   UNL     1      34.075 -15.166 -23.148  0.00  0.00    +0.003 C 
ATOM      3  C   UNL     1      33.731 -16.594 -21.209  0.00  0.00    +0.010 C 
ATOM      4  C   UNL     1      34.950 -16.131 -23.673  0.00  0.00    +0.037 C 
ATOM      5  C   UNL     1      34.604 -17.540 -21.745  0.00  0.00    +0.109 C 
ATOM      6  C   UNL     1      35.212 -17.310 -22.975  0.00  0.00    +0.140 C 
ATOM      7  C   UNL     1      32.581 -14.437 -21.372  0.00  0.00    +0.037 C 
ATOM      8  C   UNL     1      33.800 -13.973 -23.837  0.00  0.00    +0.003 C 
ATOM      9  C   UNL     1      32.319 -13.258 -22.070  0.00  0.00    +0.134 C 
ATOM     10  C   UNL     1      32.928 -13.026 -23.300  0.00  0.00    +0.037 C 
ENDROOT
BRANCH   6  11
ATOM     11  O   UNL     1      36.069 -18.223 -23.515  0.00  0.00    -0.505 OA
ATOM     12  H   UNL     1      36.789 -18.544 -23.011  0.00  0.00    +0.292 HD
ENDBRANCH   6  11
BRANCH   9  13
ATOM     13  O   UNL     1      31.469 -12.332 -21.549  0.00  0.00    -0.506 OA
ATOM     14  H   UNL     1      30.628 -12.195 -21.940  0.00  0.00    +0.292 HD
ENDBRANCH   9  13
BRANCH   5  16
ATOM     15  O   UNL     1      34.021 -19.624 -20.724  0.00  0.00    -0.245 OA
ATOM     16  C   UNL     1      34.864 -18.765 -21.001  0.00  0.00    +0.341 C 
BRANCH  16  17
ATOM     17  O   UNL     1      36.166 -18.879 -20.625  0.00  0.00    -0.477 OA
ATOM     18  H   UNL     1      36.387 -19.316 -19.826  0.00  0.00    +0.295 HD
ENDBRANCH  16  17
ENDBRANCH   5  16
TORSDOF 4
ENDMDL
MODEL 7
REMARK VINA RESULT:      -7.7      1.174      2.482
REMARK  Name = 736299
REMARK  4 active torsions:
REMARK  status: ('A' for Active; 'I' for Inactive)
REMARK    1  A    between atoms: C_5  and  C_16
REMARK    2  A    between atoms: C_6  and  O_11
REMARK    3  A    between atoms: C_9  and  O_13
REMARK    4  A    between atoms: C_16  and  O_17
REMARK                            x       y       z     vdW  Elec       q    Type
REMARK                         _______ _______ _______ _____ _____    ______ ____
ROOT
ATOM      1  C   UNL     1      35.488 -20.431 -20.165  0.00  0.00    +0.003 C 
ATOM      2  C   UNL     1      34.150 -20.240 -20.584  0.00  0.00    +0.003 C 
ATOM      3  C   UNL     1      35.758 -21.322 -19.114  0.00  0.00    +0.010 C 
ATOM      4  C   UNL     1      33.122 -20.946 -19.939  0.00  0.00    +0.037 C 
ATOM      5  C   UNL     1      34.724 -22.015 -18.485  0.00  0.00    +0.109 C 
ATOM      6  C   UNL     1      33.408 -21.827 -18.897  0.00  0.00    +0.140 C 
ATOM      7  C   UNL     1      36.518 -19.726 -20.810  0.00  0.00    +0.037 C 
ATOM      8  C   UNL     1      33.880 -19.349 -21.635  0.00  0.00    +0.003 C 
ATOM      9  C   UNL     1      36.231 -18.844 -21.853  0.00  0.00    +0.134 C 
ATOM     10  C   UNL     1      34.915 -18.656 -22.265  0.00  0.00    +0.037 C 
ENDROOT
BRANCH   6  11
ATOM     11  O   UNL     1      32.383 -22.496 -18.295  0.00  0.00    -0.505 OA
ATOM     12  H   UNL     1      31.686 -22.847 -18.811  0.00  0.00    +0.292 HD
ENDBRANCH   6  11
BRANCH   9  13
ATOM     13  O   UNL     1      37.239 -18.168 -22.468  0.00  0.00    -0.506 OA
ATOM     14  H   UNL     1      37.234 -18.066 -23.400  0.00  0.00    +0.292 HD
ENDBRANCH   9  13
BRANCH   5  16
ATOM     15  O   UNL     1      34.318 -23.848 -17.001  0.00  0.00    -0.245 OA
ATOM     16  C   UNL     1      35.044 -22.931 -17.399  0.00  0.00    +0.341 C 
BRANCH  16  17
ATOM     17  O   UNL     1      36.258 -22.674 -16.844  0.00  0.00    -0.477 OA
ATOM     18  H   UNL     1      36.376 -22.757 -15.917  0.00  0.00    +0.295 HD
ENDBRANCH  16  17
ENDBRANCH   5  16
TORSDOF 4
ENDMDL
MODEL 8
REMARK VINA RESULT:      -7.6      2.701      4.437
REMARK  Name = 736299
REMARK  4 active torsions:
REMARK  status: ('A' for Active; 'I' for Inactive)
REMARK    1  A    between atoms: C_5  and  C_16
REMARK    2  A    between atoms: C_6  and  O_11
REMARK    3  A    between atoms: C_9  and  O_13
REMARK    4  A    between atoms: C_16  and  O_17
REMARK                            x       y       z     vdW  Elec       q    Type
REMARK                         _______ _______ _______ _____ _____    ______ ____
ROOT
ATOM      1  C   UNL     1      35.805 -21.864 -18.164  0.00  0.00    +0.003 C 
ATOM      2  C   UNL     1      34.502 -22.370 -17.941  0.00  0.00    +0.003 C 
ATOM      3  C   UNL     1      36.821 -22.149 -17.237  0.00  0.00    +0.010 C 
ATOM      4  C   UNL     1      34.254 -23.146 -16.797  0.00  0.00    +0.037 C 
ATOM      5  C   UNL     1      36.556 -22.922 -16.107  0.00  0.00    +0.109 C 
ATOM      6  C   UNL     1      35.275 -23.419 -15.887  0.00  0.00    +0.140 C 
ATOM      7  C   UNL     1      36.054 -21.089 -19.308  0.00  0.00    +0.037 C 
ATOM      8  C   UNL     1      33.487 -22.085 -18.868  0.00  0.00    +0.003 C 
ATOM      9  C   UNL     1      35.033 -20.815 -20.219  0.00  0.00    +0.134 C 
ATOM     10  C   UNL     1      33.752 -21.313 -19.999  0.00  0.00    +0.037 C 
ENDROOT
BRANCH   6  11
ATOM     11  O   UNL     1      34.997 -24.177 -14.788  0.00  0.00    -0.505 OA
ATOM     12  H   UNL     1      34.540 -24.989 -14.882  0.00  0.00    +0.292 HD
ENDBRANCH   6  11
BRANCH   9  13
ATOM     13  O   UNL     1      35.289 -20.063 -21.323  0.00  0.00    -0.506 OA
ATOM     14  H   UNL     1      36.123 -20.121 -21.748  0.00  0.00    +0.292 HD
ENDBRANCH   9  13
BRANCH   5  16
ATOM     15  O   UNL     1      37.571 -23.051 -13.944  0.00  0.00    -0.245 OA
ATOM     16  C   UNL     1      37.636 -23.196 -15.168  0.00  0.00    +0.341 C 
BRANCH  16  17
ATOM     17  O   UNL     1      38.761 -23.643 -15.787  0.00  0.00    -0.477 OA
ATOM     18  H   UNL     1      39.601 -23.479 -15.406  0.00  0.00    +0.295 HD
ENDBRANCH  16  17
ENDBRANCH   5  16
TORSDOF 4
ENDMDL
MODEL 9
REMARK VINA RESULT:      -7.6      5.852      7.670
REMARK  Name = 736299
REMARK  4 active torsions:
REMARK  status: ('A' for Active; 'I' for Inactive)
REMARK    1  A    between atoms: C_5  and  C_16
REMARK    2  A    between atoms: C_6  and  O_11
REMARK    3  A    between atoms: C_9  and  O_13
REMARK    4  A    between atoms: C_16  and  O_17
REMARK                            x       y       z     vdW  Elec       q    Type
REMARK                         _______ _______ _______ _____ _____    ______ ____
ROOT
ATOM      1  C   UNL     1      32.132 -23.444 -15.620  0.00  0.00    +0.003 C 
ATOM      2  C   UNL     1      32.025 -24.308 -14.504  0.00  0.00    +0.003 C 
ATOM      3  C   UNL     1      30.985 -23.152 -16.374  0.00  0.00    +0.010 C 
ATOM      4  C   UNL     1      30.774 -24.855 -14.178  0.00  0.00    +0.037 C 
ATOM      5  C   UNL     1      29.750 -23.704 -16.035  0.00  0.00    +0.109 C 
ATOM      6  C   UNL     1      29.645 -24.555 -14.939  0.00  0.00    +0.140 C 
ATOM      7  C   UNL     1      33.383 -22.896 -15.947  0.00  0.00    +0.037 C 
ATOM      8  C   UNL     1      33.173 -24.600 -13.749  0.00  0.00    +0.003 C 
ATOM      9  C   UNL     1      34.513 -23.197 -15.185  0.00  0.00    +0.134 C 
ATOM     10  C   UNL     1      34.408 -24.047 -14.088  0.00  0.00    +0.037 C 
ENDROOT
BRANCH   6  11
ATOM     11  O   UNL     1      28.445 -25.103 -14.591  0.00  0.00    -0.505 OA
ATOM     12  H   UNL     1      28.249 -25.266 -13.690  0.00  0.00    +0.292 HD
ENDBRANCH   6  11
BRANCH   9  13
ATOM     13  O   UNL     1      35.718 -22.659 -15.514  0.00  0.00    -0.506 OA
ATOM     14  H   UNL     1      35.907 -21.765 -15.302  0.00  0.00    +0.292 HD
ENDBRANCH   9  13
BRANCH   5  16
ATOM     15  O   UNL     1      27.822 -24.200 -17.363  0.00  0.00    -0.245 OA
ATOM     16  C   UNL     1      28.582 -23.378 -16.843  0.00  0.00    +0.341 C 
BRANCH  16  17
ATOM     17  O   UNL     1      28.401 -22.037 -16.975  0.00  0.00    -0.477 OA
ATOM     18  H   UNL     1      27.968 -21.695 -17.734  0.00  0.00    +0.295 HD
ENDBRANCH  16  17
ENDBRANCH   5  16
TORSDOF 4
ENDMDL
