MODEL 1
REMARK VINA RESULT:      -7.8      0.000      0.000
REMARK  Name = 19826721
REMARK  4 active torsions:
REMARK  status: ('A' for Active; 'I' for Inactive)
REMARK    1  A    between atoms: C_1  and  N_11
REMARK    2  A    between atoms: C_2  and  C_8
REMARK    3  A    between atoms: C_8  and  O_9
REMARK    4  A    between atoms: N_11  and  C_13
REMARK                            x       y       z     vdW  Elec       q    Type
REMARK                         _______ _______ _______ _____ _____    ______ ____
ROOT
ATOM      1  C   UNL     1      35.111 -18.749 -21.068  0.00  0.00    +0.051 C 
ATOM      2  C   UNL     1      34.380 -19.824 -20.558  0.00  0.00    +0.089 C 
ATOM      3  C   UNL     1      36.505 -18.772 -21.024  0.00  0.00    +0.015 C 
ATOM      4  C   UNL     1      35.044 -20.918 -20.004  0.00  0.00    +0.008 C 
ATOM      5  C   UNL     1      37.169 -19.867 -20.471  0.00  0.00    +0.001 C 
ATOM      6  C   UNL     1      36.439 -20.939 -19.961  0.00  0.00    +0.000 C 
ENDROOT
BRANCH   2   8
ATOM      7  O   UNL     1      32.204 -18.830 -20.581  0.00  0.00    -0.245 OA
ATOM      8  C   UNL     1      32.923 -19.832 -20.588  0.00  0.00    +0.339 C 
BRANCH   8   9
ATOM      9  O   UNL     1      32.414 -21.093 -20.626  0.00  0.00    -0.477 OA
ATOM     10  H   UNL     1      31.502 -21.225 -20.788  0.00  0.00    +0.295 HD
ENDBRANCH   8   9
ENDBRANCH   2   8
BRANCH   1  11
ATOM     11  N   UNL     1      34.472 -17.656 -21.621  0.00  0.00    -0.334 N 
ATOM     12  H   UNL     1      33.618 -17.803 -22.091  0.00  0.00    +0.147 HD
BRANCH  11  13
ATOM     13  C   UNL     1      34.990 -16.303 -21.547  0.00  0.00    +0.069 C 
ATOM     14  C   UNL     1      34.811 -15.597 -22.894  0.00  0.00    +0.019 C 
ATOM     15  C   UNL     1      34.300 -15.537 -20.413  0.00  0.00    +0.019 C 
ATOM     16  C   UNL     1      33.349 -15.264 -23.198  0.00  0.00    +0.002 C 
ATOM     17  C   UNL     1      32.840 -15.205 -20.727  0.00  0.00    +0.002 C 
ATOM     18  C   UNL     1      32.701 -14.480 -22.062  0.00  0.00    +0.000 C 
ENDBRANCH  11  13
ENDBRANCH   1  11
TORSDOF 4
ENDMDL
MODEL 2
REMARK VINA RESULT:      -7.7      3.126      4.509
REMARK  Name = 19826721
REMARK  4 active torsions:
REMARK  status: ('A' for Active; 'I' for Inactive)
REMARK    1  A    between atoms: C_1  and  N_11
REMARK    2  A    between atoms: C_2  and  C_8
REMARK    3  A    between atoms: C_8  and  O_9
REMARK    4  A    between atoms: N_11  and  C_13
REMARK                            x       y       z     vdW  Elec       q    Type
REMARK                         _______ _______ _______ _____ _____    ______ ____
ROOT
ATOM      1  C   UNL     1      34.593 -15.910 -23.098  0.00  0.00    +0.051 C 
ATOM      2  C   UNL     1      34.723 -17.238 -23.508  0.00  0.00    +0.089 C 
ATOM      3  C   UNL     1      34.671 -15.588 -21.743  0.00  0.00    +0.015 C 
ATOM      4  C   UNL     1      34.931 -18.242 -22.562  0.00  0.00    +0.008 C 
ATOM      5  C   UNL     1      34.879 -16.592 -20.797  0.00  0.00    +0.001 C 
ATOM      6  C   UNL     1      35.009 -17.919 -21.207  0.00  0.00    +0.000 C 
ENDROOT
BRANCH   2   8
ATOM      7  O   UNL     1      35.035 -16.913 -25.857  0.00  0.00    -0.245 OA
ATOM      8  C   UNL     1      34.647 -17.608 -24.915  0.00  0.00    +0.339 C 
BRANCH   8   9
ATOM      9  O   UNL     1      34.089 -18.834 -25.098  0.00  0.00    -0.477 OA
ATOM     10  H   UNL     1      33.309 -19.068 -24.634  0.00  0.00    +0.295 HD
ENDBRANCH   8   9
ENDBRANCH   2   8
BRANCH   1  11
ATOM     11  N   UNL     1      34.388 -14.900 -24.019  0.00  0.00    -0.334 N 
ATOM     12  H   UNL     1      35.149 -14.614 -24.575  0.00  0.00    +0.147 HD
BRANCH  11  13
ATOM     13  C   UNL     1      33.111 -14.240 -24.213  0.00  0.00    +0.069 C 
ATOM     14  C   UNL     1      33.201 -12.779 -23.762  0.00  0.00    +0.019 C 
ATOM     15  C   UNL     1      32.677 -14.351 -25.679  0.00  0.00    +0.019 C 
ATOM     16  C   UNL     1      34.045 -11.920 -24.704  0.00  0.00    +0.002 C 
ATOM     17  C   UNL     1      33.525 -13.487 -26.613  0.00  0.00    +0.002 C 
ATOM     18  C   UNL     1      33.571 -12.034 -26.149  0.00  0.00    +0.000 C 
ENDBRANCH  11  13
ENDBRANCH   1  11
TORSDOF 4
ENDMDL
MODEL 3
REMARK VINA RESULT:      -7.7      5.887      8.107
REMARK  Name = 19826721
REMARK  4 active torsions:
REMARK  status: ('A' for Active; 'I' for Inactive)
REMARK    1  A    between atoms: C_1  and  N_11
REMARK    2  A    between atoms: C_2  and  C_8
REMARK    3  A    between atoms: C_8  and  O_9
REMARK    4  A    between atoms: N_11  and  C_13
REMARK                            x       y       z     vdW  Elec       q    Type
REMARK                         _______ _______ _______ _____ _____    ______ ____
ROOT
ATOM      1  C   UNL     1      34.557 -23.045 -16.390  0.00  0.00    +0.051 C 
ATOM      2  C   UNL     1      34.713 -22.606 -17.706  0.00  0.00    +0.089 C 
ATOM      3  C   UNL     1      35.597 -22.883 -15.475  0.00  0.00    +0.015 C 
ATOM      4  C   UNL     1      35.907 -22.008 -18.105  0.00  0.00    +0.008 C 
ATOM      5  C   UNL     1      36.791 -22.283 -15.873  0.00  0.00    +0.001 C 
ATOM      6  C   UNL     1      36.947 -21.846 -17.188  0.00  0.00    +0.000 C 
ENDROOT
BRANCH   2   8
ATOM      7  O   UNL     1      32.596 -22.112 -18.708  0.00  0.00    -0.245 OA
ATOM      8  C   UNL     1      33.646 -22.760 -18.688  0.00  0.00    +0.339 C 
BRANCH   8   9
ATOM      9  O   UNL     1      33.928 -23.717 -19.612  0.00  0.00    -0.477 OA
ATOM     10  H   UNL     1      33.976 -24.617 -19.355  0.00  0.00    +0.295 HD
ENDBRANCH   8   9
ENDBRANCH   2   8
BRANCH   1  11
ATOM     11  N   UNL     1      33.381 -23.639 -15.976  0.00  0.00    -0.334 N 
ATOM     12  H   UNL     1      33.173 -24.544 -16.306  0.00  0.00    +0.147 HD
BRANCH  11  13
ATOM     13  C   UNL     1      32.434 -23.003 -15.079  0.00  0.00    +0.069 C 
ATOM     14  C   UNL     1      31.040 -22.987 -15.711  0.00  0.00    +0.019 C 
ATOM     15  C   UNL     1      32.430 -23.719 -13.724  0.00  0.00    +0.019 C 
ATOM     16  C   UNL     1      30.400 -24.374 -15.769  0.00  0.00    +0.002 C 
ATOM     17  C   UNL     1      31.785 -25.105 -13.790  0.00  0.00    +0.002 C 
ATOM     18  C   UNL     1      30.388 -25.048 -14.401  0.00  0.00    +0.000 C 
ENDBRANCH  11  13
ENDBRANCH   1  11
TORSDOF 4
ENDMDL
MODEL 4
REMARK VINA RESULT:      -7.6      2.190      5.482
REMARK  Name = 19826721
REMARK  4 active torsions:
REMARK  status: ('A' for Active; 'I' for Inactive)
REMARK    1  A    between atoms: C_1  and  N_11
REMARK    2  A    between atoms: C_2  and  C_8
REMARK    3  A    between atoms: C_8  and  O_9
REMARK    4  A    between atoms: N_11  and  C_13
REMARK                            x       y       z     vdW  Elec       q    Type
REMARK                         _______ _______ _______ _____ _____    ______ ____
ROOT
ATOM      1  C   UNL     1      34.495 -16.038 -22.997  0.00  0.00    +0.051 C 
ATOM      2  C   UNL     1      33.813 -15.027 -22.318  0.00  0.00    +0.089 C 
ATOM      3  C   UNL     1      34.400 -16.131 -24.386  0.00  0.00    +0.015 C 
ATOM      4  C   UNL     1      33.037 -14.112 -23.027  0.00  0.00    +0.008 C 
ATOM      5  C   UNL     1      33.625 -15.214 -25.095  0.00  0.00    +0.001 C 
ATOM      6  C   UNL     1      32.943 -14.205 -24.417  0.00  0.00    +0.000 C 
ENDROOT
BRANCH   2   8
ATOM      7  O   UNL     1      34.919 -15.013 -20.196  0.00  0.00    -0.245 OA
ATOM      8  C   UNL     1      33.890 -14.903 -20.868  0.00  0.00    +0.339 C 
BRANCH   8   9
ATOM      9  O   UNL     1      32.679 -14.643 -20.306  0.00  0.00    -0.477 OA
ATOM     10  H   UNL     1      32.500 -14.920 -19.429  0.00  0.00    +0.295 HD
ENDBRANCH   8   9
ENDBRANCH   2   8
BRANCH   1  11
ATOM     11  N   UNL     1      35.270 -16.955 -22.312  0.00  0.00    -0.334 N 
ATOM     12  H   UNL     1      35.580 -16.720 -21.407  0.00  0.00    +0.147 HD
BRANCH  11  13
ATOM     13  C   UNL     1      35.651 -18.245 -22.854  0.00  0.00    +0.069 C 
ATOM     14  C   UNL     1      36.900 -18.768 -22.138  0.00  0.00    +0.019 C 
ATOM     15  C   UNL     1      34.482 -19.230 -22.740  0.00  0.00    +0.019 C 
ATOM     16  C   UNL     1      36.619 -19.201 -20.698  0.00  0.00    +0.002 C 
ATOM     17  C   UNL     1      34.211 -19.660 -21.298  0.00  0.00    +0.002 C 
ATOM     18  C   UNL     1      35.468 -20.199 -20.624  0.00  0.00    +0.000 C 
ENDBRANCH  11  13
ENDBRANCH   1  11
TORSDOF 4
ENDMDL
MODEL 5
REMARK VINA RESULT:      -7.5      6.491      9.532
REMARK  Name = 19826721
REMARK  4 active torsions:
REMARK  status: ('A' for Active; 'I' for Inactive)
REMARK    1  A    between atoms: C_1  and  N_11
REMARK    2  A    between atoms: C_2  and  C_8
REMARK    3  A    between atoms: C_8  and  O_9
REMARK    4  A    between atoms: N_11  and  C_13
REMARK                            x       y       z     vdW  Elec       q    Type
REMARK                         _______ _______ _______ _____ _____    ______ ____
ROOT
ATOM      1  C   UNL     1      35.026 -22.910 -15.638  0.00  0.00    +0.051 C 
ATOM      2  C   UNL     1      35.779 -22.411 -16.702  0.00  0.00    +0.089 C 
ATOM      3  C   UNL     1      33.713 -23.332 -15.851  0.00  0.00    +0.015 C 
ATOM      4  C   UNL     1      35.219 -22.335 -17.977  0.00  0.00    +0.008 C 
ATOM      5  C   UNL     1      33.154 -23.256 -17.126  0.00  0.00    +0.001 C 
ATOM      6  C   UNL     1      33.906 -22.757 -18.189  0.00  0.00    +0.000 C 
ENDROOT
BRANCH   2   8
ATOM      7  O   UNL     1      38.062 -22.635 -16.023  0.00  0.00    -0.245 OA
ATOM      8  C   UNL     1      37.152 -21.962 -16.514  0.00  0.00    +0.339 C 
BRANCH   8   9
ATOM      9  O   UNL     1      37.343 -20.686 -16.947  0.00  0.00    -0.477 OA
ATOM     10  H   UNL     1      37.528 -20.520 -17.850  0.00  0.00    +0.295 HD
ENDBRANCH   8   9
ENDBRANCH   2   8
BRANCH   1  11
ATOM     11  N   UNL     1      35.563 -22.994 -14.368  0.00  0.00    -0.334 N 
ATOM     12  H   UNL     1      36.067 -22.222 -14.021  0.00  0.00    +0.147 HD
BRANCH  11  13
ATOM     13  C   UNL     1      35.425 -24.161 -13.516  0.00  0.00    +0.069 C 
ATOM     14  C   UNL     1      36.494 -25.199 -13.868  0.00  0.00    +0.019 C 
ATOM     15  C   UNL     1      35.504 -23.748 -12.042  0.00  0.00    +0.019 C 
ATOM     16  C   UNL     1      37.899 -24.770 -13.440  0.00  0.00    +0.002 C 
ATOM     17  C   UNL     1      36.912 -23.325 -11.622  0.00  0.00    +0.002 C 
ATOM     18  C   UNL     1      37.947 -24.391 -11.963  0.00  0.00    +0.000 C 
ENDBRANCH  11  13
ENDBRANCH   1  11
TORSDOF 4
ENDMDL
MODEL 6
REMARK VINA RESULT:      -7.5      6.380      8.457
REMARK  Name = 19826721
REMARK  4 active torsions:
REMARK  status: ('A' for Active; 'I' for Inactive)
REMARK    1  A    between atoms: C_1  and  N_11
REMARK    2  A    between atoms: C_2  and  C_8
REMARK    3  A    between atoms: C_8  and  O_9
REMARK    4  A    between atoms: N_11  and  C_13
REMARK                            x       y       z     vdW  Elec       q    Type
REMARK                         _______ _______ _______ _____ _____    ______ ____
ROOT
ATOM      1  C   UNL     1      33.897 -23.402 -15.878  0.00  0.00    +0.051 C 
ATOM      2  C   UNL     1      34.340 -22.915 -17.109  0.00  0.00    +0.089 C 
ATOM      3  C   UNL     1      34.762 -23.420 -14.784  0.00  0.00    +0.015 C 
ATOM      4  C   UNL     1      35.646 -22.448 -17.244  0.00  0.00    +0.008 C 
ATOM      5  C   UNL     1      36.069 -22.952 -14.919  0.00  0.00    +0.001 C 
ATOM      6  C   UNL     1      36.511 -22.466 -16.149  0.00  0.00    +0.000 C 
ENDROOT
BRANCH   2   8
ATOM      7  O   UNL     1      32.379 -22.294 -18.332  0.00  0.00    -0.245 OA
ATOM      8  C   UNL     1      33.462 -22.883 -18.272  0.00  0.00    +0.339 C 
BRANCH   8   9
ATOM      9  O   UNL     1      33.966 -23.586 -19.320  0.00  0.00    -0.477 OA
ATOM     10  H   UNL     1      34.492 -23.156 -19.964  0.00  0.00    +0.295 HD
ENDBRANCH   8   9
ENDBRANCH   2   8
BRANCH   1  11
ATOM     11  N   UNL     1      32.605 -23.869 -15.724  0.00  0.00    -0.334 N 
ATOM     12  H   UNL     1      32.211 -24.403 -16.452  0.00  0.00    +0.147 HD
BRANCH  11  13
ATOM     13  C   UNL     1      31.798 -23.615 -14.545  0.00  0.00    +0.069 C 
ATOM     14  C   UNL     1      30.695 -22.603 -14.872  0.00  0.00    +0.019 C 
ATOM     15  C   UNL     1      31.216 -24.929 -14.012  0.00  0.00    +0.019 C 
ATOM     16  C   UNL     1      29.605 -23.186 -15.773  0.00  0.00    +0.002 C 
ATOM     17  C   UNL     1      30.125 -25.503 -14.917  0.00  0.00    +0.002 C 
ATOM     18  C   UNL     1      29.031 -24.478 -15.201  0.00  0.00    +0.000 C 
ENDBRANCH  11  13
ENDBRANCH   1  11
TORSDOF 4
ENDMDL
MODEL 7
REMARK VINA RESULT:      -7.5      3.073      6.303
REMARK  Name = 19826721
REMARK  4 active torsions:
REMARK  status: ('A' for Active; 'I' for Inactive)
REMARK    1  A    between atoms: C_1  and  N_11
REMARK    2  A    between atoms: C_2  and  C_8
REMARK    3  A    between atoms: C_8  and  O_9
REMARK    4  A    between atoms: N_11  and  C_13
REMARK                            x       y       z     vdW  Elec       q    Type
REMARK                         _______ _______ _______ _____ _____    ______ ____
ROOT
ATOM      1  C   UNL     1      32.959 -14.605 -22.157  0.00  0.00    +0.051 C 
ATOM      2  C   UNL     1      32.779 -13.585 -23.094  0.00  0.00    +0.089 C 
ATOM      3  C   UNL     1      32.617 -14.393 -20.822  0.00  0.00    +0.015 C 
ATOM      4  C   UNL     1      32.258 -12.355 -22.693  0.00  0.00    +0.008 C 
ATOM      5  C   UNL     1      32.095 -13.163 -20.422  0.00  0.00    +0.001 C 
ATOM      6  C   UNL     1      31.915 -12.144 -21.357  0.00  0.00    +0.000 C 
ENDROOT
BRANCH   2   8
ATOM      7  O   UNL     1      32.978 -14.820 -25.133  0.00  0.00    -0.245 OA
ATOM      8  C   UNL     1      33.126 -13.774 -24.496  0.00  0.00    +0.339 C 
BRANCH   8   9
ATOM      9  O   UNL     1      33.646 -12.648 -25.056  0.00  0.00    -0.477 OA
ATOM     10  H   UNL     1      34.129 -12.043 -24.530  0.00  0.00    +0.295 HD
ENDBRANCH   8   9
ENDBRANCH   2   8
BRANCH   1  11
ATOM     11  N   UNL     1      33.474 -15.831 -22.535  0.00  0.00    -0.334 N 
ATOM     12  H   UNL     1      32.869 -16.479 -22.965  0.00  0.00    +0.147 HD
BRANCH  11  13
ATOM     13  C   UNL     1      34.858 -16.215 -22.332  0.00  0.00    +0.069 C 
ATOM     14  C   UNL     1      34.982 -17.096 -21.086  0.00  0.00    +0.019 C 
ATOM     15  C   UNL     1      35.395 -16.925 -23.580  0.00  0.00    +0.019 C 
ATOM     16  C   UNL     1      34.386 -18.490 -21.285  0.00  0.00    +0.002 C 
ATOM     17  C   UNL     1      34.797 -18.319 -23.770  0.00  0.00    +0.002 C 
ATOM     18  C   UNL     1      34.961 -19.178 -22.520  0.00  0.00    +0.000 C 
ENDBRANCH  11  13
ENDBRANCH   1  11
TORSDOF 4
ENDMDL
MODEL 8
REMARK VINA RESULT:      -7.5      2.795      4.330
REMARK  Name = 19826721
REMARK  4 active torsions:
REMARK  status: ('A' for Active; 'I' for Inactive)
REMARK    1  A    between atoms: C_1  and  N_11
REMARK    2  A    between atoms: C_2  and  C_8
REMARK    3  A    between atoms: C_8  and  O_9
REMARK    4  A    between atoms: N_11  and  C_13
REMARK                            x       y       z     vdW  Elec       q    Type
REMARK                         _______ _______ _______ _____ _____    ______ ____
ROOT
ATOM      1  C   UNL     1      34.510 -16.237 -23.464  0.00  0.00    +0.051 C 
ATOM      2  C   UNL     1      34.390 -16.663 -22.140  0.00  0.00    +0.089 C 
ATOM      3  C   UNL     1      34.781 -17.162 -24.472  0.00  0.00    +0.015 C 
ATOM      4  C   UNL     1      34.543 -18.014 -21.827  0.00  0.00    +0.008 C 
ATOM      5  C   UNL     1      34.933 -18.512 -24.159  0.00  0.00    +0.001 C 
ATOM      6  C   UNL     1      34.814 -18.938 -22.836  0.00  0.00    +0.000 C 
ENDROOT
BRANCH   2   8
ATOM      7  O   UNL     1      34.952 -15.206 -20.328  0.00  0.00    -0.245 OA
ATOM      8  C   UNL     1      34.107 -15.724 -21.063  0.00  0.00    +0.339 C 
BRANCH   8   9
ATOM      9  O   UNL     1      32.778 -15.462 -20.941  0.00  0.00    -0.477 OA
ATOM     10  H   UNL     1      32.393 -15.377 -20.092  0.00  0.00    +0.295 HD
ENDBRANCH   8   9
ENDBRANCH   2   8
BRANCH   1  11
ATOM     11  N   UNL     1      34.361 -14.903 -23.795  0.00  0.00    -0.334 N 
ATOM     12  H   UNL     1      35.168 -14.340 -23.840  0.00  0.00    +0.147 HD
BRANCH  11  13
ATOM     13  C   UNL     1      33.078 -14.287 -24.080  0.00  0.00    +0.069 C 
ATOM     14  C   UNL     1      33.078 -12.831 -23.606  0.00  0.00    +0.019 C 
ATOM     15  C   UNL     1      32.765 -14.392 -25.577  0.00  0.00    +0.019 C 
ATOM     16  C   UNL     1      33.960 -11.927 -24.468  0.00  0.00    +0.002 C 
ATOM     17  C   UNL     1      33.650 -13.483 -26.431  0.00  0.00    +0.002 C 
ATOM     18  C   UNL     1      33.605 -12.037 -25.947  0.00  0.00    +0.000 C 
ENDBRANCH  11  13
ENDBRANCH   1  11
TORSDOF 4
ENDMDL
MODEL 9
REMARK VINA RESULT:      -7.4      6.671      9.075
REMARK  Name = 19826721
REMARK  4 active torsions:
REMARK  status: ('A' for Active; 'I' for Inactive)
REMARK    1  A    between atoms: C_1  and  N_11
REMARK    2  A    between atoms: C_2  and  C_8
REMARK    3  A    between atoms: C_8  and  O_9
REMARK    4  A    between atoms: N_11  and  C_13
REMARK                            x       y       z     vdW  Elec       q    Type
REMARK                         _______ _______ _______ _____ _____    ______ ____
ROOT
ATOM      1  C   UNL     1      32.585 -10.734 -23.200  0.00  0.00    +0.051 C 
ATOM      2  C   UNL     1      33.339 -11.728 -23.825  0.00  0.00    +0.089 C 
ATOM      3  C   UNL     1      31.819 -11.043 -22.076  0.00  0.00    +0.015 C 
ATOM      4  C   UNL     1      33.326 -13.030 -23.325  0.00  0.00    +0.008 C 
ATOM      5  C   UNL     1      31.807 -12.344 -21.575  0.00  0.00    +0.001 C 
ATOM      6  C   UNL     1      32.560 -13.338 -22.199  0.00  0.00    +0.000 C 
ENDROOT
BRANCH   2   8
ATOM      7  O   UNL     1      33.943 -11.879 -26.135  0.00  0.00    -0.245 OA
ATOM      8  C   UNL     1      34.149 -11.440 -25.001  0.00  0.00    +0.339 C 
BRANCH   8   9
ATOM      9  O   UNL     1      35.190 -10.610 -24.721  0.00  0.00    -0.477 OA
ATOM     10  H   UNL     1      35.668 -10.711 -23.922  0.00  0.00    +0.295 HD
ENDBRANCH   8   9
ENDBRANCH   2   8
BRANCH   1  11
ATOM     11  N   UNL     1      32.585  -9.438 -23.680  0.00  0.00    -0.334 N 
ATOM     12  H   UNL     1      32.460  -9.298 -24.647  0.00  0.00    +0.147 HD
BRANCH  11  13
ATOM     13  C   UNL     1      32.760  -8.271 -22.835  0.00  0.00    +0.069 C 
ATOM     14  C   UNL     1      34.119  -7.622 -23.111  0.00  0.00    +0.019 C 
ATOM     15  C   UNL     1      31.609  -7.283 -23.057  0.00  0.00    +0.019 C 
ATOM     16  C   UNL     1      34.179  -6.928 -24.472  0.00  0.00    +0.002 C 
ATOM     17  C   UNL     1      31.678  -6.591 -24.419  0.00  0.00    +0.002 C 
ATOM     18  C   UNL     1      33.035  -5.934 -24.649  0.00  0.00    +0.000 C 
ENDBRANCH  11  13
ENDBRANCH   1  11
TORSDOF 4
ENDMDL
