MODEL 1
REMARK VINA RESULT:      -4.8      0.000      0.000
REMARK  Name = 17754128
REMARK  7 active torsions:
REMARK  status: ('A' for Active; 'I' for Inactive)
REMARK    1  A    between atoms: C_1  and  N_2
REMARK    2  A    between atoms: C_1  and  C_7
REMARK    3  A    between atoms: C_1  and  C_8
REMARK    4  A    between atoms: C_8  and  S_9
REMARK    5  A    between atoms: S_9  and  S_10
REMARK    6  A    between atoms: S_10  and  C_11
REMARK    7  A    between atoms: C_11  and  C_12
REMARK                            x       y       z     vdW  Elec       q    Type
REMARK                         _______ _______ _______ _____ _____    ______ ____
ROOT
ATOM      1  C   UNK     1      34.135 -16.213 -24.271  0.00  0.00    +0.013 C 
ENDROOT
BRANCH   1   2
ATOM      2  N   UNK     1      35.150 -16.992 -24.980  0.00  0.00    +0.387 N 
ATOM      3  H   UNK     1      34.732 -17.853 -25.334  0.00  0.00    -0.089 HD
ATOM      4  H   UNK     1      35.911 -17.222 -24.341  0.00  0.00    -0.089 HD
ATOM      5  H   UNK     1      35.515 -16.446 -25.760  0.00  0.00    -0.089 HD
ENDBRANCH   1   2
BRANCH   1   7
ATOM      6  O   UNK     1      33.677 -15.459 -26.542  0.00  0.00    -0.291 OA
ATOM      7  C   UNK     1      33.477 -15.354 -25.335  0.00  0.00    +0.186 C 
ENDBRANCH   1   7
BRANCH   1   8
ATOM      8  C   UNK     1      34.780 -15.415 -23.137  0.00  0.00    +0.054 C 
BRANCH   8   9
ATOM      9  S   UNK     1      34.364 -16.105 -21.502  0.00  0.00    -0.084 S 
BRANCH   9  10
ATOM     10  S   UNK     1      35.477 -17.830 -21.495  0.00  0.00    -0.082 S 
BRANCH  10  11
ATOM     11  C   UNK     1      34.195 -19.097 -21.645  0.00  0.00    +0.069 C 
BRANCH  11  12
ATOM     12  C   UNK     1      34.391 -20.183 -20.594  0.00  0.00    +0.013 C 
ATOM     13  C   UNK     1      33.058 -20.626 -20.009  0.00  0.00    +0.001 C 
ENDBRANCH  11  12
ENDBRANCH  10  11
ENDBRANCH   9  10
ENDBRANCH   8   9
ENDBRANCH   1   8
TORSDOF 7
ENDMDL
MODEL 2
REMARK VINA RESULT:      -4.6      2.626      2.778
REMARK  Name = 17754128
REMARK  7 active torsions:
REMARK  status: ('A' for Active; 'I' for Inactive)
REMARK    1  A    between atoms: C_1  and  N_2
REMARK    2  A    between atoms: C_1  and  C_7
REMARK    3  A    between atoms: C_1  and  C_8
REMARK    4  A    between atoms: C_8  and  S_9
REMARK    5  A    between atoms: S_9  and  S_10
REMARK    6  A    between atoms: S_10  and  C_11
REMARK    7  A    between atoms: C_11  and  C_12
REMARK                            x       y       z     vdW  Elec       q    Type
REMARK                         _______ _______ _______ _____ _____    ______ ____
ROOT
ATOM      1  C   UNK     1      33.626 -14.733 -23.242  0.00  0.00    +0.013 C 
ENDROOT
BRANCH   1   2
ATOM      2  N   UNK     1      34.175 -13.415 -23.566  0.00  0.00    +0.387 N 
ATOM      3  H   UNK     1      33.700 -12.704 -23.011  0.00  0.00    -0.089 HD
ATOM      4  H   UNK     1      34.034 -13.223 -24.558  0.00  0.00    -0.089 HD
ATOM      5  H   UNK     1      35.172 -13.401 -23.355  0.00  0.00    -0.089 HD
ENDBRANCH   1   2
BRANCH   1   7
ATOM      6  O   UNK     1      32.134 -15.387 -21.432  0.00  0.00    -0.291 OA
ATOM      7  C   UNK     1      32.832 -14.531 -21.965  0.00  0.00    +0.186 C 
ENDBRANCH   1   7
BRANCH   1   8
ATOM      8  C   UNK     1      34.754 -15.758 -23.119  0.00  0.00    +0.054 C 
BRANCH   8   9
ATOM      9  S   UNK     1      34.715 -16.974 -24.476  0.00  0.00    -0.084 S 
BRANCH   9  10
ATOM     10  S   UNK     1      35.017 -18.731 -23.455  0.00  0.00    -0.082 S 
BRANCH  10  11
ATOM     11  C   UNK     1      34.445 -18.295 -21.795  0.00  0.00    +0.069 C 
BRANCH  11  12
ATOM     12  C   UNK     1      34.325 -19.541 -20.926  0.00  0.00    +0.013 C 
ATOM     13  C   UNK     1      32.867 -19.908 -20.691  0.00  0.00    +0.001 C 
ENDBRANCH  11  12
ENDBRANCH  10  11
ENDBRANCH   9  10
ENDBRANCH   8   9
ENDBRANCH   1   8
TORSDOF 7
ENDMDL
MODEL 3
REMARK VINA RESULT:      -4.6      1.836      1.999
REMARK  Name = 17754128
REMARK  7 active torsions:
REMARK  status: ('A' for Active; 'I' for Inactive)
REMARK    1  A    between atoms: C_1  and  N_2
REMARK    2  A    between atoms: C_1  and  C_7
REMARK    3  A    between atoms: C_1  and  C_8
REMARK    4  A    between atoms: C_8  and  S_9
REMARK    5  A    between atoms: S_9  and  S_10
REMARK    6  A    between atoms: S_10  and  C_11
REMARK    7  A    between atoms: C_11  and  C_12
REMARK                            x       y       z     vdW  Elec       q    Type
REMARK                         _______ _______ _______ _____ _____    ______ ____
ROOT
ATOM      1  C   UNK     1      34.790 -16.001 -23.555  0.00  0.00    +0.013 C 
ENDROOT
BRANCH   1   2
ATOM      2  N   UNK     1      33.578 -15.181 -23.530  0.00  0.00    +0.387 N 
ATOM      3  H   UNK     1      33.380 -14.839 -24.470  0.00  0.00    -0.089 HD
ATOM      4  H   UNK     1      33.716 -14.389 -22.902  0.00  0.00    -0.089 HD
ATOM      5  H   UNK     1      32.794 -15.743 -23.201  0.00  0.00    -0.089 HD
ENDBRANCH   1   2
BRANCH   1   7
ATOM      6  O   UNK     1      34.760 -16.736 -25.877  0.00  0.00    -0.291 OA
ATOM      7  C   UNK     1      34.580 -16.986 -24.690  0.00  0.00    +0.186 C 
ENDBRANCH   1   7
BRANCH   1   8
ATOM      8  C   UNK     1      35.011 -16.657 -22.192  0.00  0.00    +0.054 C 
BRANCH   8   9
ATOM      9  S   UNK     1      35.788 -18.298 -22.349  0.00  0.00    -0.084 S 
BRANCH   9  10
ATOM     10  S   UNK     1      34.479 -19.469 -21.282  0.00  0.00    -0.082 S 
BRANCH  10  11
ATOM     11  C   UNK     1      35.608 -20.455 -20.269  0.00  0.00    +0.069 C 
BRANCH  11  12
ATOM     12  C   UNK     1      34.866 -21.615 -19.617  0.00  0.00    +0.013 C 
ATOM     13  C   UNK     1      33.372 -21.335 -19.537  0.00  0.00    +0.001 C 
ENDBRANCH  11  12
ENDBRANCH  10  11
ENDBRANCH   9  10
ENDBRANCH   8   9
ENDBRANCH   1   8
TORSDOF 7
ENDMDL
MODEL 4
REMARK VINA RESULT:      -4.6      3.608      5.273
REMARK  Name = 17754128
REMARK  7 active torsions:
REMARK  status: ('A' for Active; 'I' for Inactive)
REMARK    1  A    between atoms: C_1  and  N_2
REMARK    2  A    between atoms: C_1  and  C_7
REMARK    3  A    between atoms: C_1  and  C_8
REMARK    4  A    between atoms: C_8  and  S_9
REMARK    5  A    between atoms: S_9  and  S_10
REMARK    6  A    between atoms: S_10  and  C_11
REMARK    7  A    between atoms: C_11  and  C_12
REMARK                            x       y       z     vdW  Elec       q    Type
REMARK                         _______ _______ _______ _____ _____    ______ ____
ROOT
ATOM      1  C   UNK     1      34.200 -19.364 -20.931  0.00  0.00    +0.013 C 
ENDROOT
BRANCH   1   2
ATOM      2  N   UNK     1      35.209 -20.131 -20.198  0.00  0.00    +0.387 N 
ATOM      3  H   UNK     1      36.127 -19.714 -20.348  0.00  0.00    -0.089 HD
ATOM      4  H   UNK     1      35.213 -21.094 -20.533  0.00  0.00    -0.089 HD
ATOM      5  H   UNK     1      34.988 -20.118 -19.203  0.00  0.00    -0.089 HD
ENDBRANCH   1   2
BRANCH   1   7
ATOM      6  O   UNK     1      32.658 -20.686 -19.587  0.00  0.00    -0.291 OA
ATOM      7  C   UNK     1      32.877 -20.029 -20.600  0.00  0.00    +0.186 C 
ENDBRANCH   1   7
BRANCH   1   8
ATOM      8  C   UNK     1      34.533 -19.347 -22.424  0.00  0.00    +0.054 C 
BRANCH   8   9
ATOM      9  S   UNK     1      35.778 -18.077 -22.825  0.00  0.00    -0.084 S 
BRANCH   9  10
ATOM     10  S   UNK     1      34.696 -16.818 -24.035  0.00  0.00    -0.082 S 
BRANCH  10  11
ATOM     11  C   UNK     1      34.651 -15.305 -23.046  0.00  0.00    +0.069 C 
BRANCH  11  12
ATOM     12  C   UNK     1      33.688 -15.460 -21.875  0.00  0.00    +0.013 C 
ATOM     13  C   UNK     1      34.419 -15.342 -20.545  0.00  0.00    +0.001 C 
ENDBRANCH  11  12
ENDBRANCH  10  11
ENDBRANCH   9  10
ENDBRANCH   8   9
ENDBRANCH   1   8
TORSDOF 7
ENDMDL
MODEL 5
REMARK VINA RESULT:      -4.5     11.179     12.947
REMARK  Name = 17754128
REMARK  7 active torsions:
REMARK  status: ('A' for Active; 'I' for Inactive)
REMARK    1  A    between atoms: C_1  and  N_2
REMARK    2  A    between atoms: C_1  and  C_7
REMARK    3  A    between atoms: C_1  and  C_8
REMARK    4  A    between atoms: C_8  and  S_9
REMARK    5  A    between atoms: S_9  and  S_10
REMARK    6  A    between atoms: S_10  and  C_11
REMARK    7  A    between atoms: C_11  and  C_12
REMARK                            x       y       z     vdW  Elec       q    Type
REMARK                         _______ _______ _______ _____ _____    ______ ____
ROOT
ATOM      1  C   UNK     1      36.906 -24.439 -12.202  0.00  0.00    +0.013 C 
ENDROOT
BRANCH   1   2
ATOM      2  N   UNK     1      38.113 -23.980 -11.512  0.00  0.00    +0.387 N 
ATOM      3  H   UNK     1      38.576 -24.775 -11.072  0.00  0.00    -0.089 HD
ATOM      4  H   UNK     1      37.859 -23.297 -10.798  0.00  0.00    -0.089 HD
ATOM      5  H   UNK     1      38.746 -23.548 -12.185  0.00  0.00    -0.089 HD
ENDBRANCH   1   2
BRANCH   1   7
ATOM      6  O   UNK     1      35.308 -25.145 -10.505  0.00  0.00    -0.291 OA
ATOM      7  C   UNK     1      35.781 -24.252 -11.201  0.00  0.00    +0.186 C 
ENDBRANCH   1   7
BRANCH   1   8
ATOM      8  C   UNK     1      37.086 -25.882 -12.676  0.00  0.00    +0.054 C 
BRANCH   8   9
ATOM      9  S   UNK     1      37.040 -26.007 -14.493  0.00  0.00    -0.084 S 
BRANCH   9  10
ATOM     10  S   UNK     1      36.496 -24.097 -15.018  0.00  0.00    -0.082 S 
BRANCH  10  11
ATOM     11  C   UNK     1      34.705 -24.262 -15.206  0.00  0.00    +0.069 C 
BRANCH  11  12
ATOM     12  C   UNK     1      34.203 -23.380 -16.343  0.00  0.00    +0.013 C 
ATOM     13  C   UNK     1      32.682 -23.334 -16.370  0.00  0.00    +0.001 C 
ENDBRANCH  11  12
ENDBRANCH  10  11
ENDBRANCH   9  10
ENDBRANCH   8   9
ENDBRANCH   1   8
TORSDOF 7
ENDMDL
MODEL 6
REMARK VINA RESULT:      -4.5     10.382     12.325
REMARK  Name = 17754128
REMARK  7 active torsions:
REMARK  status: ('A' for Active; 'I' for Inactive)
REMARK    1  A    between atoms: C_1  and  N_2
REMARK    2  A    between atoms: C_1  and  C_7
REMARK    3  A    between atoms: C_1  and  C_8
REMARK    4  A    between atoms: C_8  and  S_9
REMARK    5  A    between atoms: S_9  and  S_10
REMARK    6  A    between atoms: S_10  and  C_11
REMARK    7  A    between atoms: C_11  and  C_12
REMARK                            x       y       z     vdW  Elec       q    Type
REMARK                         _______ _______ _______ _____ _____    ______ ____
ROOT
ATOM      1  C   UNK     1      38.636 -25.440 -14.256  0.00  0.00    +0.013 C 
ENDROOT
BRANCH   1   2
ATOM      2  N   UNK     1      38.240 -26.844 -14.365  0.00  0.00    +0.387 N 
ATOM      3  H   UNK     1      37.493 -27.039 -13.698  0.00  0.00    -0.089 HD
ATOM      4  H   UNK     1      39.041 -27.441 -14.161  0.00  0.00    -0.089 HD
ATOM      5  H   UNK     1      37.909 -27.032 -15.311  0.00  0.00    -0.089 HD
ENDBRANCH   1   2
BRANCH   1   7
ATOM      6  O   UNK     1      40.607 -26.079 -15.537  0.00  0.00    -0.291 OA
ATOM      7  C   UNK     1      40.104 -25.410 -14.640  0.00  0.00    +0.186 C 
ENDBRANCH   1   7
BRANCH   1   8
ATOM      8  C   UNK     1      38.349 -24.918 -12.848  0.00  0.00    +0.054 C 
BRANCH   8   9
ATOM      9  S   UNK     1      37.260 -23.456 -12.877  0.00  0.00    -0.084 S 
BRANCH   9  10
ATOM     10  S   UNK     1      35.748 -24.103 -14.108  0.00  0.00    -0.082 S 
BRANCH  10  11
ATOM     11  C   UNK     1      35.692 -22.786 -15.346  0.00  0.00    +0.069 C 
BRANCH  11  12
ATOM     12  C   UNK     1      37.037 -22.657 -16.051  0.00  0.00    +0.013 C 
ATOM     13  C   UNK     1      36.930 -21.766 -17.280  0.00  0.00    +0.001 C 
ENDBRANCH  11  12
ENDBRANCH  10  11
ENDBRANCH   9  10
ENDBRANCH   8   9
ENDBRANCH   1   8
TORSDOF 7
ENDMDL
MODEL 7
REMARK VINA RESULT:      -4.5      1.855      1.992
REMARK  Name = 17754128
REMARK  7 active torsions:
REMARK  status: ('A' for Active; 'I' for Inactive)
REMARK    1  A    between atoms: C_1  and  N_2
REMARK    2  A    between atoms: C_1  and  C_7
REMARK    3  A    between atoms: C_1  and  C_8
REMARK    4  A    between atoms: C_8  and  S_9
REMARK    5  A    between atoms: S_9  and  S_10
REMARK    6  A    between atoms: S_10  and  C_11
REMARK    7  A    between atoms: C_11  and  C_12
REMARK                            x       y       z     vdW  Elec       q    Type
REMARK                         _______ _______ _______ _____ _____    ______ ____
ROOT
ATOM      1  C   UNK     1      33.800 -14.122 -24.525  0.00  0.00    +0.013 C 
ENDROOT
BRANCH   1   2
ATOM      2  N   UNK     1      33.304 -12.784 -24.199  0.00  0.00    +0.387 N 
ATOM      3  H   UNK     1      32.328 -12.845 -23.909  0.00  0.00    -0.089 HD
ATOM      4  H   UNK     1      33.378 -12.185 -25.021  0.00  0.00    -0.089 HD
ATOM      5  H   UNK     1      33.860 -12.390 -23.441  0.00  0.00    -0.089 HD
ENDBRANCH   1   2
BRANCH   1   7
ATOM      6  O   UNK     1      33.471 -15.331 -26.613  0.00  0.00    -0.291 OA
ATOM      7  C   UNK     1      33.057 -14.527 -25.784  0.00  0.00    +0.186 C 
ENDBRANCH   1   7
BRANCH   1   8
ATOM      8  C   UNK     1      33.583 -15.067 -23.342  0.00  0.00    +0.054 C 
BRANCH   8   9
ATOM      9  S   UNK     1      34.913 -16.306 -23.212  0.00  0.00    -0.084 S 
BRANCH   9  10
ATOM     10  S   UNK     1      34.799 -16.816 -21.226  0.00  0.00    -0.082 S 
BRANCH  10  11
ATOM     11  C   UNK     1      35.566 -18.455 -21.221  0.00  0.00    +0.069 C 
BRANCH  11  12
ATOM     12  C   UNK     1      34.615 -19.491 -21.808  0.00  0.00    +0.013 C 
ATOM     13  C   UNK     1      33.555 -19.899 -20.794  0.00  0.00    +0.001 C 
ENDBRANCH  11  12
ENDBRANCH  10  11
ENDBRANCH   9  10
ENDBRANCH   8   9
ENDBRANCH   1   8
TORSDOF 7
ENDMDL
MODEL 8
REMARK VINA RESULT:      -4.4      4.878      6.727
REMARK  Name = 17754128
REMARK  7 active torsions:
REMARK  status: ('A' for Active; 'I' for Inactive)
REMARK    1  A    between atoms: C_1  and  N_2
REMARK    2  A    between atoms: C_1  and  C_7
REMARK    3  A    between atoms: C_1  and  C_8
REMARK    4  A    between atoms: C_8  and  S_9
REMARK    5  A    between atoms: S_9  and  S_10
REMARK    6  A    between atoms: S_10  and  C_11
REMARK    7  A    between atoms: C_11  and  C_12
REMARK                            x       y       z     vdW  Elec       q    Type
REMARK                         _______ _______ _______ _____ _____    ______ ____
ROOT
ATOM      1  C   UNK     1      33.623 -21.912 -19.564  0.00  0.00    +0.013 C 
ENDROOT
BRANCH   1   2
ATOM      2  N   UNK     1      32.565 -22.041 -18.561  0.00  0.00    +0.387 N 
ATOM      3  H   UNK     1      32.967 -22.372 -17.684  0.00  0.00    -0.089 HD
ATOM      4  H   UNK     1      31.866 -22.708 -18.887  0.00  0.00    -0.089 HD
ATOM      5  H   UNK     1      32.125 -21.133 -18.412  0.00  0.00    -0.089 HD
ENDBRANCH   1   2
BRANCH   1   7
ATOM      6  O   UNK     1      35.018 -22.776 -17.764  0.00  0.00    -0.291 OA
ATOM      7  C   UNK     1      34.919 -22.138 -18.808  0.00  0.00    +0.186 C 
ENDBRANCH   1   7
BRANCH   1   8
ATOM      8  C   UNK     1      33.532 -20.550 -20.253  0.00  0.00    +0.054 C 
BRANCH   8   9
ATOM      9  S   UNK     1      35.169 -19.954 -20.792  0.00  0.00    -0.084 S 
BRANCH   9  10
ATOM     10  S   UNK     1      34.749 -18.004 -21.280  0.00  0.00    -0.082 S 
BRANCH  10  11
ATOM     11  C   UNK     1      35.700 -17.792 -22.804  0.00  0.00    +0.069 C 
BRANCH  11  12
ATOM     12  C   UNK     1      34.773 -17.749 -24.012  0.00  0.00    +0.013 C 
ATOM     13  C   UNK     1      34.539 -19.144 -24.573  0.00  0.00    +0.001 C 
ENDBRANCH  11  12
ENDBRANCH  10  11
ENDBRANCH   9  10
ENDBRANCH   8   9
ENDBRANCH   1   8
TORSDOF 7
ENDMDL
MODEL 9
REMARK VINA RESULT:      -4.4     10.864     12.118
REMARK  Name = 17754128
REMARK  7 active torsions:
REMARK  status: ('A' for Active; 'I' for Inactive)
REMARK    1  A    between atoms: C_1  and  N_2
REMARK    2  A    between atoms: C_1  and  C_7
REMARK    3  A    between atoms: C_1  and  C_8
REMARK    4  A    between atoms: C_8  and  S_9
REMARK    5  A    between atoms: S_9  and  S_10
REMARK    6  A    between atoms: S_10  and  C_11
REMARK    7  A    between atoms: C_11  and  C_12
REMARK                            x       y       z     vdW  Elec       q    Type
REMARK                         _______ _______ _______ _____ _____    ______ ____
ROOT
ATOM      1  C   UNK     1      36.777 -25.632 -14.358  0.00  0.00    +0.013 C 
ENDROOT
BRANCH   1   2
ATOM      2  N   UNK     1      35.974 -26.663 -15.018  0.00  0.00    +0.387 N 
ATOM      3  H   UNK     1      35.346 -27.090 -14.338  0.00  0.00    -0.089 HD
ATOM      4  H   UNK     1      36.590 -27.376 -15.408  0.00  0.00    -0.089 HD
ATOM      5  H   UNK     1      35.427 -26.240 -15.767  0.00  0.00    -0.089 HD
ENDBRANCH   1   2
BRANCH   1   7
ATOM      6  O   UNK     1      36.886 -26.284 -12.014  0.00  0.00    -0.291 OA
ATOM      7  C   UNK     1      37.374 -26.311 -13.140  0.00  0.00    +0.186 C 
ENDBRANCH   1   7
BRANCH   1   8
ATOM      8  C   UNK     1      35.909 -24.416 -14.032  0.00  0.00    +0.054 C 
BRANCH   8   9
ATOM      9  S   UNK     1      36.003 -23.147 -15.337  0.00  0.00    -0.084 S 
BRANCH   9  10
ATOM     10  S   UNK     1      34.159 -23.340 -16.221  0.00  0.00    -0.082 S 
BRANCH  10  11
ATOM     11  C   UNK     1      33.132 -23.855 -14.824  0.00  0.00    +0.069 C 
BRANCH  11  12
ATOM     12  C   UNK     1      31.837 -23.052 -14.788  0.00  0.00    +0.013 C 
ATOM     13  C   UNK     1      31.160 -23.043 -16.150  0.00  0.00    +0.001 C 
ENDBRANCH  11  12
ENDBRANCH  10  11
ENDBRANCH   9  10
ENDBRANCH   8   9
ENDBRANCH   1   8
TORSDOF 7
ENDMDL
