MODEL 1
REMARK VINA RESULT:     -10.7      0.000      0.000
REMARK  Name = 5288709
REMARK  6 active torsions:
REMARK  status: ('A' for Active; 'I' for Inactive)
REMARK    1  A    between atoms: N_1  and  C_8
REMARK    2  A    between atoms: N_1  and  N_16
REMARK    3  A    between atoms: N_16  and  C_19
REMARK    4  A    between atoms: C_18  and  C_24
REMARK    5  A    between atoms: C_24  and  S_25
REMARK    6  A    between atoms: S_25  and  N_28
REMARK                            x       y       z     vdW  Elec       q    Type
REMARK                         _______ _______ _______ _____ _____    ______ ____
ROOT
ATOM      1  N   UNL     1      34.462 -25.025 -14.359  0.00  0.00    -0.255 N 
ATOM      2  H   UNL     1      34.436 -25.929 -14.750  0.00  0.00    +0.171 HD
ENDROOT
BRANCH   1   8
ATOM      3  S   UNL     1      33.443 -23.502 -17.354  0.00  0.00    -0.104 S 
ATOM      4  O   UNL     1      36.874 -24.799 -12.818  0.00  0.00    -0.208 OA
ATOM      5  N   UNL     1      37.627 -23.287 -14.426  0.00  0.00    -0.332 NA
ATOM      6  N   UNL     1      34.720 -21.795 -18.842  0.00  0.00    -0.262 NA
ATOM      7  C   UNL     1      35.721 -23.410 -15.723  0.00  0.00    +0.050 C 
ATOM      8  C   UNL     1      35.498 -24.232 -14.705  0.00  0.00    +0.156 C 
ATOM      9  C   UNL     1      37.059 -22.849 -15.500  0.00  0.00    +0.144 C 
ATOM     10  C   UNL     1      34.994 -23.019 -16.854  0.00  0.00    +0.116 C 
ATOM     11  C   UNL     1      35.508 -22.116 -17.767  0.00  0.00    +0.069 C 
ATOM     12  C   UNL     1      37.578 -21.880 -16.504  0.00  0.00    +0.034 C 
ATOM     13  C   UNL     1      36.724 -24.166 -13.852  0.00  0.00    +0.220 C 
ATOM     14  C   UNL     1      36.812 -21.557 -17.567  0.00  0.00    +0.018 C 
ATOM     15  C   UNL     1      33.596 -22.472 -18.730  0.00  0.00    +0.183 C 
ENDBRANCH   1   8
BRANCH   1  16
ATOM     16  N   UNL     1      33.455 -24.684 -13.521  0.00  0.00    -0.265 N 
ATOM     17  H   UNL     1      33.647 -24.700 -12.555  0.00  0.00    +0.170 HD
BRANCH  16  19
ATOM     18  C   UNL     1      29.578 -23.568 -14.692  0.00  0.00    +0.003 C 
ATOM     19  C   UNL     1      32.159 -24.312 -13.914  0.00  0.00    +0.061 C 
ATOM     20  C   UNL     1      30.521 -22.589 -14.375  0.00  0.00    -0.001 C 
ATOM     21  C   UNL     1      29.925 -24.918 -14.619  0.00  0.00    -0.001 C 
ATOM     22  C   UNL     1      31.808 -22.960 -13.986  0.00  0.00    +0.016 C 
ATOM     23  C   UNL     1      31.212 -25.289 -14.232  0.00  0.00    +0.016 C 
BRANCH  18  24
ATOM     24  C   UNL     1      28.202 -23.172 -15.107  0.00  0.00    +0.195 C 
BRANCH  24  25
ATOM     25  S   UNL     1      28.227 -22.864 -16.843  0.00  0.00    +0.045 S 
ATOM     26  O   UNL     1      29.535 -22.339 -17.199  0.00  0.00    -0.157 OA
ATOM     27  O   UNL     1      27.706 -24.044 -17.515  0.00  0.00    -0.157 OA
BRANCH  25  28
ATOM     28  N   UNL     1      27.060 -21.620 -16.971  0.00  0.00    -0.182 NA
ATOM     29  C   UNL     1      26.274 -21.502 -18.213  0.00  0.00    +0.110 C 
ATOM     30  H   UNL     1      27.551 -20.735 -16.843  0.00  0.00    +0.148 HD
ENDBRANCH  25  28
ENDBRANCH  24  25
ENDBRANCH  18  24
ENDBRANCH  16  19
ENDBRANCH   1  16
TORSDOF 6
ENDMDL
MODEL 2
REMARK VINA RESULT:     -10.7      4.365      7.483
REMARK  Name = 5288709
REMARK  6 active torsions:
REMARK  status: ('A' for Active; 'I' for Inactive)
REMARK    1  A    between atoms: N_1  and  C_8
REMARK    2  A    between atoms: N_1  and  N_16
REMARK    3  A    between atoms: N_16  and  C_19
REMARK    4  A    between atoms: C_18  and  C_24
REMARK    5  A    between atoms: C_24  and  S_25
REMARK    6  A    between atoms: S_25  and  N_28
REMARK                            x       y       z     vdW  Elec       q    Type
REMARK                         _______ _______ _______ _____ _____    ______ ____
ROOT
ATOM      1  N   UNL     1      32.733 -22.461 -18.044  0.00  0.00    -0.255 N 
ATOM      2  H   UNL     1      31.860 -22.023 -18.164  0.00  0.00    +0.171 HD
ENDROOT
BRANCH   1   8
ATOM      3  S   UNL     1      29.535 -23.283 -16.851  0.00  0.00    -0.104 S 
ATOM      4  O   UNL     1      35.354 -22.886 -16.950  0.00  0.00    -0.208 OA
ATOM      5  N   UNL     1      34.308 -23.910 -15.135  0.00  0.00    -0.332 NA
ATOM      6  N   UNL     1      28.867 -24.488 -14.647  0.00  0.00    -0.262 NA
ATOM      7  C   UNL     1      32.166 -23.609 -15.942  0.00  0.00    +0.050 C 
ATOM      8  C   UNL     1      32.960 -23.074 -16.862  0.00  0.00    +0.156 C 
ATOM      9  C   UNL     1      33.056 -24.114 -14.890  0.00  0.00    +0.144 C 
ATOM     10  C   UNL     1      30.782 -23.765 -15.802  0.00  0.00    +0.116 C 
ATOM     11  C   UNL     1      30.233 -24.384 -14.693  0.00  0.00    +0.069 C 
ATOM     12  C   UNL     1      32.428 -24.774 -13.712  0.00  0.00    +0.034 C 
ATOM     13  C   UNL     1      34.353 -23.260 -16.356  0.00  0.00    +0.220 C 
ATOM     14  C   UNL     1      31.085 -24.883 -13.655  0.00  0.00    +0.018 C 
ATOM     15  C   UNL     1      28.386 -23.937 -15.743  0.00  0.00    +0.183 C 
ENDBRANCH   1   8
BRANCH   1  16
ATOM     16  N   UNL     1      33.604 -22.398 -19.078  0.00  0.00    -0.265 N 
ATOM     17  H   UNL     1      34.101 -23.220 -19.299  0.00  0.00    +0.170 HD
BRANCH  16  19
ATOM     18  C   UNL     1      34.370 -18.995 -21.417  0.00  0.00    +0.003 C 
ATOM     19  C   UNL     1      33.860 -21.262 -19.861  0.00  0.00    +0.061 C 
ATOM     20  C   UNL     1      35.428 -19.783 -20.965  0.00  0.00    -0.001 C 
ATOM     21  C   UNL     1      33.057 -19.338 -21.092  0.00  0.00    -0.001 C 
ATOM     22  C   UNL     1      35.174 -20.914 -20.188  0.00  0.00    +0.016 C 
ATOM     23  C   UNL     1      32.802 -20.469 -20.316  0.00  0.00    +0.016 C 
BRANCH  18  24
ATOM     24  C   UNL     1      34.641 -17.786 -22.247  0.00  0.00    +0.195 C 
BRANCH  24  25
ATOM     25  S   UNL     1      34.355 -16.365 -21.244  0.00  0.00    +0.045 S 
ATOM     26  O   UNL     1      32.920 -16.208 -21.065  0.00  0.00    -0.157 OA
ATOM     27  O   UNL     1      35.230 -16.451 -20.085  0.00  0.00    -0.157 OA
BRANCH  25  28
ATOM     28  N   UNL     1      34.941 -15.122 -22.262  0.00  0.00    -0.182 NA
ATOM     29  C   UNL     1      34.217 -14.818 -23.510  0.00  0.00    +0.110 C 
ATOM     30  H   UNL     1      35.895 -15.374 -22.523  0.00  0.00    +0.148 HD
ENDBRANCH  25  28
ENDBRANCH  24  25
ENDBRANCH  18  24
ENDBRANCH  16  19
ENDBRANCH   1  16
TORSDOF 6
ENDMDL
MODEL 3
REMARK VINA RESULT:     -10.5     12.658     15.106
REMARK  Name = 5288709
REMARK  6 active torsions:
REMARK  status: ('A' for Active; 'I' for Inactive)
REMARK    1  A    between atoms: N_1  and  C_8
REMARK    2  A    between atoms: N_1  and  N_16
REMARK    3  A    between atoms: N_16  and  C_19
REMARK    4  A    between atoms: C_18  and  C_24
REMARK    5  A    between atoms: C_24  and  S_25
REMARK    6  A    between atoms: S_25  and  N_28
REMARK                            x       y       z     vdW  Elec       q    Type
REMARK                         _______ _______ _______ _____ _____    ______ ____
ROOT
ATOM      1  N   UNL     1      33.387 -13.032 -24.044  0.00  0.00    -0.255 N 
ATOM      2  H   UNL     1      32.636 -12.952 -23.412  0.00  0.00    +0.171 HD
ENDROOT
BRANCH   1   8
ATOM      3  S   UNL     1      34.452 -15.150 -21.454  0.00  0.00    -0.104 S 
ATOM      4  O   UNL     1      32.933 -13.503 -26.840  0.00  0.00    -0.208 OA
ATOM      5  N   UNL     1      33.571 -15.713 -26.457  0.00  0.00    -0.332 NA
ATOM      6  N   UNL     1      35.073 -17.672 -21.549  0.00  0.00    -0.262 NA
ATOM      7  C   UNL     1      33.959 -15.421 -24.200  0.00  0.00    +0.050 C 
ATOM      8  C   UNL     1      33.568 -14.230 -24.640  0.00  0.00    +0.156 C 
ATOM      9  C   UNL     1      33.943 -16.306 -25.371  0.00  0.00    +0.144 C 
ATOM     10  C   UNL     1      34.344 -15.937 -22.957  0.00  0.00    +0.116 C 
ATOM     11  C   UNL     1      34.712 -17.262 -22.806  0.00  0.00    +0.069 C 
ATOM     12  C   UNL     1      34.345 -17.726 -25.170  0.00  0.00    +0.034 C 
ATOM     13  C   UNL     1      33.312 -14.401 -26.102  0.00  0.00    +0.220 C 
ATOM     14  C   UNL     1      34.703 -18.141 -23.937  0.00  0.00    +0.018 C 
ATOM     15  C   UNL     1      34.974 -16.633 -20.745  0.00  0.00    +0.183 C 
ENDBRANCH   1   8
BRANCH   1  16
ATOM     16  N   UNL     1      34.148 -11.931 -24.244  0.00  0.00    -0.265 N 
ATOM     17  H   UNL     1      35.017 -12.059 -24.690  0.00  0.00    +0.170 HD
BRANCH  16  19
ATOM     18  C   UNL     1      33.120  -8.018 -23.116  0.00  0.00    +0.003 C 
ATOM     19  C   UNL     1      33.803 -10.623 -23.868  0.00  0.00    +0.061 C 
ATOM     20  C   UNL     1      34.262  -8.245 -23.884  0.00  0.00    -0.001 C 
ATOM     21  C   UNL     1      32.320  -9.091 -22.723  0.00  0.00    -0.001 C 
ATOM     22  C   UNL     1      34.604  -9.545 -24.259  0.00  0.00    +0.016 C 
ATOM     23  C   UNL     1      32.660 -10.390 -23.098  0.00  0.00    +0.016 C 
BRANCH  18  24
ATOM     24  C   UNL     1      32.755  -6.629 -22.715  0.00  0.00    +0.195 C 
BRANCH  24  25
ATOM     25  S   UNL     1      31.776  -5.931 -24.005  0.00  0.00    +0.045 S 
ATOM     26  O   UNL     1      32.656  -5.211 -24.912  0.00  0.00    -0.157 OA
ATOM     27  O   UNL     1      30.897  -6.973 -24.513  0.00  0.00    -0.157 OA
BRANCH  25  28
ATOM     28  N   UNL     1      30.825  -4.814 -23.127  0.00  0.00    -0.182 NA
ATOM     29  C   UNL     1      30.340  -5.186 -21.786  0.00  0.00    +0.110 C 
ATOM     30  H   UNL     1      30.003  -4.609 -23.696  0.00  0.00    +0.148 HD
ENDBRANCH  25  28
ENDBRANCH  24  25
ENDBRANCH  18  24
ENDBRANCH  16  19
ENDBRANCH   1  16
TORSDOF 6
ENDMDL
MODEL 4
REMARK VINA RESULT:     -10.4      4.326      7.132
REMARK  Name = 5288709
REMARK  6 active torsions:
REMARK  status: ('A' for Active; 'I' for Inactive)
REMARK    1  A    between atoms: N_1  and  C_8
REMARK    2  A    between atoms: N_1  and  N_16
REMARK    3  A    between atoms: N_16  and  C_19
REMARK    4  A    between atoms: C_18  and  C_24
REMARK    5  A    between atoms: C_24  and  S_25
REMARK    6  A    between atoms: S_25  and  N_28
REMARK                            x       y       z     vdW  Elec       q    Type
REMARK                         _______ _______ _______ _____ _____    ______ ____
ROOT
ATOM      1  N   UNL     1      34.429 -22.463 -17.810  0.00  0.00    -0.255 N 
ATOM      2  H   UNL     1      33.447 -22.407 -17.761  0.00  0.00    +0.171 HD
ENDROOT
BRANCH   1   8
ATOM      3  S   UNL     1      31.995 -23.824 -15.677  0.00  0.00    -0.104 S 
ATOM      4  O   UNL     1      37.225 -21.930 -17.434  0.00  0.00    -0.208 OA
ATOM      5  N   UNL     1      36.981 -22.774 -15.274  0.00  0.00    -0.332 NA
ATOM      6  N   UNL     1      32.243 -24.654 -13.225  0.00  0.00    -0.262 NA
ATOM      7  C   UNL     1      34.729 -23.235 -15.493  0.00  0.00    +0.050 C 
ATOM      8  C   UNL     1      35.091 -22.722 -16.662  0.00  0.00    +0.156 C 
ATOM      9  C   UNL     1      35.942 -23.244 -14.666  0.00  0.00    +0.144 C 
ATOM     10  C   UNL     1      33.530 -23.718 -14.955  0.00  0.00    +0.116 C 
ATOM     11  C   UNL     1      33.462 -24.203 -13.661  0.00  0.00    +0.069 C 
ATOM     12  C   UNL     1      35.830 -23.775 -13.279  0.00  0.00    +0.034 C 
ATOM     13  C   UNL     1      36.549 -22.417 -16.539  0.00  0.00    +0.220 C 
ATOM     14  C   UNL     1      34.635 -24.221 -12.839  0.00  0.00    +0.018 C 
ATOM     15  C   UNL     1      31.383 -24.502 -14.213  0.00  0.00    +0.183 C 
ENDBRANCH   1   8
BRANCH   1  16
ATOM     16  N   UNL     1      35.000 -22.275 -19.023  0.00  0.00    -0.265 N 
ATOM     17  H   UNL     1      35.557 -23.007 -19.378  0.00  0.00    +0.170 HD
BRANCH  16  19
ATOM     18  C   UNL     1      34.598 -18.834 -21.398  0.00  0.00    +0.003 C 
ATOM     19  C   UNL     1      34.865 -21.126 -19.818  0.00  0.00    +0.061 C 
ATOM     20  C   UNL     1      35.867 -19.322 -21.085  0.00  0.00    -0.001 C 
ATOM     21  C   UNL     1      33.463 -19.491 -20.922  0.00  0.00    -0.001 C 
ATOM     22  C   UNL     1      36.001 -20.465 -20.297  0.00  0.00    +0.016 C 
ATOM     23  C   UNL     1      33.595 -20.634 -20.134  0.00  0.00    +0.016 C 
BRANCH  18  24
ATOM     24  C   UNL     1      34.455 -17.612 -22.241  0.00  0.00    +0.195 C 
BRANCH  24  25
ATOM     25  S   UNL     1      34.122 -16.252 -21.169  0.00  0.00    +0.045 S 
ATOM     26  O   UNL     1      32.709 -16.269 -20.828  0.00  0.00    -0.157 OA
ATOM     27  O   UNL     1      35.128 -16.253 -20.118  0.00  0.00    -0.157 OA
BRANCH  25  28
ATOM     28  N   UNL     1      34.441 -14.931 -22.209  0.00  0.00    -0.182 NA
ATOM     29  C   UNL     1      34.570 -15.175 -23.657  0.00  0.00    +0.110 C 
ATOM     30  H   UNL     1      35.316 -14.510 -21.897  0.00  0.00    +0.148 HD
ENDBRANCH  25  28
ENDBRANCH  24  25
ENDBRANCH  18  24
ENDBRANCH  16  19
ENDBRANCH   1  16
TORSDOF 6
ENDMDL
MODEL 5
REMARK VINA RESULT:     -10.2     11.454     13.842
REMARK  Name = 5288709
REMARK  6 active torsions:
REMARK  status: ('A' for Active; 'I' for Inactive)
REMARK    1  A    between atoms: N_1  and  C_8
REMARK    2  A    between atoms: N_1  and  N_16
REMARK    3  A    between atoms: N_16  and  C_19
REMARK    4  A    between atoms: C_18  and  C_24
REMARK    5  A    between atoms: C_24  and  S_25
REMARK    6  A    between atoms: S_25  and  N_28
REMARK                            x       y       z     vdW  Elec       q    Type
REMARK                         _______ _______ _______ _____ _____    ______ ____
ROOT
ATOM      1  N   UNL     1      33.843 -14.121 -23.082  0.00  0.00    -0.255 N 
ATOM      2  H   UNL     1      34.693 -13.733 -22.775  0.00  0.00    +0.171 HD
ENDROOT
BRANCH   1   8
ATOM      3  S   UNL     1      34.979 -16.821 -21.147  0.00  0.00    -0.104 S 
ATOM      4  O   UNL     1      33.157 -13.911 -25.863  0.00  0.00    -0.208 OA
ATOM      5  N   UNL     1      33.699 -16.171 -26.052  0.00  0.00    -0.332 NA
ATOM      6  N   UNL     1      35.452 -19.273 -21.870  0.00  0.00    -0.262 NA
ATOM      7  C   UNL     1      34.269 -16.427 -23.829  0.00  0.00    +0.050 C 
ATOM      8  C   UNL     1      33.913 -15.154 -23.950  0.00  0.00    +0.156 C 
ATOM      9  C   UNL     1      34.117 -17.014 -25.166  0.00  0.00    +0.144 C 
ATOM     10  C   UNL     1      34.717 -17.232 -22.775  0.00  0.00    +0.116 C 
ATOM     11  C   UNL     1      35.021 -18.568 -22.964  0.00  0.00    +0.069 C 
ATOM     12  C   UNL     1      34.454 -18.455 -25.331  0.00  0.00    +0.034 C 
ATOM     13  C   UNL     1      33.539 -14.969 -25.385  0.00  0.00    +0.220 C 
ATOM     14  C   UNL     1      34.879 -19.159 -24.262  0.00  0.00    +0.018 C 
ATOM     15  C   UNL     1      35.470 -18.447 -20.844  0.00  0.00    +0.183 C 
ENDBRANCH   1   8
BRANCH   1  16
ATOM     16  N   UNL     1      32.702 -13.575 -22.598  0.00  0.00    -0.265 N 
ATOM     17  H   UNL     1      32.043 -14.189 -22.200  0.00  0.00    +0.170 HD
BRANCH  16  19
ATOM     18  C   UNL     1      31.737  -9.488 -22.658  0.00  0.00    +0.003 C 
ATOM     19  C   UNL     1      32.381 -12.209 -22.618  0.00  0.00    +0.061 C 
ATOM     20  C   UNL     1      31.071 -10.350 -21.785  0.00  0.00    -0.001 C 
ATOM     21  C   UNL     1      32.723  -9.985 -23.510  0.00  0.00    -0.001 C 
ATOM     22  C   UNL     1      31.392 -11.707 -21.765  0.00  0.00    +0.016 C 
ATOM     23  C   UNL     1      33.045 -11.342 -23.490  0.00  0.00    +0.016 C 
BRANCH  18  24
ATOM     24  C   UNL     1      31.394  -8.037 -22.679  0.00  0.00    +0.195 C 
BRANCH  24  25
ATOM     25  S   UNL     1      32.734  -7.152 -21.951  0.00  0.00    +0.045 S 
ATOM     26  O   UNL     1      33.108  -7.819 -20.714  0.00  0.00    -0.157 OA
ATOM     27  O   UNL     1      33.730  -6.918 -22.985  0.00  0.00    -0.157 OA
BRANCH  25  28
ATOM     28  N   UNL     1      31.983  -5.659 -21.589  0.00  0.00    -0.182 NA
ATOM     29  C   UNL     1      30.617  -5.407 -22.084  0.00  0.00    +0.110 C 
ATOM     30  H   UNL     1      32.580  -4.924 -21.969  0.00  0.00    +0.148 HD
ENDBRANCH  25  28
ENDBRANCH  24  25
ENDBRANCH  18  24
ENDBRANCH  16  19
ENDBRANCH   1  16
TORSDOF 6
ENDMDL
MODEL 6
REMARK VINA RESULT:      -9.9     10.888     13.506
REMARK  Name = 5288709
REMARK  6 active torsions:
REMARK  status: ('A' for Active; 'I' for Inactive)
REMARK    1  A    between atoms: N_1  and  C_8
REMARK    2  A    between atoms: N_1  and  N_16
REMARK    3  A    between atoms: N_16  and  C_19
REMARK    4  A    between atoms: C_18  and  C_24
REMARK    5  A    between atoms: C_24  and  S_25
REMARK    6  A    between atoms: S_25  and  N_28
REMARK                            x       y       z     vdW  Elec       q    Type
REMARK                         _______ _______ _______ _____ _____    ______ ____
ROOT
ATOM      1  N   UNL     1      31.676 -12.268 -22.552  0.00  0.00    -0.255 N 
ATOM      2  H   UNL     1      31.330 -12.465 -23.452  0.00  0.00    +0.171 HD
ENDROOT
BRANCH   1   8
ATOM      3  S   UNL     1      34.078 -11.512 -24.998  0.00  0.00    -0.104 S 
ATOM      4  O   UNL     1      30.570 -10.712 -20.407  0.00  0.00    -0.208 OA
ATOM      5  N   UNL     1      31.949  -8.968 -21.110  0.00  0.00    -0.332 NA
ATOM      6  N   UNL     1      35.396  -9.303 -25.375  0.00  0.00    -0.262 NA
ATOM      7  C   UNL     1      32.889 -10.149 -22.857  0.00  0.00    +0.050 C 
ATOM      8  C   UNL     1      32.033 -10.992 -22.293  0.00  0.00    +0.156 C 
ATOM      9  C   UNL     1      32.797  -8.905 -22.083  0.00  0.00    +0.144 C 
ATOM     10  C   UNL     1      33.772 -10.217 -23.941  0.00  0.00    +0.116 C 
ATOM     11  C   UNL     1      34.562  -9.139 -24.299  0.00  0.00    +0.069 C 
ATOM     12  C   UNL     1      33.663  -7.767 -22.498  0.00  0.00    +0.034 C 
ATOM     13  C   UNL     1      31.414 -10.243 -21.157  0.00  0.00    +0.220 C 
ATOM     14  C   UNL     1      34.487  -7.916 -23.555  0.00  0.00    +0.018 C 
ATOM     15  C   UNL     1      35.225 -10.528 -25.830  0.00  0.00    +0.183 C 
ENDBRANCH   1   8
BRANCH   1  16
ATOM     16  N   UNL     1      31.751 -13.300 -21.678  0.00  0.00    -0.265 N 
ATOM     17  H   UNL     1      31.068 -13.340 -20.969  0.00  0.00    +0.170 HD
BRANCH  16  19
ATOM     18  C   UNL     1      34.649 -16.340 -21.738  0.00  0.00    +0.003 C 
ATOM     19  C   UNL     1      32.720 -14.315 -21.698  0.00  0.00    +0.061 C 
ATOM     20  C   UNL     1      34.083 -15.891 -22.932  0.00  0.00    -0.001 C 
ATOM     21  C   UNL     1      34.251 -15.778 -20.525  0.00  0.00    -0.001 C 
ATOM     22  C   UNL     1      33.121 -14.881 -22.912  0.00  0.00    +0.016 C 
ATOM     23  C   UNL     1      33.290 -14.767 -20.504  0.00  0.00    +0.016 C 
BRANCH  18  24
ATOM     24  C   UNL     1      35.677 -17.419 -21.759  0.00  0.00    +0.195 C 
BRANCH  24  25
ATOM     25  S   UNL     1      34.843 -18.965 -21.593  0.00  0.00    +0.045 S 
ATOM     26  O   UNL     1      33.559 -18.729 -20.954  0.00  0.00    -0.157 OA
ATOM     27  O   UNL     1      34.907 -19.648 -22.875  0.00  0.00    -0.157 OA
BRANCH  25  28
ATOM     28  N   UNL     1      35.880 -19.780 -20.504  0.00  0.00    -0.182 NA
ATOM     29  C   UNL     1      35.464 -21.089 -19.965  0.00  0.00    +0.110 C 
ATOM     30  H   UNL     1      36.023 -19.160 -19.706  0.00  0.00    +0.148 HD
ENDBRANCH  25  28
ENDBRANCH  24  25
ENDBRANCH  18  24
ENDBRANCH  16  19
ENDBRANCH   1  16
TORSDOF 6
ENDMDL
MODEL 7
REMARK VINA RESULT:      -9.9      6.995      9.744
REMARK  Name = 5288709
REMARK  6 active torsions:
REMARK  status: ('A' for Active; 'I' for Inactive)
REMARK    1  A    between atoms: N_1  and  C_8
REMARK    2  A    between atoms: N_1  and  N_16
REMARK    3  A    between atoms: N_16  and  C_19
REMARK    4  A    between atoms: C_18  and  C_24
REMARK    5  A    between atoms: C_24  and  S_25
REMARK    6  A    between atoms: S_25  and  N_28
REMARK                            x       y       z     vdW  Elec       q    Type
REMARK                         _______ _______ _______ _____ _____    ______ ____
ROOT
ATOM      1  N   UNL     1      35.137 -17.586 -23.000  0.00  0.00    -0.255 N 
ATOM      2  H   UNL     1      35.975 -17.559 -23.517  0.00  0.00    +0.171 HD
ENDROOT
BRANCH   1   8
ATOM      3  S   UNL     1      33.761 -15.979 -25.803  0.00  0.00    -0.104 S 
ATOM      4  O   UNL     1      35.339 -16.797 -20.247  0.00  0.00    -0.208 OA
ATOM      5  N   UNL     1      34.253 -14.823 -20.848  0.00  0.00    -0.332 NA
ATOM      6  N   UNL     1      32.603 -13.657 -25.957  0.00  0.00    -0.262 NA
ATOM      7  C   UNL     1      34.049 -15.380 -23.080  0.00  0.00    +0.050 C 
ATOM      8  C   UNL     1      34.669 -16.413 -22.522  0.00  0.00    +0.156 C 
ATOM      9  C   UNL     1      33.813 -14.420 -21.995  0.00  0.00    +0.144 C 
ATOM     10  C   UNL     1      33.622 -15.067 -24.376  0.00  0.00    +0.116 C 
ATOM     11  C   UNL     1      32.983 -13.872 -24.658  0.00  0.00    +0.069 C 
ATOM     12  C   UNL     1      33.123 -13.146 -22.336  0.00  0.00    +0.034 C 
ATOM     13  C   UNL     1      34.810 -16.070 -21.075  0.00  0.00    +0.220 C 
ATOM     14  C   UNL     1      32.745 -12.922 -23.612  0.00  0.00    +0.018 C 
ATOM     15  C   UNL     1      32.965 -14.711 -26.660  0.00  0.00    +0.183 C 
ENDBRANCH   1   8
BRANCH   1  16
ATOM     16  N   UNL     1      34.553 -18.795 -22.831  0.00  0.00    -0.265 N 
ATOM     17  H   UNL     1      34.001 -19.137 -23.573  0.00  0.00    +0.170 HD
BRANCH  16  19
ATOM     18  C   UNL     1      34.890 -21.211 -19.412  0.00  0.00    +0.003 C 
ATOM     19  C   UNL     1      34.665 -19.601 -21.687  0.00  0.00    +0.061 C 
ATOM     20  C   UNL     1      36.038 -20.784 -20.081  0.00  0.00    -0.001 C 
ATOM     21  C   UNL     1      33.631 -20.834 -19.879  0.00  0.00    -0.001 C 
ATOM     22  C   UNL     1      35.926 -19.981 -21.216  0.00  0.00    +0.016 C 
ATOM     23  C   UNL     1      33.518 -20.031 -21.014  0.00  0.00    +0.016 C 
BRANCH  18  24
ATOM     24  C   UNL     1      35.010 -22.069 -18.198  0.00  0.00    +0.195 C 
BRANCH  24  25
ATOM     25  S   UNL     1      33.662 -23.207 -18.205  0.00  0.00    +0.045 S 
ATOM     26  O   UNL     1      32.423 -22.455 -18.094  0.00  0.00    -0.157 OA
ATOM     27  O   UNL     1      33.861 -24.129 -19.312  0.00  0.00    -0.157 OA
BRANCH  25  28
ATOM     28  N   UNL     1      33.945 -24.058 -16.748  0.00  0.00    -0.182 NA
ATOM     29  C   UNL     1      34.765 -23.425 -15.698  0.00  0.00    +0.110 C 
ATOM     30  H   UNL     1      34.403 -24.934 -16.998  0.00  0.00    +0.148 HD
ENDBRANCH  25  28
ENDBRANCH  24  25
ENDBRANCH  18  24
ENDBRANCH  16  19
ENDBRANCH   1  16
TORSDOF 6
ENDMDL
MODEL 8
REMARK VINA RESULT:      -9.9      4.200      7.172
REMARK  Name = 5288709
REMARK  6 active torsions:
REMARK  status: ('A' for Active; 'I' for Inactive)
REMARK    1  A    between atoms: N_1  and  C_8
REMARK    2  A    between atoms: N_1  and  N_16
REMARK    3  A    between atoms: N_16  and  C_19
REMARK    4  A    between atoms: C_18  and  C_24
REMARK    5  A    between atoms: C_24  and  S_25
REMARK    6  A    between atoms: S_25  and  N_28
REMARK                            x       y       z     vdW  Elec       q    Type
REMARK                         _______ _______ _______ _____ _____    ______ ____
ROOT
ATOM      1  N   UNL     1      32.723 -22.608 -17.835  0.00  0.00    -0.255 N 
ATOM      2  H   UNL     1      31.840 -22.326 -18.167  0.00  0.00    +0.171 HD
ENDROOT
BRANCH   1   8
ATOM      3  S   UNL     1      36.098 -22.301 -16.915  0.00  0.00    -0.104 S 
ATOM      4  O   UNL     1      30.443 -23.650 -16.436  0.00  0.00    -0.208 OA
ATOM      5  N   UNL     1      31.880 -24.094 -14.654  0.00  0.00    -0.332 NA
ATOM      6  N   UNL     1      37.261 -22.987 -14.693  0.00  0.00    -0.262 NA
ATOM      7  C   UNL     1      33.764 -23.276 -15.707  0.00  0.00    +0.050 C 
ATOM      8  C   UNL     1      32.781 -23.113 -16.584  0.00  0.00    +0.156 C 
ATOM      9  C   UNL     1      33.149 -23.890 -14.525  0.00  0.00    +0.144 C 
ATOM     10  C   UNL     1      35.137 -23.000 -15.700  0.00  0.00    +0.116 C 
ATOM     11  C   UNL     1      35.927 -23.294 -14.604  0.00  0.00    +0.069 C 
ATOM     12  C   UNL     1      34.032 -24.191 -13.364  0.00  0.00    +0.034 C 
ATOM     13  C   UNL     1      31.550 -23.639 -15.918  0.00  0.00    +0.220 C 
ATOM     14  C   UNL     1      35.346 -23.894 -13.440  0.00  0.00    +0.018 C 
ATOM     15  C   UNL     1      37.470 -22.452 -15.879  0.00  0.00    +0.183 C 
ENDBRANCH   1   8
BRANCH   1  16
ATOM     16  N   UNL     1      33.776 -22.456 -18.672  0.00  0.00    -0.265 N 
ATOM     17  H   UNL     1      34.478 -23.148 -18.644  0.00  0.00    +0.170 HD
BRANCH  16  19
ATOM     18  C   UNL     1      34.303 -19.289 -21.380  0.00  0.00    +0.003 C 
ATOM     19  C   UNL     1      33.953 -21.397 -19.576  0.00  0.00    +0.061 C 
ATOM     20  C   UNL     1      33.030 -19.586 -20.893  0.00  0.00    -0.001 C 
ATOM     21  C   UNL     1      35.401 -20.045 -20.966  0.00  0.00    -0.001 C 
ATOM     22  C   UNL     1      32.855 -20.638 -19.993  0.00  0.00    +0.016 C 
ATOM     23  C   UNL     1      35.227 -21.096 -20.066  0.00  0.00    +0.016 C 
BRANCH  18  24
ATOM     24  C   UNL     1      34.491 -18.165 -22.341  0.00  0.00    +0.195 C 
BRANCH  24  25
ATOM     25  S   UNL     1      34.443 -16.657 -21.428  0.00  0.00    +0.045 S 
ATOM     26  O   UNL     1      33.054 -16.327 -21.156  0.00  0.00    -0.157 OA
ATOM     27  O   UNL     1      35.396 -16.766 -20.334  0.00  0.00    -0.157 OA
BRANCH  25  28
ATOM     28  N   UNL     1      35.075 -15.558 -22.577  0.00  0.00    -0.182 NA
ATOM     29  C   UNL     1      34.243 -14.424 -23.015  0.00  0.00    +0.110 C 
ATOM     30  H   UNL     1      35.308 -16.099 -23.410  0.00  0.00    +0.148 HD
ENDBRANCH  25  28
ENDBRANCH  24  25
ENDBRANCH  18  24
ENDBRANCH  16  19
ENDBRANCH   1  16
TORSDOF 6
ENDMDL
MODEL 9
REMARK VINA RESULT:      -9.8      1.393      2.033
REMARK  Name = 5288709
REMARK  6 active torsions:
REMARK  status: ('A' for Active; 'I' for Inactive)
REMARK    1  A    between atoms: N_1  and  C_8
REMARK    2  A    between atoms: N_1  and  N_16
REMARK    3  A    between atoms: N_16  and  C_19
REMARK    4  A    between atoms: C_18  and  C_24
REMARK    5  A    between atoms: C_24  and  S_25
REMARK    6  A    between atoms: S_25  and  N_28
REMARK                            x       y       z     vdW  Elec       q    Type
REMARK                         _______ _______ _______ _____ _____    ______ ____
ROOT
ATOM      1  N   UNL     1      33.837 -24.113 -12.755  0.00  0.00    -0.255 N 
ATOM      2  H   UNL     1      33.497 -23.359 -12.221  0.00  0.00    +0.171 HD
ENDROOT
BRANCH   1   8
ATOM      3  S   UNL     1      34.835 -22.829 -15.867  0.00  0.00    -0.104 S 
ATOM      4  O   UNL     1      35.324 -25.314 -10.612  0.00  0.00    -0.208 OA
ATOM      5  N   UNL     1      37.235 -24.997 -11.910  0.00  0.00    -0.332 NA
ATOM      6  N   UNL     1      37.216 -22.704 -16.902  0.00  0.00    -0.262 NA
ATOM      7  C   UNL     1      36.117 -24.022 -13.678  0.00  0.00    +0.050 C 
ATOM      8  C   UNL     1      35.175 -24.295 -12.783  0.00  0.00    +0.156 C 
ATOM      9  C   UNL     1      37.379 -24.479 -13.084  0.00  0.00    +0.144 C 
ATOM     10  C   UNL     1      36.130 -23.439 -14.951  0.00  0.00    +0.116 C 
ATOM     11  C   UNL     1      37.306 -23.285 -15.663  0.00  0.00    +0.069 C 
ATOM     12  C   UNL     1      38.624 -24.296 -13.881  0.00  0.00    +0.034 C 
ATOM     13  C   UNL     1      35.882 -24.928 -11.629  0.00  0.00    +0.220 C 
ATOM     14  C   UNL     1      38.548 -23.726 -15.101  0.00  0.00    +0.018 C 
ATOM     15  C   UNL     1      35.949 -22.418 -17.119  0.00  0.00    +0.183 C 
ENDBRANCH   1   8
BRANCH   1  16
ATOM     16  N   UNL     1      32.924 -24.879 -13.396  0.00  0.00    -0.265 N 
ATOM     17  H   UNL     1      33.149 -25.829 -13.532  0.00  0.00    +0.170 HD
BRANCH  16  19
ATOM     18  C   UNL     1      29.216 -23.548 -14.850  0.00  0.00    +0.003 C 
ATOM     19  C   UNL     1      31.685 -24.435 -13.883  0.00  0.00    +0.061 C 
ATOM     20  C   UNL     1      30.196 -22.624 -14.489  0.00  0.00    -0.001 C 
ATOM     21  C   UNL     1      29.468 -24.915 -14.727  0.00  0.00    -0.001 C 
ATOM     22  C   UNL     1      31.428 -23.066 -14.006  0.00  0.00    +0.016 C 
ATOM     23  C   UNL     1      30.700 -25.358 -14.245  0.00  0.00    +0.016 C 
BRANCH  18  24
ATOM     24  C   UNL     1      27.899 -23.076 -15.365  0.00  0.00    +0.195 C 
BRANCH  24  25
ATOM     25  S   UNL     1      28.073 -22.765 -17.093  0.00  0.00    +0.045 S 
ATOM     26  O   UNL     1      29.464 -22.443 -17.365  0.00  0.00    -0.157 OA
ATOM     27  O   UNL     1      27.420 -23.849 -17.810  0.00  0.00    -0.157 OA
BRANCH  25  28
ATOM     28  N   UNL     1      27.117 -21.358 -17.270  0.00  0.00    -0.182 NA
ATOM     29  C   UNL     1      26.002 -21.367 -18.235  0.00  0.00    +0.110 C 
ATOM     30  H   UNL     1      27.745 -20.603 -17.546  0.00  0.00    +0.148 HD
ENDBRANCH  25  28
ENDBRANCH  24  25
ENDBRANCH  18  24
ENDBRANCH  16  19
ENDBRANCH   1  16
TORSDOF 6
ENDMDL
