MODEL 1
REMARK VINA RESULT:      -6.0      0.000      0.000
REMARK  Name = 192579
REMARK  9 active torsions:
REMARK  status: ('A' for Active; 'I' for Inactive)
REMARK    1  A    between atoms: C_1  and  N_2
REMARK    2  A    between atoms: C_1  and  C_7
REMARK    3  A    between atoms: C_1  and  C_10
REMARK    4  A    between atoms: C_7  and  O_8
REMARK    5  A    between atoms: C_10  and  S_11
REMARK    6  A    between atoms: S_11  and  C_12
REMARK    7  A    between atoms: C_12  and  P_13
REMARK    8  A    between atoms: P_13  and  O_15
REMARK    9  A    between atoms: P_13  and  O_17
REMARK                            x       y       z     vdW  Elec       q    Type
REMARK                         _______ _______ _______ _____ _____    ______ ____
ROOT
ATOM      1  C   UNK     1      38.839 -25.621 -14.528  0.00  0.00    +0.047 C 
ENDROOT
BRANCH   1   2
ATOM      2  N   UNK     1      38.986 -26.147 -13.169  0.00  0.00    +0.389 N 
ATOM      3  H   UNK     1      39.674 -26.899 -13.168  0.00  0.00    -0.088 HD
ATOM      4  H   UNK     1      38.088 -26.506 -12.845  0.00  0.00    -0.088 HD
ATOM      5  H   UNK     1      39.297 -25.400 -12.548  0.00  0.00    -0.088 HD
ENDBRANCH   1   2
BRANCH   1   7
ATOM      6  O   UNK     1      41.044 -24.626 -14.487  0.00  0.00    -0.253 OA
ATOM      7  C   UNK     1      40.232 -25.342 -15.062  0.00  0.00    +0.294 C 
BRANCH   7   8
ATOM      8  O   UNK     1      40.488 -25.930 -16.258  0.00  0.00    -0.482 OA
ATOM      9  H   UNK     1      39.866 -26.523 -16.632  0.00  0.00    +0.295 HD
ENDBRANCH   7   8
ENDBRANCH   1   7
BRANCH   1  10
ATOM     10  C   UNK     1      37.962 -24.367 -14.515  0.00  0.00    +0.047 C 
BRANCH  10  11
ATOM     11  S   UNK     1      36.209 -24.765 -14.228  0.00  0.00    -0.129 S 
BRANCH  11  12
ATOM     12  C   UNK     1      35.914 -23.642 -12.847  0.00  0.00    +0.173 C 
BRANCH  12  13
ATOM     13  P   UNK     1      36.348 -24.540 -11.371  0.00  0.00    +0.348 P 
ATOM     14  O   UNK     1      35.436 -24.334 -10.198  0.00  0.00    -0.257 OA
BRANCH  13  15
ATOM     15  O   UNK     1      37.899 -24.161 -11.115  0.00  0.00    -0.323 OA
ATOM     16  H   UNK     1      38.000 -23.196 -11.108  0.00  0.00    +0.220 HD
ENDBRANCH  13  15
BRANCH  13  17
ATOM     17  O   UNK     1      36.434 -26.068 -11.895  0.00  0.00    -0.323 OA
ATOM     18  H   UNK     1      36.895 -26.611 -11.235  0.00  0.00    +0.220 HD
ENDBRANCH  13  17
ENDBRANCH  12  13
ENDBRANCH  11  12
ENDBRANCH  10  11
ENDBRANCH   1  10
TORSDOF 9
ENDMDL
MODEL 2
REMARK VINA RESULT:      -6.0      1.378      1.622
REMARK  Name = 192579
REMARK  9 active torsions:
REMARK  status: ('A' for Active; 'I' for Inactive)
REMARK    1  A    between atoms: C_1  and  N_2
REMARK    2  A    between atoms: C_1  and  C_7
REMARK    3  A    between atoms: C_1  and  C_10
REMARK    4  A    between atoms: C_7  and  O_8
REMARK    5  A    between atoms: C_10  and  S_11
REMARK    6  A    between atoms: S_11  and  C_12
REMARK    7  A    between atoms: C_12  and  P_13
REMARK    8  A    between atoms: P_13  and  O_15
REMARK    9  A    between atoms: P_13  and  O_17
REMARK                            x       y       z     vdW  Elec       q    Type
REMARK                         _______ _______ _______ _____ _____    ______ ____
ROOT
ATOM      1  C   UNK     1      38.801 -25.595 -14.466  0.00  0.00    +0.047 C 
ENDROOT
BRANCH   1   2
ATOM      2  N   UNK     1      38.003 -26.778 -14.135  0.00  0.00    +0.389 N 
ATOM      3  H   UNK     1      38.317 -27.161 -13.242  0.00  0.00    -0.088 HD
ATOM      4  H   UNK     1      38.118 -27.481 -14.865  0.00  0.00    -0.088 HD
ATOM      5  H   UNK     1      37.020 -26.517 -14.066  0.00  0.00    -0.088 HD
ENDBRANCH   1   2
BRANCH   1   7
ATOM      6  O   UNK     1      40.998 -26.458 -13.936  0.00  0.00    -0.253 OA
ATOM      7  C   UNK     1      40.207 -26.068 -14.786  0.00  0.00    +0.294 C 
BRANCH   7   8
ATOM      8  O   UNK     1      40.525 -25.986 -16.103  0.00  0.00    -0.482 OA
ATOM      9  H   UNK     1      39.846 -25.925 -16.746  0.00  0.00    +0.295 HD
ENDBRANCH   7   8
ENDBRANCH   1   7
BRANCH   1  10
ATOM     10  C   UNK     1      38.775 -24.603 -13.301  0.00  0.00    +0.047 C 
BRANCH  10  11
ATOM     11  S   UNK     1      37.342 -23.485 -13.390  0.00  0.00    -0.129 S 
BRANCH  11  12
ATOM     12  C   UNK     1      37.079 -23.262 -11.619  0.00  0.00    +0.173 C 
BRANCH  12  13
ATOM     13  P   UNK     1      35.732 -24.339 -11.174  0.00  0.00    +0.348 P 
ATOM     14  O   UNK     1      35.442 -24.439  -9.705  0.00  0.00    -0.257 OA
BRANCH  13  15
ATOM     15  O   UNK     1      36.082 -25.739 -11.904  0.00  0.00    -0.323 OA
ATOM     16  H   UNK     1      36.022 -26.464 -11.262  0.00  0.00    +0.220 HD
ENDBRANCH  13  15
BRANCH  13  17
ATOM     17  O   UNK     1      34.508 -23.766 -12.063  0.00  0.00    -0.323 OA
ATOM     18  H   UNK     1      34.405 -22.816 -11.896  0.00  0.00    +0.220 HD
ENDBRANCH  13  17
ENDBRANCH  12  13
ENDBRANCH  11  12
ENDBRANCH  10  11
ENDBRANCH   1  10
TORSDOF 9
ENDMDL
MODEL 3
REMARK VINA RESULT:      -6.0      2.528      2.757
REMARK  Name = 192579
REMARK  9 active torsions:
REMARK  status: ('A' for Active; 'I' for Inactive)
REMARK    1  A    between atoms: C_1  and  N_2
REMARK    2  A    between atoms: C_1  and  C_7
REMARK    3  A    between atoms: C_1  and  C_10
REMARK    4  A    between atoms: C_7  and  O_8
REMARK    5  A    between atoms: C_10  and  S_11
REMARK    6  A    between atoms: S_11  and  C_12
REMARK    7  A    between atoms: C_12  and  P_13
REMARK    8  A    between atoms: P_13  and  O_15
REMARK    9  A    between atoms: P_13  and  O_17
REMARK                            x       y       z     vdW  Elec       q    Type
REMARK                         _______ _______ _______ _____ _____    ______ ____
ROOT
ATOM      1  C   UNK     1      36.389 -25.349 -15.308  0.00  0.00    +0.047 C 
ENDROOT
BRANCH   1   2
ATOM      2  N   UNK     1      35.116 -25.367 -14.585  0.00  0.00    +0.389 N 
ATOM      3  H   UNK     1      34.781 -24.411 -14.464  0.00  0.00    -0.088 HD
ATOM      4  H   UNK     1      35.250 -25.798 -13.670  0.00  0.00    -0.088 HD
ATOM      5  H   UNK     1      34.431 -25.903 -15.117  0.00  0.00    -0.088 HD
ENDBRANCH   1   2
BRANCH   1   7
ATOM      6  O   UNK     1      37.532 -27.193 -14.236  0.00  0.00    -0.253 OA
ATOM      7  C   UNK     1      36.976 -26.747 -15.233  0.00  0.00    +0.294 C 
BRANCH   7   8
ATOM      8  O   UNK     1      36.860 -27.452 -16.387  0.00  0.00    -0.482 OA
ATOM      9  H   UNK     1      36.071 -27.922 -16.571  0.00  0.00    +0.295 HD
ENDBRANCH   7   8
ENDBRANCH   1   7
BRANCH   1  10
ATOM     10  C   UNK     1      37.322 -24.297 -14.703  0.00  0.00    +0.047 C 
BRANCH  10  11
ATOM     11  S   UNK     1      36.407 -23.037 -13.761  0.00  0.00    -0.129 S 
BRANCH  11  12
ATOM     12  C   UNK     1      37.168 -23.318 -12.149  0.00  0.00    +0.173 C 
BRANCH  12  13
ATOM     13  P   UNK     1      36.041 -24.354 -11.238  0.00  0.00    +0.348 P 
ATOM     14  O   UNK     1      36.075 -24.189  -9.746  0.00  0.00    -0.257 OA
BRANCH  13  15
ATOM     15  O   UNK     1      36.350 -25.848 -11.774  0.00  0.00    -0.323 OA
ATOM     16  H   UNK     1      37.261 -26.091 -11.549  0.00  0.00    +0.220 HD
ENDBRANCH  13  15
BRANCH  13  17
ATOM     17  O   UNK     1      34.614 -24.014 -11.919  0.00  0.00    -0.323 OA
ATOM     18  H   UNK     1      34.018 -24.774 -11.816  0.00  0.00    +0.220 HD
ENDBRANCH  13  17
ENDBRANCH  12  13
ENDBRANCH  11  12
ENDBRANCH  10  11
ENDBRANCH   1  10
TORSDOF 9
ENDMDL
MODEL 4
REMARK VINA RESULT:      -6.0      2.231      5.080
REMARK  Name = 192579
REMARK  9 active torsions:
REMARK  status: ('A' for Active; 'I' for Inactive)
REMARK    1  A    between atoms: C_1  and  N_2
REMARK    2  A    between atoms: C_1  and  C_7
REMARK    3  A    between atoms: C_1  and  C_10
REMARK    4  A    between atoms: C_7  and  O_8
REMARK    5  A    between atoms: C_10  and  S_11
REMARK    6  A    between atoms: S_11  and  C_12
REMARK    7  A    between atoms: C_12  and  P_13
REMARK    8  A    between atoms: P_13  and  O_15
REMARK    9  A    between atoms: P_13  and  O_17
REMARK                            x       y       z     vdW  Elec       q    Type
REMARK                         _______ _______ _______ _____ _____    ______ ____
ROOT
ATOM      1  C   UNK     1      36.621 -23.652 -12.118  0.00  0.00    +0.047 C 
ENDROOT
BRANCH   1   2
ATOM      2  N   UNK     1      38.022 -23.509 -11.714  0.00  0.00    +0.389 N 
ATOM      3  H   UNK     1      38.130 -23.814 -10.747  0.00  0.00    -0.088 HD
ATOM      4  H   UNK     1      38.300 -22.531 -11.795  0.00  0.00    -0.088 HD
ATOM      5  H   UNK     1      38.610 -24.081 -12.320  0.00  0.00    -0.088 HD
ENDBRANCH   1   2
BRANCH   1   7
ATOM      6  O   UNK     1      34.873 -24.977 -11.098  0.00  0.00    -0.253 OA
ATOM      7  C   UNK     1      35.875 -24.285 -10.958  0.00  0.00    +0.294 C 
BRANCH   7   8
ATOM      8  O   UNK     1      36.397 -23.987  -9.742  0.00  0.00    -0.482 OA
ATOM      9  H   UNK     1      36.081 -24.425  -8.976  0.00  0.00    +0.295 HD
ENDBRANCH   7   8
ENDBRANCH   1   7
BRANCH   1  10
ATOM     10  C   UNK     1      36.526 -24.491 -13.394  0.00  0.00    +0.047 C 
BRANCH  10  11
ATOM     11  S   UNK     1      37.375 -26.092 -13.222  0.00  0.00    -0.129 S 
BRANCH  11  12
ATOM     12  C   UNK     1      38.042 -26.210 -14.895  0.00  0.00    +0.173 C 
BRANCH  12  13
ATOM     13  P   UNK     1      39.508 -25.198 -14.920  0.00  0.00    +0.348 P 
ATOM     14  O   UNK     1      40.140 -24.944 -13.583  0.00  0.00    -0.257 OA
BRANCH  13  15
ATOM     15  O   UNK     1      39.066 -23.875 -15.737  0.00  0.00    -0.323 OA
ATOM     16  H   UNK     1      39.276 -23.085 -15.215  0.00  0.00    +0.220 HD
ENDBRANCH  13  15
BRANCH  13  17
ATOM     17  O   UNK     1      40.458 -25.972 -15.976  0.00  0.00    -0.323 OA
ATOM     18  H   UNK     1      39.936 -26.635 -16.456  0.00  0.00    +0.220 HD
ENDBRANCH  13  17
ENDBRANCH  12  13
ENDBRANCH  11  12
ENDBRANCH  10  11
ENDBRANCH   1  10
TORSDOF 9
ENDMDL
MODEL 5
REMARK VINA RESULT:      -5.9      2.450      4.789
REMARK  Name = 192579
REMARK  9 active torsions:
REMARK  status: ('A' for Active; 'I' for Inactive)
REMARK    1  A    between atoms: C_1  and  N_2
REMARK    2  A    between atoms: C_1  and  C_7
REMARK    3  A    between atoms: C_1  and  C_10
REMARK    4  A    between atoms: C_7  and  O_8
REMARK    5  A    between atoms: C_10  and  S_11
REMARK    6  A    between atoms: S_11  and  C_12
REMARK    7  A    between atoms: C_12  and  P_13
REMARK    8  A    between atoms: P_13  and  O_15
REMARK    9  A    between atoms: P_13  and  O_17
REMARK                            x       y       z     vdW  Elec       q    Type
REMARK                         _______ _______ _______ _____ _____    ______ ____
ROOT
ATOM      1  C   UNK     1      36.725 -23.582 -11.605  0.00  0.00    +0.047 C 
ENDROOT
BRANCH   1   2
ATOM      2  N   UNK     1      37.942 -24.397 -11.603  0.00  0.00    +0.389 N 
ATOM      3  H   UNK     1      38.679 -23.907 -12.111  0.00  0.00    -0.088 HD
ATOM      4  H   UNK     1      37.753 -25.291 -12.056  0.00  0.00    -0.088 HD
ATOM      5  H   UNK     1      38.241 -24.558 -10.642  0.00  0.00    -0.088 HD
ENDBRANCH   1   2
BRANCH   1   7
ATOM      6  O   UNK     1      35.450 -24.528  -9.780  0.00  0.00    -0.253 OA
ATOM      7  C   UNK     1      35.617 -24.416 -10.989  0.00  0.00    +0.294 C 
BRANCH   7   8
ATOM      8  O   UNK     1      34.843 -25.057 -11.900  0.00  0.00    -0.482 OA
ATOM      9  H   UNK     1      34.064 -24.649 -12.224  0.00  0.00    +0.295 HD
ENDBRANCH   7   8
ENDBRANCH   1   7
BRANCH   1  10
ATOM     10  C   UNK     1      36.392 -23.140 -13.032  0.00  0.00    +0.047 C 
BRANCH  10  11
ATOM     11  S   UNK     1      37.646 -23.697 -14.228  0.00  0.00    -0.129 S 
BRANCH  11  12
ATOM     12  C   UNK     1      36.650 -24.933 -15.087  0.00  0.00    +0.173 C 
BRANCH  12  13
ATOM     13  P   UNK     1      37.398 -26.511 -14.732  0.00  0.00    +0.348 P 
ATOM     14  O   UNK     1      38.898 -26.527 -14.727  0.00  0.00    -0.257 OA
BRANCH  13  15
ATOM     15  O   UNK     1      36.700 -27.527 -15.779  0.00  0.00    -0.323 OA
ATOM     16  H   UNK     1      35.736 -27.478 -15.685  0.00  0.00    +0.220 HD
ENDBRANCH  13  15
BRANCH  13  17
ATOM     17  O   UNK     1      36.716 -26.920 -13.324  0.00  0.00    -0.323 OA
ATOM     18  H   UNK     1      35.803 -26.592 -13.299  0.00  0.00    +0.220 HD
ENDBRANCH  13  17
ENDBRANCH  12  13
ENDBRANCH  11  12
ENDBRANCH  10  11
ENDBRANCH   1  10
TORSDOF 9
ENDMDL
MODEL 6
REMARK VINA RESULT:      -5.9      2.385      4.723
REMARK  Name = 192579
REMARK  9 active torsions:
REMARK  status: ('A' for Active; 'I' for Inactive)
REMARK    1  A    between atoms: C_1  and  N_2
REMARK    2  A    between atoms: C_1  and  C_7
REMARK    3  A    between atoms: C_1  and  C_10
REMARK    4  A    between atoms: C_7  and  O_8
REMARK    5  A    between atoms: C_10  and  S_11
REMARK    6  A    between atoms: S_11  and  C_12
REMARK    7  A    between atoms: C_12  and  P_13
REMARK    8  A    between atoms: P_13  and  O_15
REMARK    9  A    between atoms: P_13  and  O_17
REMARK                            x       y       z     vdW  Elec       q    Type
REMARK                         _______ _______ _______ _____ _____    ______ ____
ROOT
ATOM      1  C   UNK     1      36.327 -23.540 -12.817  0.00  0.00    +0.047 C 
ENDROOT
BRANCH   1   2
ATOM      2  N   UNK     1      37.135 -22.876 -13.843  0.00  0.00    +0.389 N 
ATOM      3  H   UNK     1      37.186 -21.877 -13.641  0.00  0.00    -0.088 HD
ATOM      4  H   UNK     1      36.704 -23.016 -14.757  0.00  0.00    -0.088 HD
ATOM      5  H   UNK     1      38.074 -23.272 -13.845  0.00  0.00    -0.088 HD
ENDBRANCH   1   2
BRANCH   1   7
ATOM      6  O   UNK     1      36.619 -23.812 -10.431  0.00  0.00    -0.253 OA
ATOM      7  C   UNK     1      37.065 -23.405 -11.497  0.00  0.00    +0.294 C 
BRANCH   7   8
ATOM      8  O   UNK     1      38.254 -22.760 -11.598  0.00  0.00    -0.482 OA
ATOM      9  H   UNK     1      38.963 -22.992 -11.030  0.00  0.00    +0.295 HD
ENDBRANCH   7   8
ENDBRANCH   1   7
BRANCH   1  10
ATOM     10  C   UNK     1      36.090 -25.002 -13.201  0.00  0.00    +0.047 C 
BRANCH  10  11
ATOM     11  S   UNK     1      37.547 -26.040 -12.863  0.00  0.00    -0.129 S 
BRANCH  11  12
ATOM     12  C   UNK     1      38.102 -26.264 -14.566  0.00  0.00    +0.173 C 
BRANCH  12  13
ATOM     13  P   UNK     1      39.623 -25.350 -14.719  0.00  0.00    +0.348 P 
ATOM     14  O   UNK     1      40.812 -26.147 -15.171  0.00  0.00    -0.257 OA
BRANCH  13  15
ATOM     15  O   UNK     1      39.791 -24.611 -13.291  0.00  0.00    -0.323 OA
ATOM     16  H   UNK     1      40.468 -25.066 -12.768  0.00  0.00    +0.220 HD
ENDBRANCH  13  15
BRANCH  13  17
ATOM     17  O   UNK     1      39.214 -24.137 -15.707  0.00  0.00    -0.323 OA
ATOM     18  H   UNK     1      39.208 -24.455 -16.624  0.00  0.00    +0.220 HD
ENDBRANCH  13  17
ENDBRANCH  12  13
ENDBRANCH  11  12
ENDBRANCH  10  11
ENDBRANCH   1  10
TORSDOF 9
ENDMDL
MODEL 7
REMARK VINA RESULT:      -5.8      1.697      2.014
REMARK  Name = 192579
REMARK  9 active torsions:
REMARK  status: ('A' for Active; 'I' for Inactive)
REMARK    1  A    between atoms: C_1  and  N_2
REMARK    2  A    between atoms: C_1  and  C_7
REMARK    3  A    between atoms: C_1  and  C_10
REMARK    4  A    between atoms: C_7  and  O_8
REMARK    5  A    between atoms: C_10  and  S_11
REMARK    6  A    between atoms: S_11  and  C_12
REMARK    7  A    between atoms: C_12  and  P_13
REMARK    8  A    between atoms: P_13  and  O_15
REMARK    9  A    between atoms: P_13  and  O_17
REMARK                            x       y       z     vdW  Elec       q    Type
REMARK                         _______ _______ _______ _____ _____    ______ ____
ROOT
ATOM      1  C   UNK     1      38.873 -24.998 -14.713  0.00  0.00    +0.047 C 
ENDROOT
BRANCH   1   2
ATOM      2  N   UNK     1      38.872 -23.964 -15.750  0.00  0.00    +0.389 N 
ATOM      3  H   UNK     1      39.833 -23.708 -15.975  0.00  0.00    -0.088 HD
ATOM      4  H   UNK     1      38.371 -23.143 -15.412  0.00  0.00    -0.088 HD
ATOM      5  H   UNK     1      38.412 -24.323 -16.586  0.00  0.00    -0.088 HD
ENDBRANCH   1   2
BRANCH   1   7
ATOM      6  O   UNK     1      40.808 -26.205 -13.907  0.00  0.00    -0.253 OA
ATOM      7  C   UNK     1      40.157 -25.793 -14.860  0.00  0.00    +0.294 C 
BRANCH   7   8
ATOM      8  O   UNK     1      40.542 -25.978 -16.148  0.00  0.00    -0.482 OA
ATOM      9  H   UNK     1      40.105 -26.613 -16.681  0.00  0.00    +0.295 HD
ENDBRANCH   7   8
ENDBRANCH   1   7
BRANCH   1  10
ATOM     10  C   UNK     1      37.629 -25.879 -14.849  0.00  0.00    +0.047 C 
BRANCH  10  11
ATOM     11  S   UNK     1      36.298 -25.357 -13.721  0.00  0.00    -0.129 S 
BRANCH  11  12
ATOM     12  C   UNK     1      37.272 -25.256 -12.205  0.00  0.00    +0.173 C 
BRANCH  12  13
ATOM     13  P   UNK     1      36.957 -23.644 -11.516  0.00  0.00    +0.348 P 
ATOM     14  O   UNK     1      38.101 -22.675 -11.591  0.00  0.00    -0.257 OA
BRANCH  13  15
ATOM     15  O   UNK     1      36.406 -23.946 -10.027  0.00  0.00    -0.323 OA
ATOM     16  H   UNK     1      35.626 -23.398  -9.851  0.00  0.00    +0.220 HD
ENDBRANCH  13  15
BRANCH  13  17
ATOM     17  O   UNK     1      35.625 -23.172 -12.304  0.00  0.00    -0.323 OA
ATOM     18  H   UNK     1      34.979 -23.897 -12.309  0.00  0.00    +0.220 HD
ENDBRANCH  13  17
ENDBRANCH  12  13
ENDBRANCH  11  12
ENDBRANCH  10  11
ENDBRANCH   1  10
TORSDOF 9
ENDMDL
MODEL 8
REMARK VINA RESULT:      -5.7      2.227      2.497
REMARK  Name = 192579
REMARK  9 active torsions:
REMARK  status: ('A' for Active; 'I' for Inactive)
REMARK    1  A    between atoms: C_1  and  N_2
REMARK    2  A    between atoms: C_1  and  C_7
REMARK    3  A    between atoms: C_1  and  C_10
REMARK    4  A    between atoms: C_7  and  O_8
REMARK    5  A    between atoms: C_10  and  S_11
REMARK    6  A    between atoms: S_11  and  C_12
REMARK    7  A    between atoms: C_12  and  P_13
REMARK    8  A    between atoms: P_13  and  O_15
REMARK    9  A    between atoms: P_13  and  O_17
REMARK                            x       y       z     vdW  Elec       q    Type
REMARK                         _______ _______ _______ _____ _____    ______ ____
ROOT
ATOM      1  C   UNK     1      38.928 -25.249 -14.333  0.00  0.00    +0.047 C 
ENDROOT
BRANCH   1   2
ATOM      2  N   UNK     1      37.896 -25.578 -15.319  0.00  0.00    +0.389 N 
ATOM      3  H   UNK     1      37.960 -24.933 -16.106  0.00  0.00    -0.088 HD
ATOM      4  H   UNK     1      36.976 -25.498 -14.887  0.00  0.00    -0.088 HD
ATOM      5  H   UNK     1      38.035 -26.532 -15.649  0.00  0.00    -0.088 HD
ENDBRANCH   1   2
BRANCH   1   7
ATOM      6  O   UNK     1      40.986 -26.466 -13.965  0.00  0.00    -0.253 OA
ATOM      7  C   UNK     1      40.205 -25.950 -14.756  0.00  0.00    +0.294 C 
BRANCH   7   8
ATOM      8  O   UNK     1      40.426 -25.925 -16.095  0.00  0.00    -0.482 OA
ATOM      9  H   UNK     1      40.608 -25.112 -16.524  0.00  0.00    +0.295 HD
ENDBRANCH   7   8
ENDBRANCH   1   7
BRANCH   1  10
ATOM     10  C   UNK     1      38.472 -25.672 -12.935  0.00  0.00    +0.047 C 
BRANCH  10  11
ATOM     11  S   UNK     1      37.822 -24.268 -11.976  0.00  0.00    -0.129 S 
BRANCH  11  12
ATOM     12  C   UNK     1      36.095 -24.788 -11.898  0.00  0.00    +0.173 C 
BRANCH  12  13
ATOM     13  P   UNK     1      35.300 -24.093 -13.333  0.00  0.00    +0.348 P 
ATOM     14  O   UNK     1      36.086 -23.043 -14.062  0.00  0.00    -0.257 OA
BRANCH  13  15
ATOM     15  O   UNK     1      33.850 -23.620 -12.796  0.00  0.00    -0.323 OA
ATOM     16  H   UNK     1      33.312 -24.398 -12.586  0.00  0.00    +0.220 HD
ENDBRANCH  13  15
BRANCH  13  17
ATOM     17  O   UNK     1      34.947 -25.401 -14.215  0.00  0.00    -0.323 OA
ATOM     18  H   UNK     1      35.691 -26.024 -14.183  0.00  0.00    +0.220 HD
ENDBRANCH  13  17
ENDBRANCH  12  13
ENDBRANCH  11  12
ENDBRANCH  10  11
ENDBRANCH   1  10
TORSDOF 9
ENDMDL
MODEL 9
REMARK VINA RESULT:      -5.6      3.190      4.373
REMARK  Name = 192579
REMARK  9 active torsions:
REMARK  status: ('A' for Active; 'I' for Inactive)
REMARK    1  A    between atoms: C_1  and  N_2
REMARK    2  A    between atoms: C_1  and  C_7
REMARK    3  A    between atoms: C_1  and  C_10
REMARK    4  A    between atoms: C_7  and  O_8
REMARK    5  A    between atoms: C_10  and  S_11
REMARK    6  A    between atoms: S_11  and  C_12
REMARK    7  A    between atoms: C_12  and  P_13
REMARK    8  A    between atoms: P_13  and  O_15
REMARK    9  A    between atoms: P_13  and  O_17
REMARK                            x       y       z     vdW  Elec       q    Type
REMARK                         _______ _______ _______ _____ _____    ______ ____
ROOT
ATOM      1  C   UNK     1      35.623 -24.387 -14.357  0.00  0.00    +0.047 C 
ENDROOT
BRANCH   1   2
ATOM      2  N   UNK     1      35.576 -25.669 -15.065  0.00  0.00    +0.389 N 
ATOM      3  H   UNK     1      36.150 -26.352 -14.570  0.00  0.00    -0.088 HD
ATOM      4  H   UNK     1      35.933 -25.547 -16.012  0.00  0.00    -0.088 HD
ATOM      5  H   UNK     1      34.612 -25.999 -15.104  0.00  0.00    -0.088 HD
ENDBRANCH   1   2
BRANCH   1   7
ATOM      6  O   UNK     1      37.343 -22.770 -14.883  0.00  0.00    -0.253 OA
ATOM      7  C   UNK     1      36.358 -23.402 -15.247  0.00  0.00    +0.294 C 
BRANCH   7   8
ATOM      8  O   UNK     1      35.804 -23.255 -16.476  0.00  0.00    -0.482 OA
ATOM      9  H   UNK     1      36.352 -23.218 -17.236  0.00  0.00    +0.295 HD
ENDBRANCH   7   8
ENDBRANCH   1   7
BRANCH   1  10
ATOM     10  C   UNK     1      36.307 -24.563 -12.999  0.00  0.00    +0.047 C 
BRANCH  10  11
ATOM     11  S   UNK     1      37.337 -26.063 -12.943  0.00  0.00    -0.129 S 
BRANCH  11  12
ATOM     12  C   UNK     1      38.952 -25.270 -13.075  0.00  0.00    +0.173 C 
BRANCH  12  13
ATOM     13  P   UNK     1      39.607 -25.733 -14.666  0.00  0.00    +0.348 P 
ATOM     14  O   UNK     1      40.881 -26.525 -14.634  0.00  0.00    -0.257 OA
BRANCH  13  15
ATOM     15  O   UNK     1      39.680 -24.342 -15.487  0.00  0.00    -0.323 OA
ATOM     16  H   UNK     1      40.591 -24.186 -15.781  0.00  0.00    +0.220 HD
ENDBRANCH  13  15
BRANCH  13  17
ATOM     17  O   UNK     1      38.360 -26.494 -15.358  0.00  0.00    -0.323 OA
ATOM     18  H   UNK     1      38.232 -26.154 -16.259  0.00  0.00    +0.220 HD
ENDBRANCH  13  17
ENDBRANCH  12  13
ENDBRANCH  11  12
ENDBRANCH  10  11
ENDBRANCH   1  10
TORSDOF 9
ENDMDL
