MODEL 1
REMARK VINA RESULT:     -11.9      0.000      0.000
REMARK  Name = 24812758
REMARK  9 active torsions:
REMARK  status: ('A' for Active; 'I' for Inactive)
REMARK    1  A    between atoms: C_1  and  C_11
REMARK    2  A    between atoms: C_4  and  C_23
REMARK    3  A    between atoms: C_9  and  O_14
REMARK    4  A    between atoms: C_10  and  O_16
REMARK    5  A    between atoms: C_12  and  O_18
REMARK    6  A    between atoms: C_13  and  C_20
REMARK    7  A    between atoms: C_20  and  O_21
REMARK    8  A    between atoms: C_23  and  C_25
REMARK    9  A    between atoms: C_27  and  C_30
REMARK                            x       y       z     vdW  Elec       q    Type
REMARK                         _______ _______ _______ _____ _____    ______ ____
ROOT
ATOM      1  C   UNL     1      33.471 -23.410 -16.325  0.00  0.00    +0.007 C 
ATOM      2  C   UNL     1      33.763 -23.151 -17.664  0.00  0.00    -0.006 C 
ATOM      3  C   UNL     1      34.371 -23.028 -15.328  0.00  0.00    -0.002 C 
ATOM      4  C   UNL     1      34.954 -22.511 -18.008  0.00  0.00    -0.021 C 
ATOM      5  C   UNL     1      35.853 -22.130 -17.011  0.00  0.00    -0.025 C 
ATOM      6  C   UNL     1      35.561 -22.388 -15.672  0.00  0.00    -0.005 C 
ATOM      7  C   UNL     1      37.134 -21.443 -17.354  0.00  0.00    +0.031 C 
ENDROOT
BRANCH   1  11
ATOM      8  O   UNL     1      31.096 -23.299 -16.433  0.00  0.00    -0.347 OA
ATOM      9  C   UNL     1      32.060 -24.327 -14.436  0.00  0.00    +0.171 C 
ATOM     10  C   UNL     1      30.681 -24.882 -14.068  0.00  0.00    +0.169 C 
ATOM     11  C   UNL     1      32.177 -24.105 -15.952  0.00  0.00    +0.167 C 
ATOM     12  C   UNL     1      29.563 -24.072 -14.721  0.00  0.00    +0.169 C 
ATOM     13  C   UNL     1      29.820 -23.902 -16.220  0.00  0.00    +0.174 C 
BRANCH   9  14
ATOM     14  O   UNL     1      33.060 -25.263 -14.033  0.00  0.00    -0.379 OA
ATOM     15  H   UNL     1      32.634 -26.048 -13.654  0.00  0.00    +0.211 HD
ENDBRANCH   9  14
BRANCH  10  16
ATOM     16  O   UNL     1      30.505 -24.815 -12.652  0.00  0.00    -0.379 OA
ATOM     17  H   UNL     1      31.372 -24.843 -12.216  0.00  0.00    +0.211 HD
ENDBRANCH  10  16
BRANCH  12  18
ATOM     18  O   UNL     1      28.321 -24.744 -14.530  0.00  0.00    -0.379 OA
ATOM     19  H   UNL     1      27.680 -24.432 -15.190  0.00  0.00    +0.211 HD
ENDBRANCH  12  18
BRANCH  13  20
ATOM     20  C   UNL     1      28.775 -23.005 -16.874  0.00  0.00    +0.169 C 
BRANCH  20  21
ATOM     21  O   UNL     1      27.791 -23.825 -17.481  0.00  0.00    -0.379 OA
ATOM     22  H   UNL     1      27.862 -23.755 -18.446  0.00  0.00    +0.211 HD
ENDBRANCH  20  21
ENDBRANCH  13  20
ENDBRANCH   1  11
BRANCH   4  23
ATOM     23  C   UNL     1      35.245 -22.244 -19.448  0.00  0.00    +0.059 C 
BRANCH  23  25
ATOM     24  S   UNL     1      35.468 -19.765 -20.708  0.00  0.00    -0.091 S 
ATOM     25  C   UNL     1      34.543 -21.019 -19.997  0.00  0.00    +0.012 C 
ATOM     26  C   UNL     1      33.194 -20.742 -20.018  0.00  0.00    +0.003 C 
ATOM     27  C   UNL     1      34.063 -18.847 -21.044  0.00  0.00    +0.029 C 
ATOM     28  C   UNL     1      32.915 -19.483 -20.625  0.00  0.00    +0.007 C 
BRANCH  27  30
ATOM     29  F   UNL     1      34.614 -13.906 -23.563  0.00  0.00    -0.204 F 
ATOM     30  C   UNL     1      34.206 -17.566 -21.697  0.00  0.00    +0.006 C 
ATOM     31  C   UNL     1      34.803 -17.487 -22.955  0.00  0.00    +0.003 C 
ATOM     32  C   UNL     1      33.746 -16.408 -21.069  0.00  0.00    +0.003 C 
ATOM     33  C   UNL     1      34.941 -16.251 -23.585  0.00  0.00    +0.030 C 
ATOM     34  C   UNL     1      33.884 -15.172 -21.700  0.00  0.00    +0.030 C 
ATOM     35  C   UNL     1      34.481 -15.093 -22.958  0.00  0.00    +0.140 C 
ENDBRANCH  27  30
ENDBRANCH  23  25
ENDBRANCH   4  23
TORSDOF 9
ENDMDL
MODEL 2
REMARK VINA RESULT:     -11.2      3.087      5.054
REMARK  Name = 24812758
REMARK  9 active torsions:
REMARK  status: ('A' for Active; 'I' for Inactive)
REMARK    1  A    between atoms: C_1  and  C_11
REMARK    2  A    between atoms: C_4  and  C_23
REMARK    3  A    between atoms: C_9  and  O_14
REMARK    4  A    between atoms: C_10  and  O_16
REMARK    5  A    between atoms: C_12  and  O_18
REMARK    6  A    between atoms: C_13  and  C_20
REMARK    7  A    between atoms: C_20  and  O_21
REMARK    8  A    between atoms: C_23  and  C_25
REMARK    9  A    between atoms: C_27  and  C_30
REMARK                            x       y       z     vdW  Elec       q    Type
REMARK                         _______ _______ _______ _____ _____    ______ ____
ROOT
ATOM      1  C   UNL     1      34.617 -23.720 -15.214  0.00  0.00    +0.007 C 
ATOM      2  C   UNL     1      34.342 -23.526 -16.567  0.00  0.00    -0.006 C 
ATOM      3  C   UNL     1      33.604 -23.569 -14.267  0.00  0.00    -0.002 C 
ATOM      4  C   UNL     1      33.054 -23.181 -16.975  0.00  0.00    -0.021 C 
ATOM      5  C   UNL     1      32.040 -23.030 -16.028  0.00  0.00    -0.025 C 
ATOM      6  C   UNL     1      32.316 -23.223 -14.675  0.00  0.00    -0.005 C 
ATOM      7  C   UNL     1      30.653 -22.661 -16.439  0.00  0.00    +0.031 C 
ENDROOT
BRANCH   1  11
ATOM      8  O   UNL     1      36.244 -25.457 -15.152  0.00  0.00    -0.347 OA
ATOM      9  C   UNL     1      36.212 -23.912 -13.259  0.00  0.00    +0.171 C 
ATOM     10  C   UNL     1      37.575 -24.446 -12.811  0.00  0.00    +0.169 C 
ATOM     11  C   UNL     1      36.018 -24.095 -14.772  0.00  0.00    +0.167 C 
ATOM     12  C   UNL     1      37.829 -25.849 -13.360  0.00  0.00    +0.169 C 
ATOM     13  C   UNL     1      37.572 -25.897 -14.868  0.00  0.00    +0.174 C 
BRANCH   9  14
ATOM     14  O   UNL     1      36.137 -22.519 -12.954  0.00  0.00    -0.379 OA
ATOM     15  H   UNL     1      36.886 -22.270 -12.390  0.00  0.00    +0.211 HD
ENDBRANCH   9  14
BRANCH  10  16
ATOM     16  O   UNL     1      37.612 -24.517 -11.385  0.00  0.00    -0.379 OA
ATOM     17  H   UNL     1      38.240 -25.204 -11.111  0.00  0.00    +0.211 HD
ENDBRANCH  10  16
BRANCH  12  18
ATOM     18  O   UNL     1      39.182 -26.218 -13.103  0.00  0.00    -0.379 OA
ATOM     19  H   UNL     1      39.622 -26.438 -13.940  0.00  0.00    +0.211 HD
ENDBRANCH  12  18
BRANCH  13  20
ATOM     20  C   UNL     1      37.713 -27.312 -15.421  0.00  0.00    +0.169 C 
BRANCH  20  21
ATOM     21  O   UNL     1      36.844 -27.451 -16.530  0.00  0.00    -0.379 OA
ATOM     22  H   UNL     1      36.478 -28.349 -16.544  0.00  0.00    +0.211 HD
ENDBRANCH  20  21
ENDBRANCH  13  20
ENDBRANCH   1  11
BRANCH   4  23
ATOM     23  C   UNL     1      32.782 -22.979 -18.429  0.00  0.00    +0.059 C 
BRANCH  23  25
ATOM     24  S   UNL     1      33.136 -20.819 -20.157  0.00  0.00    -0.091 S 
ATOM     25  C   UNL     1      33.745 -22.026 -19.105  0.00  0.00    +0.012 C 
ATOM     26  C   UNL     1      35.117 -21.973 -18.997  0.00  0.00    +0.003 C 
ATOM     27  C   UNL     1      34.710 -20.223 -20.471  0.00  0.00    +0.029 C 
ATOM     28  C   UNL     1      35.676 -20.928 -19.788  0.00  0.00    +0.007 C 
BRANCH  27  30
ATOM     29  F   UNL     1      35.313 -15.905 -23.944  0.00  0.00    -0.204 F 
ATOM     30  C   UNL     1      34.867 -19.104 -21.371  0.00  0.00    +0.006 C 
ATOM     31  C   UNL     1      34.976 -19.323 -22.745  0.00  0.00    +0.003 C 
ATOM     32  C   UNL     1      34.908 -17.804 -20.867  0.00  0.00    +0.003 C 
ATOM     33  C   UNL     1      35.127 -18.243 -23.613  0.00  0.00    +0.030 C 
ATOM     34  C   UNL     1      35.059 -16.724 -21.736  0.00  0.00    +0.030 C 
ATOM     35  C   UNL     1      35.168 -16.943 -23.110  0.00  0.00    +0.140 C 
ENDBRANCH  27  30
ENDBRANCH  23  25
ENDBRANCH   4  23
TORSDOF 9
ENDMDL
MODEL 3
REMARK VINA RESULT:     -11.0      3.068      5.322
REMARK  Name = 24812758
REMARK  9 active torsions:
REMARK  status: ('A' for Active; 'I' for Inactive)
REMARK    1  A    between atoms: C_1  and  C_11
REMARK    2  A    between atoms: C_4  and  C_23
REMARK    3  A    between atoms: C_9  and  O_14
REMARK    4  A    between atoms: C_10  and  O_16
REMARK    5  A    between atoms: C_12  and  O_18
REMARK    6  A    between atoms: C_13  and  C_20
REMARK    7  A    between atoms: C_20  and  O_21
REMARK    8  A    between atoms: C_23  and  C_25
REMARK    9  A    between atoms: C_27  and  C_30
REMARK                            x       y       z     vdW  Elec       q    Type
REMARK                         _______ _______ _______ _____ _____    ______ ____
ROOT
ATOM      1  C   UNL     1      34.317 -23.984 -14.922  0.00  0.00    +0.007 C 
ATOM      2  C   UNL     1      34.273 -23.920 -16.315  0.00  0.00    -0.006 C 
ATOM      3  C   UNL     1      33.223 -23.555 -14.169  0.00  0.00    -0.002 C 
ATOM      4  C   UNL     1      33.137 -23.425 -16.955  0.00  0.00    -0.021 C 
ATOM      5  C   UNL     1      32.044 -22.996 -16.202  0.00  0.00    -0.025 C 
ATOM      6  C   UNL     1      32.087 -23.061 -14.810  0.00  0.00    -0.005 C 
ATOM      7  C   UNL     1      30.815 -22.463 -16.865  0.00  0.00    +0.031 C 
ENDROOT
BRANCH   1  11
ATOM      8  O   UNL     1      36.233 -23.411 -13.632  0.00  0.00    -0.347 OA
ATOM      9  C   UNL     1      36.476 -25.274 -15.196  0.00  0.00    +0.171 C 
ATOM     10  C   UNL     1      37.788 -25.666 -14.511  0.00  0.00    +0.169 C 
ATOM     11  C   UNL     1      35.552 -24.521 -14.227  0.00  0.00    +0.167 C 
ATOM     12  C   UNL     1      38.405 -24.480 -13.771  0.00  0.00    +0.169 C 
ATOM     13  C   UNL     1      37.371 -23.807 -12.866  0.00  0.00    +0.174 C 
BRANCH   9  14
ATOM     14  O   UNL     1      35.811 -26.457 -15.636  0.00  0.00    -0.379 OA
ATOM     15  H   UNL     1      35.323 -26.849 -14.895  0.00  0.00    +0.211 HD
ENDBRANCH   9  14
BRANCH  10  16
ATOM     16  O   UNL     1      38.724 -26.108 -15.495  0.00  0.00    -0.379 OA
ATOM     17  H   UNL     1      39.156 -26.921 -15.189  0.00  0.00    +0.211 HD
ENDBRANCH  10  16
BRANCH  12  18
ATOM     18  O   UNL     1      39.497 -24.937 -12.977  0.00  0.00    -0.379 OA
ATOM     19  H   UNL     1      39.296 -24.794 -12.038  0.00  0.00    +0.211 HD
ENDBRANCH  12  18
BRANCH  13  20
ATOM     20  C   UNL     1      37.932 -22.555 -12.200  0.00  0.00    +0.169 C 
BRANCH  20  21
ATOM     21  O   UNL     1      37.219 -22.325 -10.998  0.00  0.00    -0.379 OA
ATOM     22  H   UNL     1      37.497 -21.479 -10.613  0.00  0.00    +0.211 HD
ENDBRANCH  20  21
ENDBRANCH  13  20
ENDBRANCH   1  11
BRANCH   4  23
ATOM     23  C   UNL     1      33.112 -23.366 -18.447  0.00  0.00    +0.059 C 
BRANCH  23  25
ATOM     24  S   UNL     1      33.361 -21.180 -20.162  0.00  0.00    -0.091 S 
ATOM     25  C   UNL     1      34.007 -22.293 -19.032  0.00  0.00    +0.012 C 
ATOM     26  C   UNL     1      35.340 -22.057 -18.778  0.00  0.00    +0.003 C 
ATOM     27  C   UNL     1      34.866 -20.379 -20.315  0.00  0.00    +0.029 C 
ATOM     28  C   UNL     1      35.838 -20.947 -19.522  0.00  0.00    +0.007 C 
BRANCH  27  30
ATOM     29  F   UNL     1      35.260 -16.024 -23.771  0.00  0.00    -0.204 F 
ATOM     30  C   UNL     1      34.969 -19.250 -21.211  0.00  0.00    +0.006 C 
ATOM     31  C   UNL     1      34.979 -19.454 -22.591  0.00  0.00    +0.003 C 
ATOM     32  C   UNL     1      35.057 -17.957 -20.696  0.00  0.00    +0.003 C 
ATOM     33  C   UNL     1      35.077 -18.365 -23.456  0.00  0.00    +0.030 C 
ATOM     34  C   UNL     1      35.156 -16.868 -21.561  0.00  0.00    +0.030 C 
ATOM     35  C   UNL     1      35.166 -17.071 -22.941  0.00  0.00    +0.140 C 
ENDBRANCH  27  30
ENDBRANCH  23  25
ENDBRANCH   4  23
TORSDOF 9
ENDMDL
MODEL 4
REMARK VINA RESULT:     -10.7      9.818     14.777
REMARK  Name = 24812758
REMARK  9 active torsions:
REMARK  status: ('A' for Active; 'I' for Inactive)
REMARK    1  A    between atoms: C_1  and  C_11
REMARK    2  A    between atoms: C_4  and  C_23
REMARK    3  A    between atoms: C_9  and  O_14
REMARK    4  A    between atoms: C_10  and  O_16
REMARK    5  A    between atoms: C_12  and  O_18
REMARK    6  A    between atoms: C_13  and  C_20
REMARK    7  A    between atoms: C_20  and  O_21
REMARK    8  A    between atoms: C_23  and  C_25
REMARK    9  A    between atoms: C_27  and  C_30
REMARK                            x       y       z     vdW  Elec       q    Type
REMARK                         _______ _______ _______ _____ _____    ______ ____
ROOT
ATOM      1  C   UNL     1      32.560  -7.884 -21.827  0.00  0.00    +0.007 C 
ATOM      2  C   UNL     1      32.052  -9.087 -22.316  0.00  0.00    -0.006 C 
ATOM      3  C   UNL     1      32.662  -7.677 -20.451  0.00  0.00    -0.002 C 
ATOM      4  C   UNL     1      31.645 -10.085 -21.429  0.00  0.00    -0.021 C 
ATOM      5  C   UNL     1      31.748  -9.878 -20.053  0.00  0.00    -0.025 C 
ATOM      6  C   UNL     1      32.256  -8.675 -19.565  0.00  0.00    -0.005 C 
ATOM      7  C   UNL     1      31.320 -10.931 -19.084  0.00  0.00    +0.031 C 
ENDROOT
BRANCH   1  11
ATOM      8  O   UNL     1      31.828  -6.276 -23.423  0.00  0.00    -0.347 OA
ATOM      9  C   UNL     1      33.994  -7.330 -23.836  0.00  0.00    +0.171 C 
ATOM     10  C   UNL     1      34.301  -6.264 -24.892  0.00  0.00    +0.169 C 
ATOM     11  C   UNL     1      33.001  -6.800 -22.791  0.00  0.00    +0.167 C 
ATOM     12  C   UNL     1      33.019  -5.635 -25.435  0.00  0.00    +0.169 C 
ATOM     13  C   UNL     1      32.111  -5.178 -24.291  0.00  0.00    +0.174 C 
BRANCH   9  14
ATOM     14  O   UNL     1      35.206  -7.689 -23.174  0.00  0.00    -0.379 OA
ATOM     15  H   UNL     1      35.577  -8.485 -23.587  0.00  0.00    +0.211 HD
ENDBRANCH   9  14
BRANCH  10  16
ATOM     16  O   UNL     1      34.995  -6.865 -25.986  0.00  0.00    -0.379 OA
ATOM     17  H   UNL     1      34.904  -7.830 -25.936  0.00  0.00    +0.211 HD
ENDBRANCH  10  16
BRANCH  12  18
ATOM     18  O   UNL     1      33.353  -4.511 -26.245  0.00  0.00    -0.379 OA
ATOM     19  H   UNL     1      32.812  -3.749 -25.981  0.00  0.00    +0.211 HD
ENDBRANCH  12  18
BRANCH  13  20
ATOM     20  C   UNL     1      30.777  -4.646 -24.805  0.00  0.00    +0.169 C 
BRANCH  20  21
ATOM     21  O   UNL     1      30.375  -3.566 -23.982  0.00  0.00    -0.379 OA
ATOM     22  H   UNL     1      29.716  -3.030 -24.450  0.00  0.00    +0.211 HD
ENDBRANCH  20  21
ENDBRANCH  13  20
ENDBRANCH   1  11
BRANCH   4  23
ATOM     23  C   UNL     1      31.105 -11.365 -21.976  0.00  0.00    +0.059 C 
BRANCH  23  25
ATOM     24  S   UNL     1      32.408 -13.802 -21.595  0.00  0.00    -0.091 S 
ATOM     25  C   UNL     1      32.175 -12.331 -22.441  0.00  0.00    +0.012 C 
ATOM     26  C   UNL     1      33.038 -12.205 -23.507  0.00  0.00    +0.003 C 
ATOM     27  C   UNL     1      33.669 -14.273 -22.653  0.00  0.00    +0.029 C 
ATOM     28  C   UNL     1      33.905 -13.330 -23.629  0.00  0.00    +0.007 C 
BRANCH  27  30
ATOM     29  F   UNL     1      36.213 -19.158 -21.803  0.00  0.00    -0.204 F 
ATOM     30  C   UNL     1      34.328 -15.539 -22.433  0.00  0.00    +0.006 C 
ATOM     31  C   UNL     1      34.486 -16.027 -21.135  0.00  0.00    +0.003 C 
ATOM     32  C   UNL     1      34.808 -16.274 -23.517  0.00  0.00    +0.003 C 
ATOM     33  C   UNL     1      35.122 -17.250 -20.923  0.00  0.00    +0.030 C 
ATOM     34  C   UNL     1      35.444 -17.496 -23.305  0.00  0.00    +0.030 C 
ATOM     35  C   UNL     1      35.601 -17.985 -22.007  0.00  0.00    +0.140 C 
ENDBRANCH  27  30
ENDBRANCH  23  25
ENDBRANCH   4  23
TORSDOF 9
ENDMDL
MODEL 5
REMARK VINA RESULT:     -10.6      0.948      1.313
REMARK  Name = 24812758
REMARK  9 active torsions:
REMARK  status: ('A' for Active; 'I' for Inactive)
REMARK    1  A    between atoms: C_1  and  C_11
REMARK    2  A    between atoms: C_4  and  C_23
REMARK    3  A    between atoms: C_9  and  O_14
REMARK    4  A    between atoms: C_10  and  O_16
REMARK    5  A    between atoms: C_12  and  O_18
REMARK    6  A    between atoms: C_13  and  C_20
REMARK    7  A    between atoms: C_20  and  O_21
REMARK    8  A    between atoms: C_23  and  C_25
REMARK    9  A    between atoms: C_27  and  C_30
REMARK                            x       y       z     vdW  Elec       q    Type
REMARK                         _______ _______ _______ _____ _____    ______ ____
ROOT
ATOM      1  C   UNL     1      34.203 -23.142 -16.596  0.00  0.00    +0.007 C 
ATOM      2  C   UNL     1      34.385 -22.847 -17.947  0.00  0.00    -0.006 C 
ATOM      3  C   UNL     1      35.125 -22.687 -15.652  0.00  0.00    -0.002 C 
ATOM      4  C   UNL     1      35.487 -22.097 -18.356  0.00  0.00    -0.021 C 
ATOM      5  C   UNL     1      36.409 -21.642 -17.412  0.00  0.00    -0.025 C 
ATOM      6  C   UNL     1      36.227 -21.937 -16.061  0.00  0.00    -0.005 C 
ATOM      7  C   UNL     1      37.597 -20.837 -17.824  0.00  0.00    +0.031 C 
ENDROOT
BRANCH   1  11
ATOM      8  O   UNL     1      31.839 -23.144 -16.322  0.00  0.00    -0.347 OA
ATOM      9  C   UNL     1      33.136 -24.427 -14.695  0.00  0.00    +0.171 C 
ATOM     10  C   UNL     1      31.849 -25.108 -14.220  0.00  0.00    +0.169 C 
ATOM     11  C   UNL     1      33.005 -23.957 -16.152  0.00  0.00    +0.167 C 
ATOM     12  C   UNL     1      30.619 -24.264 -14.551  0.00  0.00    +0.169 C 
ATOM     13  C   UNL     1      30.630 -23.841 -16.021  0.00  0.00    +0.174 C 
BRANCH   9  14
ATOM     14  O   UNL     1      34.213 -25.360 -14.612  0.00  0.00    -0.379 OA
ATOM     15  H   UNL     1      35.002 -24.913 -14.266  0.00  0.00    +0.211 HD
ENDBRANCH   9  14
BRANCH  10  16
ATOM     16  O   UNL     1      31.899 -25.279 -12.803  0.00  0.00    -0.379 OA
ATOM     17  H   UNL     1      32.625 -24.749 -12.438  0.00  0.00    +0.211 HD
ENDBRANCH  10  16
BRANCH  12  18
ATOM     18  O   UNL     1      29.443 -25.024 -14.289  0.00  0.00    -0.379 OA
ATOM     19  H   UNL     1      29.067 -24.754 -13.435  0.00  0.00    +0.211 HD
ENDBRANCH  12  18
BRANCH  13  20
ATOM     20  C   UNL     1      29.469 -22.907 -16.349  0.00  0.00    +0.169 C 
BRANCH  20  21
ATOM     21  O   UNL     1      28.999 -22.332 -15.143  0.00  0.00    -0.379 OA
ATOM     22  H   UNL     1      29.603 -22.558 -14.419  0.00  0.00    +0.211 HD
ENDBRANCH  20  21
ENDBRANCH  13  20
ENDBRANCH   1  11
BRANCH   4  23
ATOM     23  C   UNL     1      35.661 -21.793 -19.807  0.00  0.00    +0.059 C 
BRANCH  23  25
ATOM     24  S   UNL     1      35.682 -19.228 -20.904  0.00  0.00    -0.091 S 
ATOM     25  C   UNL     1      34.862 -20.597 -20.281  0.00  0.00    +0.012 C 
ATOM     26  C   UNL     1      33.495 -20.429 -20.294  0.00  0.00    +0.003 C 
ATOM     27  C   UNL     1      34.207 -18.407 -21.191  0.00  0.00    +0.029 C 
ATOM     28  C   UNL     1      33.115 -19.160 -20.820  0.00  0.00    +0.007 C 
BRANCH  27  30
ATOM     29  F   UNL     1      34.357 -13.285 -23.381  0.00  0.00    -0.204 F 
ATOM     30  C   UNL     1      34.246 -17.080 -21.759  0.00  0.00    +0.006 C 
ATOM     31  C   UNL     1      33.802 -15.988 -21.012  0.00  0.00    +0.003 C 
ATOM     32  C   UNL     1      34.728 -16.889 -23.053  0.00  0.00    +0.003 C 
ATOM     33  C   UNL     1      33.839 -14.707 -21.559  0.00  0.00    +0.030 C 
ATOM     34  C   UNL     1      34.766 -15.607 -23.601  0.00  0.00    +0.030 C 
ATOM     35  C   UNL     1      34.321 -14.515 -22.854  0.00  0.00    +0.140 C 
ENDBRANCH  27  30
ENDBRANCH  23  25
ENDBRANCH   4  23
TORSDOF 9
ENDMDL
MODEL 6
REMARK VINA RESULT:     -10.3     10.417     15.515
REMARK  Name = 24812758
REMARK  9 active torsions:
REMARK  status: ('A' for Active; 'I' for Inactive)
REMARK    1  A    between atoms: C_1  and  C_11
REMARK    2  A    between atoms: C_4  and  C_23
REMARK    3  A    between atoms: C_9  and  O_14
REMARK    4  A    between atoms: C_10  and  O_16
REMARK    5  A    between atoms: C_12  and  O_18
REMARK    6  A    between atoms: C_13  and  C_20
REMARK    7  A    between atoms: C_20  and  O_21
REMARK    8  A    between atoms: C_23  and  C_25
REMARK    9  A    between atoms: C_27  and  C_30
REMARK                            x       y       z     vdW  Elec       q    Type
REMARK                         _______ _______ _______ _____ _____    ______ ____
ROOT
ATOM      1  C   UNL     1      31.674  -7.214 -22.464  0.00  0.00    +0.007 C 
ATOM      2  C   UNL     1      31.233  -8.520 -22.677  0.00  0.00    -0.006 C 
ATOM      3  C   UNL     1      32.328  -6.884 -21.276  0.00  0.00    -0.002 C 
ATOM      4  C   UNL     1      31.446  -9.496 -21.705  0.00  0.00    -0.021 C 
ATOM      5  C   UNL     1      32.100  -9.167 -20.518  0.00  0.00    -0.025 C 
ATOM      6  C   UNL     1      32.541  -7.861 -20.304  0.00  0.00    -0.005 C 
ATOM      7  C   UNL     1      32.341 -10.195 -19.461  0.00  0.00    +0.031 C 
ENDROOT
BRANCH   1  11
ATOM      8  O   UNL     1      32.587  -6.137 -24.380  0.00  0.00    -0.347 OA
ATOM      9  C   UNL     1      31.204  -4.766 -22.902  0.00  0.00    +0.171 C 
ATOM     10  C   UNL     1      31.133  -3.687 -23.985  0.00  0.00    +0.169 C 
ATOM     11  C   UNL     1      31.442  -6.153 -23.521  0.00  0.00    +0.167 C 
ATOM     12  C   UNL     1      32.303  -3.800 -24.961  0.00  0.00    +0.169 C 
ATOM     13  C   UNL     1      32.443  -5.234 -25.477  0.00  0.00    +0.174 C 
BRANCH   9  14
ATOM     14  O   UNL     1      29.968  -4.790 -22.189  0.00  0.00    -0.379 OA
ATOM     15  H   UNL     1      29.857  -5.655 -21.764  0.00  0.00    +0.211 HD
ENDBRANCH   9  14
BRANCH  10  16
ATOM     16  O   UNL     1      31.192  -2.397 -23.375  0.00  0.00    -0.379 OA
ATOM     17  H   UNL     1      30.895  -2.461 -22.454  0.00  0.00    +0.211 HD
ENDBRANCH  10  16
BRANCH  12  18
ATOM     18  O   UNL     1      32.084  -2.924 -26.064  0.00  0.00    -0.379 OA
ATOM     19  H   UNL     1      32.325  -2.019 -25.810  0.00  0.00    +0.211 HD
ENDBRANCH  12  18
BRANCH  13  20
ATOM     20  C   UNL     1      33.671  -5.398 -26.367  0.00  0.00    +0.169 C 
BRANCH  20  21
ATOM     21  O   UNL     1      34.656  -6.119 -25.649  0.00  0.00    -0.379 OA
ATOM     22  H   UNL     1      35.441  -5.561 -25.528  0.00  0.00    +0.211 HD
ENDBRANCH  20  21
ENDBRANCH  13  20
ENDBRANCH   1  11
BRANCH   4  23
ATOM     23  C   UNL     1      30.965 -10.888 -21.956  0.00  0.00    +0.059 C 
BRANCH  23  25
ATOM     24  S   UNL     1      32.247 -13.348 -21.668  0.00  0.00    -0.091 S 
ATOM     25  C   UNL     1      32.048 -11.831 -22.438  0.00  0.00    +0.012 C 
ATOM     26  C   UNL     1      32.949 -11.649 -23.463  0.00  0.00    +0.003 C 
ATOM     27  C   UNL     1      33.543 -13.765 -22.706  0.00  0.00    +0.029 C 
ATOM     28  C   UNL     1      33.816 -12.770 -23.618  0.00  0.00    +0.007 C 
BRANCH  27  30
ATOM     29  F   UNL     1      36.043 -18.702 -22.048  0.00  0.00    -0.204 F 
ATOM     30  C   UNL     1      34.191 -15.044 -22.535  0.00  0.00    +0.006 C 
ATOM     31  C   UNL     1      34.663 -15.741 -23.648  0.00  0.00    +0.003 C 
ATOM     32  C   UNL     1      34.345 -15.584 -21.258  0.00  0.00    +0.003 C 
ATOM     33  C   UNL     1      35.289 -16.976 -23.484  0.00  0.00    +0.030 C 
ATOM     34  C   UNL     1      34.970 -16.819 -21.094  0.00  0.00    +0.030 C 
ATOM     35  C   UNL     1      35.443 -17.516 -22.207  0.00  0.00    +0.140 C 
ENDBRANCH  27  30
ENDBRANCH  23  25
ENDBRANCH   4  23
TORSDOF 9
ENDMDL
MODEL 7
REMARK VINA RESULT:     -10.2      6.617     11.452
REMARK  Name = 24812758
REMARK  9 active torsions:
REMARK  status: ('A' for Active; 'I' for Inactive)
REMARK    1  A    between atoms: C_1  and  C_11
REMARK    2  A    between atoms: C_4  and  C_23
REMARK    3  A    between atoms: C_9  and  O_14
REMARK    4  A    between atoms: C_10  and  O_16
REMARK    5  A    between atoms: C_12  and  O_18
REMARK    6  A    between atoms: C_13  and  C_20
REMARK    7  A    between atoms: C_20  and  O_21
REMARK    8  A    between atoms: C_23  and  C_25
REMARK    9  A    between atoms: C_27  and  C_30
REMARK                            x       y       z     vdW  Elec       q    Type
REMARK                         _______ _______ _______ _____ _____    ______ ____
ROOT
ATOM      1  C   UNL     1      33.750 -13.823 -23.695  0.00  0.00    +0.007 C 
ATOM      2  C   UNL     1      34.586 -14.762 -23.092  0.00  0.00    -0.006 C 
ATOM      3  C   UNL     1      33.131 -14.119 -24.910  0.00  0.00    -0.002 C 
ATOM      4  C   UNL     1      34.804 -15.997 -23.702  0.00  0.00    -0.021 C 
ATOM      5  C   UNL     1      34.185 -16.293 -24.916  0.00  0.00    -0.025 C 
ATOM      6  C   UNL     1      33.349 -15.354 -25.520  0.00  0.00    -0.005 C 
ATOM      7  C   UNL     1      34.402 -17.608 -25.589  0.00  0.00    +0.031 C 
ENDROOT
BRANCH   1  11
ATOM      8  O   UNL     1      32.234 -12.531 -22.392  0.00  0.00    -0.347 OA
ATOM      9  C   UNL     1      33.575 -11.322 -24.039  0.00  0.00    +0.171 C 
ATOM     10  C   UNL     1      33.176  -9.999 -23.379  0.00  0.00    +0.169 C 
ATOM     11  C   UNL     1      33.513 -12.481 -23.031  0.00  0.00    +0.167 C 
ATOM     12  C   UNL     1      31.875 -10.141 -22.591  0.00  0.00    +0.169 C 
ATOM     13  C   UNL     1      31.939 -11.347 -21.651  0.00  0.00    +0.174 C 
BRANCH   9  14
ATOM     14  O   UNL     1      34.912 -11.212 -24.527  0.00  0.00    -0.379 OA
ATOM     15  H   UNL     1      34.903 -11.215 -25.497  0.00  0.00    +0.211 HD
ENDBRANCH   9  14
BRANCH  10  16
ATOM     16  O   UNL     1      32.975  -9.008 -24.387  0.00  0.00    -0.379 OA
ATOM     17  H   UNL     1      32.050  -9.026 -24.679  0.00  0.00    +0.211 HD
ENDBRANCH  10  16
BRANCH  12  18
ATOM     18  O   UNL     1      31.657  -8.960 -21.825  0.00  0.00    -0.379 OA
ATOM     19  H   UNL     1      31.831  -8.180 -22.377  0.00  0.00    +0.211 HD
ENDBRANCH  12  18
BRANCH  13  20
ATOM     20  C   UNL     1      30.612 -11.575 -20.933  0.00  0.00    +0.169 C 
BRANCH  20  21
ATOM     21  O   UNL     1      30.606 -10.808 -19.742  0.00  0.00    -0.379 OA
ATOM     22  H   UNL     1      30.436 -11.388 -18.984  0.00  0.00    +0.211 HD
ENDBRANCH  20  21
ENDBRANCH  13  20
ENDBRANCH   1  11
BRANCH   4  23
ATOM     23  C   UNL     1      35.703 -16.986 -23.037  0.00  0.00    +0.059 C 
BRANCH  23  25
ATOM     24  S   UNL     1      35.823 -18.983 -21.093  0.00  0.00    -0.091 S 
ATOM     25  C   UNL     1      34.966 -18.043 -22.240  0.00  0.00    +0.012 C 
ATOM     26  C   UNL     1      33.633 -18.385 -22.296  0.00  0.00    +0.003 C 
ATOM     27  C   UNL     1      34.410 -19.851 -20.669  0.00  0.00    +0.029 C 
ATOM     28  C   UNL     1      33.310 -19.433 -21.385  0.00  0.00    +0.007 C 
BRANCH  27  30
ATOM     29  F   UNL     1      34.756 -23.825 -16.776  0.00  0.00    -0.204 F 
ATOM     30  C   UNL     1      34.499 -20.881 -19.660  0.00  0.00    +0.006 C 
ATOM     31  C   UNL     1      35.731 -21.184 -19.080  0.00  0.00    +0.003 C 
ATOM     32  C   UNL     1      33.354 -21.573 -19.266  0.00  0.00    +0.003 C 
ATOM     33  C   UNL     1      35.818 -22.178 -18.106  0.00  0.00    +0.030 C 
ATOM     34  C   UNL     1      33.441 -22.567 -18.292  0.00  0.00    +0.030 C 
ATOM     35  C   UNL     1      34.673 -22.870 -17.711  0.00  0.00    +0.140 C 
ENDBRANCH  27  30
ENDBRANCH  23  25
ENDBRANCH   4  23
TORSDOF 9
ENDMDL
MODEL 8
REMARK VINA RESULT:     -10.2      9.128     12.518
REMARK  Name = 24812758
REMARK  9 active torsions:
REMARK  status: ('A' for Active; 'I' for Inactive)
REMARK    1  A    between atoms: C_1  and  C_11
REMARK    2  A    between atoms: C_4  and  C_23
REMARK    3  A    between atoms: C_9  and  O_14
REMARK    4  A    between atoms: C_10  and  O_16
REMARK    5  A    between atoms: C_12  and  O_18
REMARK    6  A    between atoms: C_13  and  C_20
REMARK    7  A    between atoms: C_20  and  O_21
REMARK    8  A    between atoms: C_23  and  C_25
REMARK    9  A    between atoms: C_27  and  C_30
REMARK                            x       y       z     vdW  Elec       q    Type
REMARK                         _______ _______ _______ _____ _____    ______ ____
ROOT
ATOM      1  C   UNL     1      32.931 -13.254 -22.181  0.00  0.00    +0.007 C 
ATOM      2  C   UNL     1      32.255 -12.138 -22.673  0.00  0.00    -0.006 C 
ATOM      3  C   UNL     1      32.874 -13.561 -20.821  0.00  0.00    -0.002 C 
ATOM      4  C   UNL     1      31.523 -11.327 -21.806  0.00  0.00    -0.021 C 
ATOM      5  C   UNL     1      31.466 -11.634 -20.446  0.00  0.00    -0.025 C 
ATOM      6  C   UNL     1      32.142 -12.750 -19.954  0.00  0.00    -0.005 C 
ATOM      7  C   UNL     1      30.687 -10.782 -19.498  0.00  0.00    +0.031 C 
ENDROOT
BRANCH   1  11
ATOM      8  O   UNL     1      33.003 -14.220 -24.355  0.00  0.00    -0.347 OA
ATOM      9  C   UNL     1      33.972 -15.533 -22.536  0.00  0.00    +0.171 C 
ATOM     10  C   UNL     1      34.635 -16.453 -23.565  0.00  0.00    +0.169 C 
ATOM     11  C   UNL     1      33.728 -14.134 -23.123  0.00  0.00    +0.167 C 
ATOM     12  C   UNL     1      33.907 -16.401 -24.907  0.00  0.00    +0.169 C 
ATOM     13  C   UNL     1      33.705 -14.953 -25.360  0.00  0.00    +0.174 C 
BRANCH   9  14
ATOM     14  O   UNL     1      34.832 -15.408 -21.403  0.00  0.00    -0.379 OA
ATOM     15  H   UNL     1      34.302 -15.211 -20.615  0.00  0.00    +0.211 HD
ENDBRANCH   9  14
BRANCH  10  16
ATOM     16  O   UNL     1      34.595 -17.800 -23.093  0.00  0.00    -0.379 OA
ATOM     17  H   UNL     1      33.941 -18.303 -23.604  0.00  0.00    +0.211 HD
ENDBRANCH  10  16
BRANCH  12  18
ATOM     18  O   UNL     1      34.675 -17.096 -25.887  0.00  0.00    -0.379 OA
ATOM     19  H   UNL     1      34.859 -17.996 -25.573  0.00  0.00    +0.211 HD
ENDBRANCH  12  18
BRANCH  13  20
ATOM     20  C   UNL     1      32.884 -14.871 -26.643  0.00  0.00    +0.169 C 
BRANCH  20  21
ATOM     21  O   UNL     1      32.205 -16.101 -26.823  0.00  0.00    -0.379 OA
ATOM     22  H   UNL     1      32.700 -16.811 -26.384  0.00  0.00    +0.211 HD
ENDBRANCH  20  21
ENDBRANCH  13  20
ENDBRANCH   1  11
BRANCH   4  23
ATOM     23  C   UNL     1      30.807 -10.138 -22.355  0.00  0.00    +0.059 C 
BRANCH  23  25
ATOM     24  S   UNL     1      31.169  -7.919 -24.007  0.00  0.00    -0.091 S 
ATOM     25  C   UNL     1      31.729  -9.036 -22.835  0.00  0.00    +0.012 C 
ATOM     26  C   UNL     1      33.025  -8.775 -22.450  0.00  0.00    +0.003 C 
ATOM     27  C   UNL     1      32.663  -7.084 -24.002  0.00  0.00    +0.029 C 
ATOM     28  C   UNL     1      33.567  -7.643 -23.127  0.00  0.00    +0.007 C 
BRANCH  27  30
ATOM     29  F   UNL     1      33.288  -2.664 -27.340  0.00  0.00    -0.204 F 
ATOM     30  C   UNL     1      32.825  -5.938 -24.867  0.00  0.00    +0.006 C 
ATOM     31  C   UNL     1      31.920  -4.879 -24.799  0.00  0.00    +0.003 C 
ATOM     32  C   UNL     1      33.886  -5.892 -25.772  0.00  0.00    +0.003 C 
ATOM     33  C   UNL     1      32.076  -3.773 -25.634  0.00  0.00    +0.030 C 
ATOM     34  C   UNL     1      34.042  -4.786 -26.607  0.00  0.00    +0.030 C 
ATOM     35  C   UNL     1      33.137  -3.726 -26.538  0.00  0.00    +0.140 C 
ENDBRANCH  27  30
ENDBRANCH  23  25
ENDBRANCH   4  23
TORSDOF 9
ENDMDL
MODEL 9
REMARK VINA RESULT:     -10.1      6.227     11.102
REMARK  Name = 24812758
REMARK  9 active torsions:
REMARK  status: ('A' for Active; 'I' for Inactive)
REMARK    1  A    between atoms: C_1  and  C_11
REMARK    2  A    between atoms: C_4  and  C_23
REMARK    3  A    between atoms: C_9  and  O_14
REMARK    4  A    between atoms: C_10  and  O_16
REMARK    5  A    between atoms: C_12  and  O_18
REMARK    6  A    between atoms: C_13  and  C_20
REMARK    7  A    between atoms: C_20  and  O_21
REMARK    8  A    between atoms: C_23  and  C_25
REMARK    9  A    between atoms: C_27  and  C_30
REMARK                            x       y       z     vdW  Elec       q    Type
REMARK                         _______ _______ _______ _____ _____    ______ ____
ROOT
ATOM      1  C   UNL     1      33.677 -15.386 -24.320  0.00  0.00    +0.007 C 
ATOM      2  C   UNL     1      34.441 -15.984 -23.318  0.00  0.00    -0.006 C 
ATOM      3  C   UNL     1      33.421 -16.074 -25.507  0.00  0.00    -0.002 C 
ATOM      4  C   UNL     1      34.949 -17.270 -23.501  0.00  0.00    -0.021 C 
ATOM      5  C   UNL     1      34.693 -17.958 -24.688  0.00  0.00    -0.025 C 
ATOM      6  C   UNL     1      33.930 -17.359 -25.690  0.00  0.00    -0.005 C 
ATOM      7  C   UNL     1      35.226 -19.335 -24.908  0.00  0.00    +0.031 C 
ENDROOT
BRANCH   1  11
ATOM      8  O   UNL     1      34.093 -13.062 -24.625  0.00  0.00    -0.347 OA
ATOM      9  C   UNL     1      32.811 -13.699 -22.645  0.00  0.00    +0.171 C 
ATOM     10  C   UNL     1      32.408 -12.236 -22.445  0.00  0.00    +0.169 C 
ATOM     11  C   UNL     1      33.125 -13.988 -24.120  0.00  0.00    +0.167 C 
ATOM     12  C   UNL     1      33.398 -11.290 -23.124  0.00  0.00    +0.169 C 
ATOM     13  C   UNL     1      33.641 -11.708 -24.575  0.00  0.00    +0.174 C 
BRANCH   9  14
ATOM     14  O   UNL     1      31.730 -14.538 -22.235  0.00  0.00    -0.379 OA
ATOM     15  H   UNL     1      31.861 -14.805 -21.312  0.00  0.00    +0.211 HD
ENDBRANCH   9  14
BRANCH  10  16
ATOM     16  O   UNL     1      32.395 -11.933 -21.049  0.00  0.00    -0.379 OA
ATOM     17  H   UNL     1      33.299 -11.977 -20.700  0.00  0.00    +0.211 HD
ENDBRANCH  10  16
BRANCH  12  18
ATOM     18  O   UNL     1      32.875  -9.964 -23.099  0.00  0.00    -0.379 OA
ATOM     19  H   UNL     1      32.588  -9.747 -22.197  0.00  0.00    +0.211 HD
ENDBRANCH  12  18
BRANCH  13  20
ATOM     20  C   UNL     1      34.708 -10.845 -25.241  0.00  0.00    +0.169 C 
BRANCH  20  21
ATOM     21  O   UNL     1      35.440 -10.173 -24.232  0.00  0.00    -0.379 OA
ATOM     22  H   UNL     1      35.120 -10.453 -23.360  0.00  0.00    +0.211 HD
ENDBRANCH  20  21
ENDBRANCH  13  20
ENDBRANCH   1  11
BRANCH   4  23
ATOM     23  C   UNL     1      35.763 -17.890 -22.414  0.00  0.00    +0.059 C 
BRANCH  23  25
ATOM     24  S   UNL     1      35.831 -19.800 -20.383  0.00  0.00    -0.091 S 
ATOM     25  C   UNL     1      35.000 -18.893 -21.575  0.00  0.00    +0.012 C 
ATOM     26  C   UNL     1      33.660 -19.207 -21.621  0.00  0.00    +0.003 C 
ATOM     27  C   UNL     1      34.397 -20.616 -19.927  0.00  0.00    +0.029 C 
ATOM     28  C   UNL     1      33.310 -20.206 -20.666  0.00  0.00    +0.007 C 
BRANCH  27  30
ATOM     29  F   UNL     1      34.639 -24.418 -15.858  0.00  0.00    -0.204 F 
ATOM     30  C   UNL     1      34.460 -21.602 -18.873  0.00  0.00    +0.006 C 
ATOM     31  C   UNL     1      35.642 -21.780 -18.154  0.00  0.00    +0.003 C 
ATOM     32  C   UNL     1      33.338 -22.375 -18.573  0.00  0.00    +0.003 C 
ATOM     33  C   UNL     1      35.703 -22.731 -17.136  0.00  0.00    +0.030 C 
ATOM     34  C   UNL     1      33.399 -23.326 -17.555  0.00  0.00    +0.030 C 
ATOM     35  C   UNL     1      34.582 -23.504 -16.836  0.00  0.00    +0.140 C 
ENDBRANCH  27  30
ENDBRANCH  23  25
ENDBRANCH   4  23
TORSDOF 9
ENDMDL
