MODEL 1
REMARK VINA RESULT:      -5.6      0.000      0.000
REMARK  Name = 444808
REMARK  2 active torsions:
REMARK  status: ('A' for Active; 'I' for Inactive)
REMARK    1  A    between atoms: C_2  and  C_8
REMARK    2  A    between atoms: C_8  and  S_9
REMARK                            x       y       z     vdW  Elec       q    Type
REMARK                         _______ _______ _______ _____ _____    ______ ____
ROOT
ATOM      1  I   UNL     1      34.372 -15.676 -20.998  0.00  0.00    -0.043 I 
ATOM      2  C   UNL     1      34.666 -18.366 -22.444  0.00  0.00    -0.006 C 
ATOM      3  C   UNL     1      34.538 -16.988 -22.619  0.00  0.00    +0.027 C 
ATOM      4  C   UNL     1      34.772 -19.203 -23.556  0.00  0.00    -0.003 C 
ATOM      5  C   UNL     1      34.515 -16.447 -23.904  0.00  0.00    +0.005 C 
ATOM      6  C   UNL     1      34.749 -18.662 -24.841  0.00  0.00    -0.000 C 
ATOM      7  C   UNL     1      34.621 -17.284 -25.016  0.00  0.00    +0.000 C 
ENDROOT
BRANCH   2   8
ATOM      8  C   UNL     1      34.695 -19.002 -21.091  0.00  0.00    +0.080 C 
BRANCH   8   9
ATOM      9  S   UNL     1      33.185 -19.950 -20.739  0.00  0.00    -0.163 S 
ATOM     10  H   UNL     1      33.513 -21.103 -20.097  0.00  0.00    +0.103 HD
ENDBRANCH   8   9
ENDBRANCH   2   8
TORSDOF 2
ENDMDL
MODEL 2
REMARK VINA RESULT:      -5.4      2.301      2.860
REMARK  Name = 444808
REMARK  2 active torsions:
REMARK  status: ('A' for Active; 'I' for Inactive)
REMARK    1  A    between atoms: C_2  and  C_8
REMARK    2  A    between atoms: C_8  and  S_9
REMARK                            x       y       z     vdW  Elec       q    Type
REMARK                         _______ _______ _______ _____ _____    ______ ____
ROOT
ATOM      1  I   UNL     1      34.770 -19.774 -21.024  0.00  0.00    -0.043 I 
ATOM      2  C   UNL     1      34.817 -17.037 -22.411  0.00  0.00    -0.006 C 
ATOM      3  C   UNL     1      34.750 -18.416 -22.615  0.00  0.00    +0.027 C 
ATOM      4  C   UNL     1      34.802 -16.169 -23.503  0.00  0.00    -0.003 C 
ATOM      5  C   UNL     1      34.670 -18.926 -23.911  0.00  0.00    +0.005 C 
ATOM      6  C   UNL     1      34.722 -16.679 -24.799  0.00  0.00    -0.000 C 
ATOM      7  C   UNL     1      34.655 -18.057 -25.003  0.00  0.00    +0.000 C 
ENDROOT
BRANCH   2   8
ATOM      8  C   UNL     1      34.906 -16.434 -21.046  0.00  0.00    +0.080 C 
BRANCH   8   9
ATOM      9  S   UNL     1      33.961 -14.888 -20.909  0.00  0.00    -0.163 S 
ATOM     10  H   UNL     1      34.302 -14.056 -21.930  0.00  0.00    +0.103 HD
ENDBRANCH   8   9
ENDBRANCH   2   8
TORSDOF 2
ENDMDL
MODEL 3
REMARK VINA RESULT:      -5.4      2.538      3.429
REMARK  Name = 444808
REMARK  2 active torsions:
REMARK  status: ('A' for Active; 'I' for Inactive)
REMARK    1  A    between atoms: C_2  and  C_8
REMARK    2  A    between atoms: C_8  and  S_9
REMARK                            x       y       z     vdW  Elec       q    Type
REMARK                         _______ _______ _______ _____ _____    ______ ____
ROOT
ATOM      1  I   UNL     1      34.211 -15.423 -21.023  0.00  0.00    -0.043 I 
ATOM      2  C   UNL     1      34.222 -16.278 -23.970  0.00  0.00    -0.006 C 
ATOM      3  C   UNL     1      34.441 -16.705 -22.660  0.00  0.00    +0.027 C 
ATOM      4  C   UNL     1      34.389 -17.168 -25.031  0.00  0.00    -0.003 C 
ATOM      5  C   UNL     1      34.829 -18.022 -22.411  0.00  0.00    +0.005 C 
ATOM      6  C   UNL     1      34.777 -18.485 -24.783  0.00  0.00    -0.000 C 
ATOM      7  C   UNL     1      34.996 -18.912 -23.473  0.00  0.00    +0.000 C 
ENDROOT
BRANCH   2   8
ATOM      8  C   UNL     1      33.807 -14.879 -24.296  0.00  0.00    +0.080 C 
BRANCH   8   9
ATOM      9  S   UNL     1      33.054 -14.747 -25.944  0.00  0.00    -0.163 S 
ATOM     10  H   UNL     1      33.926 -15.209 -26.880  0.00  0.00    +0.103 HD
ENDBRANCH   8   9
ENDBRANCH   2   8
TORSDOF 2
ENDMDL
MODEL 4
REMARK VINA RESULT:      -5.3      2.915      3.710
REMARK  Name = 444808
REMARK  2 active torsions:
REMARK  status: ('A' for Active; 'I' for Inactive)
REMARK    1  A    between atoms: C_2  and  C_8
REMARK    2  A    between atoms: C_8  and  S_9
REMARK                            x       y       z     vdW  Elec       q    Type
REMARK                         _______ _______ _______ _____ _____    ______ ____
ROOT
ATOM      1  I   UNL     1      33.106 -14.592 -26.081  0.00  0.00    -0.043 I 
ATOM      2  C   UNL     1      34.416 -15.536 -23.471  0.00  0.00    -0.006 C 
ATOM      3  C   UNL     1      34.050 -15.915 -24.763  0.00  0.00    +0.027 C 
ATOM      4  C   UNL     1      35.042 -16.453 -22.626  0.00  0.00    -0.003 C 
ATOM      5  C   UNL     1      34.311 -17.210 -25.210  0.00  0.00    +0.005 C 
ATOM      6  C   UNL     1      35.303 -17.749 -23.073  0.00  0.00    -0.000 C 
ATOM      7  C   UNL     1      34.938 -18.127 -24.365  0.00  0.00    +0.000 C 
ENDROOT
BRANCH   2   8
ATOM      8  C   UNL     1      34.160 -14.163 -22.937  0.00  0.00    +0.080 C 
BRANCH   8   9
ATOM      9  S   UNL     1      32.597 -14.057 -22.017  0.00  0.00    -0.163 S 
ATOM     10  H   UNL     1      31.582 -14.524 -22.792  0.00  0.00    +0.103 HD
ENDBRANCH   8   9
ENDBRANCH   2   8
TORSDOF 2
ENDMDL
MODEL 5
REMARK VINA RESULT:      -5.2      3.179      4.432
REMARK  Name = 444808
REMARK  2 active torsions:
REMARK  status: ('A' for Active; 'I' for Inactive)
REMARK    1  A    between atoms: C_2  and  C_8
REMARK    2  A    between atoms: C_8  and  S_9
REMARK                            x       y       z     vdW  Elec       q    Type
REMARK                         _______ _______ _______ _____ _____    ______ ____
ROOT
ATOM      1  I   UNL     1      34.995 -18.942 -23.483  0.00  0.00    -0.043 I 
ATOM      2  C   UNL     1      34.350 -15.949 -23.689  0.00  0.00    -0.006 C 
ATOM      3  C   UNL     1      34.672 -16.986 -22.813  0.00  0.00    +0.027 C 
ATOM      4  C   UNL     1      34.141 -14.660 -23.197  0.00  0.00    -0.003 C 
ATOM      5  C   UNL     1      34.783 -16.735 -21.445  0.00  0.00    +0.005 C 
ATOM      6  C   UNL     1      34.253 -14.409 -21.829  0.00  0.00    -0.000 C 
ATOM      7  C   UNL     1      34.574 -15.446 -20.953  0.00  0.00    +0.000 C 
ENDROOT
BRANCH   2   8
ATOM      8  C   UNL     1      34.216 -16.159 -25.163  0.00  0.00    +0.080 C 
BRANCH   8   9
ATOM      9  S   UNL     1      33.149 -14.913 -25.945  0.00  0.00    -0.163 S 
ATOM     10  H   UNL     1      32.500 -15.471 -27.003  0.00  0.00    +0.103 HD
ENDBRANCH   8   9
ENDBRANCH   2   8
TORSDOF 2
ENDMDL
MODEL 6
REMARK VINA RESULT:      -5.2      2.166      3.139
REMARK  Name = 444808
REMARK  2 active torsions:
REMARK  status: ('A' for Active; 'I' for Inactive)
REMARK    1  A    between atoms: C_2  and  C_8
REMARK    2  A    between atoms: C_8  and  S_9
REMARK                            x       y       z     vdW  Elec       q    Type
REMARK                         _______ _______ _______ _____ _____    ______ ____
ROOT
ATOM      1  I   UNL     1      34.601 -17.779 -24.783  0.00  0.00    -0.043 I 
ATOM      2  C   UNL     1      34.835 -17.092 -21.801  0.00  0.00    -0.006 C 
ATOM      3  C   UNL     1      34.558 -16.580 -23.069  0.00  0.00    +0.027 C 
ATOM      4  C   UNL     1      34.797 -16.254 -20.686  0.00  0.00    -0.003 C 
ATOM      5  C   UNL     1      34.243 -15.229 -23.222  0.00  0.00    +0.005 C 
ATOM      6  C   UNL     1      34.482 -14.904 -20.839  0.00  0.00    -0.000 C 
ATOM      7  C   UNL     1      34.205 -14.391 -22.107  0.00  0.00    +0.000 C 
ENDROOT
BRANCH   2   8
ATOM      8  C   UNL     1      35.181 -18.530 -21.577  0.00  0.00    +0.080 C 
BRANCH   8   9
ATOM      9  S   UNL     1      33.742 -19.515 -21.066  0.00  0.00    -0.163 S 
ATOM     10  H   UNL     1      32.652 -19.134 -21.785  0.00  0.00    +0.103 HD
ENDBRANCH   8   9
ENDBRANCH   2   8
TORSDOF 2
ENDMDL
MODEL 7
REMARK VINA RESULT:      -5.1      1.675      1.852
REMARK  Name = 444808
REMARK  2 active torsions:
REMARK  status: ('A' for Active; 'I' for Inactive)
REMARK    1  A    between atoms: C_2  and  C_8
REMARK    2  A    between atoms: C_8  and  S_9
REMARK                            x       y       z     vdW  Elec       q    Type
REMARK                         _______ _______ _______ _____ _____    ______ ____
ROOT
ATOM      1  I   UNL     1      33.088 -14.417 -21.389  0.00  0.00    -0.043 I 
ATOM      2  C   UNL     1      34.665 -16.700 -22.700  0.00  0.00    -0.006 C 
ATOM      3  C   UNL     1      33.841 -15.600 -22.942  0.00  0.00    +0.027 C 
ATOM      4  C   UNL     1      35.143 -17.462 -23.767  0.00  0.00    -0.003 C 
ATOM      5  C   UNL     1      33.494 -15.263 -24.250  0.00  0.00    +0.005 C 
ATOM      6  C   UNL     1      34.796 -17.124 -25.076  0.00  0.00    -0.000 C 
ATOM      7  C   UNL     1      33.972 -16.025 -25.317  0.00  0.00    +0.000 C 
ENDROOT
BRANCH   2   8
ATOM      8  C   UNL     1      35.069 -17.110 -21.320  0.00  0.00    +0.080 C 
BRANCH   8   9
ATOM      9  S   UNL     1      35.727 -18.802 -21.264  0.00  0.00    -0.163 S 
ATOM     10  H   UNL     1      36.865 -18.871 -22.006  0.00  0.00    +0.103 HD
ENDBRANCH   8   9
ENDBRANCH   2   8
TORSDOF 2
ENDMDL
MODEL 8
REMARK VINA RESULT:      -5.1      2.621      3.778
REMARK  Name = 444808
REMARK  2 active torsions:
REMARK  status: ('A' for Active; 'I' for Inactive)
REMARK    1  A    between atoms: C_2  and  C_8
REMARK    2  A    between atoms: C_8  and  S_9
REMARK                            x       y       z     vdW  Elec       q    Type
REMARK                         _______ _______ _______ _____ _____    ______ ____
ROOT
ATOM      1  I   UNL     1      33.479 -13.222 -23.909  0.00  0.00    -0.043 I 
ATOM      2  C   UNL     1      34.502 -16.028 -23.205  0.00  0.00    -0.006 C 
ATOM      3  C   UNL     1      34.120 -14.792 -22.684  0.00  0.00    +0.027 C 
ATOM      4  C   UNL     1      34.925 -17.046 -22.349  0.00  0.00    -0.003 C 
ATOM      5  C   UNL     1      34.161 -14.573 -21.306  0.00  0.00    +0.005 C 
ATOM      6  C   UNL     1      34.966 -16.826 -20.972  0.00  0.00    -0.000 C 
ATOM      7  C   UNL     1      34.584 -15.590 -20.451  0.00  0.00    +0.000 C 
ENDROOT
BRANCH   2   8
ATOM      8  C   UNL     1      34.480 -16.320 -24.672  0.00  0.00    +0.080 C 
BRANCH   8   9
ATOM      9  S   UNL     1      34.463 -18.102 -25.023  0.00  0.00    -0.163 S 
ATOM     10  H   UNL     1      33.189 -18.571 -24.925  0.00  0.00    +0.103 HD
ENDBRANCH   8   9
ENDBRANCH   2   8
TORSDOF 2
ENDMDL
MODEL 9
REMARK VINA RESULT:      -5.0      8.062      9.077
REMARK  Name = 444808
REMARK  2 active torsions:
REMARK  status: ('A' for Active; 'I' for Inactive)
REMARK    1  A    between atoms: C_2  and  C_8
REMARK    2  A    between atoms: C_8  and  S_9
REMARK                            x       y       z     vdW  Elec       q    Type
REMARK                         _______ _______ _______ _____ _____    ______ ____
ROOT
ATOM      1  I   UNL     1      32.321  -7.110 -20.976  0.00  0.00    -0.043 I 
ATOM      2  C   UNL     1      31.903 -10.030 -21.820  0.00  0.00    -0.006 C 
ATOM      3  C   UNL     1      31.957  -9.155 -20.734  0.00  0.00    +0.027 C 
ATOM      4  C   UNL     1      31.659 -11.388 -21.610  0.00  0.00    -0.003 C 
ATOM      5  C   UNL     1      31.767  -9.639 -19.439  0.00  0.00    +0.005 C 
ATOM      6  C   UNL     1      31.469 -11.871 -20.315  0.00  0.00    -0.000 C 
ATOM      7  C   UNL     1      31.523 -10.996 -19.230  0.00  0.00    +0.000 C 
ENDROOT
BRANCH   2   8
ATOM      8  C   UNL     1      32.100  -9.570 -23.229  0.00  0.00    +0.080 C 
BRANCH   8   9
ATOM      9  S   UNL     1      33.663 -10.164 -23.939  0.00  0.00    -0.163 S 
ATOM     10  H   UNL     1      34.681  -9.910 -23.072  0.00  0.00    +0.103 HD
ENDBRANCH   8   9
ENDBRANCH   2   8
TORSDOF 2
ENDMDL
