MODEL 1
REMARK VINA RESULT:      -8.8      0.000      0.000
REMARK  Name = 448457
REMARK  15 active torsions:
REMARK  status: ('A' for Active; 'I' for Inactive)
REMARK    1  A    between atoms: C_2  and  C_19
REMARK    2  A    between atoms: C_3  and  C_9
REMARK    3  A    between atoms: C_4  and  O_7
REMARK    4  A    between atoms: C_10  and  C_11
REMARK    5  A    between atoms: C_11  and  O_12
REMARK    6  A    between atoms: C_11  and  C_14
REMARK    7  A    between atoms: C_14  and  C_15
REMARK    8  A    between atoms: C_15  and  C_16
REMARK    9  A    between atoms: C_16  and  C_17
REMARK   10  A    between atoms: C_19  and  C_20
REMARK   11  A    between atoms: C_21  and  C_22
REMARK   12  A    between atoms: C_22  and  C_23
REMARK   13  A    between atoms: C_23  and  C_24
REMARK   14  A    between atoms: C_24  and  C_26
REMARK   15  A    between atoms: C_26  and  O_27
REMARK                            x       y       z     vdW  Elec       q    Type
REMARK                         _______ _______ _______ _____ _____    ______ ____
ROOT
ATOM      1  O   UNL     1      29.414 -23.608 -16.544  0.00  0.00    -0.296 OA
ATOM      2  C   UNL     1      32.425 -24.215 -14.768  0.00  0.00    +0.043 C 
ATOM      3  C   UNL     1      31.608 -23.185 -15.574  0.00  0.00    +0.082 C 
ATOM      4  C   UNL     1      31.372 -24.922 -13.901  0.00  0.00    +0.119 C 
ATOM      5  C   UNL     1      30.190 -25.131 -14.844  0.00  0.00    +0.094 C 
ATOM      6  C   UNL     1      30.296 -23.930 -15.757  0.00  0.00    +0.157 C 
ENDROOT
BRANCH   4   7
ATOM      7  O   UNL     1      30.944 -24.110 -12.812  0.00  0.00    -0.384 OA
ATOM      8  H   UNL     1      31.713 -23.851 -12.281  0.00  0.00    +0.210 HD
ENDBRANCH   4   7
BRANCH   3   9
ATOM      9  C   UNL     1      32.214 -22.825 -16.884  0.00  0.00    -0.021 C 
ATOM     10  C   UNL     1      33.411 -23.265 -17.300  0.00  0.00    -0.002 C 
BRANCH  10  11
ATOM     11  C   UNL     1      34.019 -22.896 -18.623  0.00  0.00    +0.132 C 
BRANCH  11  12
ATOM     12  O   UNL     1      33.922 -24.026 -19.493  0.00  0.00    -0.380 OA
ATOM     13  H   UNL     1      33.298 -23.830 -20.209  0.00  0.00    +0.211 HD
ENDBRANCH  11  12
BRANCH  11  14
ATOM     14  C   UNL     1      33.298 -21.727 -19.307  0.00  0.00    +0.034 C 
BRANCH  14  15
ATOM     15  C   UNL     1      34.255 -20.720 -19.950  0.00  0.00    +0.003 C 
BRANCH  15  16
ATOM     16  C   UNL     1      33.583 -19.822 -20.995  0.00  0.00    +0.000 C 
BRANCH  16  17
ATOM     17  C   UNL     1      34.548 -18.853 -21.678  0.00  0.00    +0.000 C 
ATOM     18  C   UNL     1      34.735 -19.201 -23.146  0.00  0.00    +0.000 C 
ENDBRANCH  16  17
ENDBRANCH  15  16
ENDBRANCH  14  15
ENDBRANCH  11  14
ENDBRANCH  10  11
ENDBRANCH   3   9
BRANCH   2  19
ATOM     19  C   UNL     1      33.557 -23.574 -13.973  0.00  0.00    +0.029 C 
BRANCH  19  20
ATOM     20  C   UNL     1      34.653 -24.487 -13.498  0.00  0.00    -0.031 C 
ATOM     21  C   UNL     1      35.944 -24.465 -13.864  0.00  0.00    -0.031 C 
BRANCH  21  22
ATOM     22  C   UNL     1      36.513 -23.483 -14.845  0.00  0.00    +0.026 C 
BRANCH  22  23
ATOM     23  C   UNL     1      37.887 -23.887 -15.395  0.00  0.00    +0.016 C 
BRANCH  23  24
ATOM     24  C   UNL     1      38.536 -25.056 -14.648  0.00  0.00    +0.110 C 
BRANCH  24  26
ATOM     25  O   UNL     1      40.914 -24.761 -14.218  0.00  0.00    -0.250 OA
ATOM     26  C   UNL     1      40.017 -25.208 -14.919  0.00  0.00    +0.314 C 
BRANCH  26  27
ATOM     27  O   UNL     1      40.249 -25.876 -16.079  0.00  0.00    -0.480 OA
ATOM     28  H   UNL     1      39.534 -26.248 -16.556  0.00  0.00    +0.295 HD
ENDBRANCH  26  27
ENDBRANCH  24  26
ENDBRANCH  23  24
ENDBRANCH  22  23
ENDBRANCH  21  22
ENDBRANCH  19  20
ENDBRANCH   2  19
TORSDOF 15
ENDMDL
MODEL 2
REMARK VINA RESULT:      -8.7      2.041      2.608
REMARK  Name = 448457
REMARK  15 active torsions:
REMARK  status: ('A' for Active; 'I' for Inactive)
REMARK    1  A    between atoms: C_2  and  C_19
REMARK    2  A    between atoms: C_3  and  C_9
REMARK    3  A    between atoms: C_4  and  O_7
REMARK    4  A    between atoms: C_10  and  C_11
REMARK    5  A    between atoms: C_11  and  O_12
REMARK    6  A    between atoms: C_11  and  C_14
REMARK    7  A    between atoms: C_14  and  C_15
REMARK    8  A    between atoms: C_15  and  C_16
REMARK    9  A    between atoms: C_16  and  C_17
REMARK   10  A    between atoms: C_19  and  C_20
REMARK   11  A    between atoms: C_21  and  C_22
REMARK   12  A    between atoms: C_22  and  C_23
REMARK   13  A    between atoms: C_23  and  C_24
REMARK   14  A    between atoms: C_24  and  C_26
REMARK   15  A    between atoms: C_26  and  O_27
REMARK                            x       y       z     vdW  Elec       q    Type
REMARK                         _______ _______ _______ _____ _____    ______ ____
ROOT
ATOM      1  O   UNL     1      30.305 -22.621 -16.790  0.00  0.00    -0.296 OA
ATOM      2  C   UNL     1      32.784 -24.375 -14.956  0.00  0.00    +0.043 C 
ATOM      3  C   UNL     1      32.498 -23.183 -15.890  0.00  0.00    +0.082 C 
ATOM      4  C   UNL     1      31.582 -24.391 -14.000  0.00  0.00    +0.119 C 
ATOM      5  C   UNL     1      30.382 -24.121 -14.905  0.00  0.00    +0.094 C 
ATOM      6  C   UNL     1      30.981 -23.230 -15.969  0.00  0.00    +0.157 C 
ENDROOT
BRANCH   4   7
ATOM      7  O   UNL     1      31.658 -23.353 -13.029  0.00  0.00    -0.384 OA
ATOM      8  H   UNL     1      31.382 -22.514 -13.429  0.00  0.00    +0.210 HD
ENDBRANCH   4   7
BRANCH   3   9
ATOM      9  C   UNL     1      33.115 -23.308 -17.238  0.00  0.00    -0.021 C 
ATOM     10  C   UNL     1      34.120 -22.534 -17.674  0.00  0.00    -0.002 C 
BRANCH  10  11
ATOM     11  C   UNL     1      34.740 -22.663 -19.037  0.00  0.00    +0.132 C 
BRANCH  11  12
ATOM     12  O   UNL     1      33.965 -23.593 -19.796  0.00  0.00    -0.380 OA
ATOM     13  H   UNL     1      33.771 -24.373 -19.252  0.00  0.00    +0.211 HD
ENDBRANCH  11  12
BRANCH  11  14
ATOM     14  C   UNL     1      34.758 -21.339 -19.812  0.00  0.00    +0.034 C 
BRANCH  14  15
ATOM     15  C   UNL     1      33.371 -20.708 -19.962  0.00  0.00    +0.003 C 
BRANCH  15  16
ATOM     16  C   UNL     1      33.308 -19.626 -21.046  0.00  0.00    +0.000 C 
BRANCH  16  17
ATOM     17  C   UNL     1      34.645 -18.926 -21.288  0.00  0.00    +0.000 C 
ATOM     18  C   UNL     1      34.508 -17.415 -21.177  0.00  0.00    +0.000 C 
ENDBRANCH  16  17
ENDBRANCH  15  16
ENDBRANCH  14  15
ENDBRANCH  11  14
ENDBRANCH  10  11
ENDBRANCH   3   9
BRANCH   2  19
ATOM     19  C   UNL     1      34.134 -24.262 -14.256  0.00  0.00    +0.029 C 
BRANCH  19  20
ATOM     20  C   UNL     1      35.299 -24.945 -14.916  0.00  0.00    -0.031 C 
ATOM     21  C   UNL     1      36.589 -24.577 -14.870  0.00  0.00    -0.031 C 
BRANCH  21  22
ATOM     22  C   UNL     1      37.084 -23.377 -14.119  0.00  0.00    +0.026 C 
BRANCH  22  23
ATOM     23  C   UNL     1      37.564 -23.695 -12.696  0.00  0.00    +0.016 C 
BRANCH  23  24
ATOM     24  C   UNL     1      36.556 -23.326 -11.603  0.00  0.00    +0.110 C 
BRANCH  24  26
ATOM     25  O   UNL     1      35.399 -24.494  -9.807  0.00  0.00    -0.250 OA
ATOM     26  C   UNL     1      35.958 -24.522 -10.895  0.00  0.00    +0.314 C 
BRANCH  26  27
ATOM     27  O   UNL     1      36.151 -25.668 -11.598  0.00  0.00    -0.480 OA
ATOM     28  H   UNL     1      35.808 -25.749 -12.466  0.00  0.00    +0.295 HD
ENDBRANCH  26  27
ENDBRANCH  24  26
ENDBRANCH  23  24
ENDBRANCH  22  23
ENDBRANCH  21  22
ENDBRANCH  19  20
ENDBRANCH   2  19
TORSDOF 15
ENDMDL
MODEL 3
REMARK VINA RESULT:      -8.7      2.029      6.634
REMARK  Name = 448457
REMARK  15 active torsions:
REMARK  status: ('A' for Active; 'I' for Inactive)
REMARK    1  A    between atoms: C_2  and  C_19
REMARK    2  A    between atoms: C_3  and  C_9
REMARK    3  A    between atoms: C_4  and  O_7
REMARK    4  A    between atoms: C_10  and  C_11
REMARK    5  A    between atoms: C_11  and  O_12
REMARK    6  A    between atoms: C_11  and  C_14
REMARK    7  A    between atoms: C_14  and  C_15
REMARK    8  A    between atoms: C_15  and  C_16
REMARK    9  A    between atoms: C_16  and  C_17
REMARK   10  A    between atoms: C_19  and  C_20
REMARK   11  A    between atoms: C_21  and  C_22
REMARK   12  A    between atoms: C_22  and  C_23
REMARK   13  A    between atoms: C_23  and  C_24
REMARK   14  A    between atoms: C_24  and  C_26
REMARK   15  A    between atoms: C_26  and  O_27
REMARK                            x       y       z     vdW  Elec       q    Type
REMARK                         _______ _______ _______ _____ _____    ______ ____
ROOT
ATOM      1  O   UNL     1      39.696 -24.488 -14.765  0.00  0.00    -0.296 OA
ATOM      2  C   UNL     1      36.275 -24.472 -13.824  0.00  0.00    +0.043 C 
ATOM      3  C   UNL     1      37.272 -24.430 -14.999  0.00  0.00    +0.082 C 
ATOM      4  C   UNL     1      36.887 -25.498 -12.859  0.00  0.00    +0.119 C 
ATOM      5  C   UNL     1      38.379 -25.176 -12.868  0.00  0.00    +0.094 C 
ATOM      6  C   UNL     1      38.587 -24.672 -14.277  0.00  0.00    +0.157 C 
ENDROOT
BRANCH   4   7
ATOM      7  O   UNL     1      36.709 -26.834 -13.319  0.00  0.00    -0.384 OA
ATOM      8  H   UNL     1      37.384 -27.405 -12.920  0.00  0.00    +0.210 HD
ENDBRANCH   4   7
BRANCH   3   9
ATOM      9  C   UNL     1      37.287 -23.136 -15.735  0.00  0.00    -0.021 C 
ATOM     10  C   UNL     1      36.356 -22.776 -16.631  0.00  0.00    -0.002 C 
BRANCH  10  11
ATOM     11  C   UNL     1      36.376 -21.469 -17.372  0.00  0.00    +0.132 C 
BRANCH  11  12
ATOM     12  O   UNL     1      37.417 -20.658 -16.825  0.00  0.00    -0.380 OA
ATOM     13  H   UNL     1      37.449 -19.810 -17.295  0.00  0.00    +0.211 HD
ENDBRANCH  11  12
BRANCH  11  14
ATOM     14  C   UNL     1      36.664 -21.638 -18.870  0.00  0.00    +0.034 C 
BRANCH  14  15
ATOM     15  C   UNL     1      35.528 -21.134 -19.764  0.00  0.00    +0.003 C 
BRANCH  15  16
ATOM     16  C   UNL     1      34.158 -21.713 -19.392  0.00  0.00    +0.000 C 
BRANCH  16  17
ATOM     17  C   UNL     1      32.988 -20.803 -19.768  0.00  0.00    +0.000 C 
ATOM     18  C   UNL     1      33.378 -19.824 -20.865  0.00  0.00    +0.000 C 
ENDBRANCH  16  17
ENDBRANCH  15  16
ENDBRANCH  14  15
ENDBRANCH  11  14
ENDBRANCH  10  11
ENDBRANCH   3   9
BRANCH   2  19
ATOM     19  C   UNL     1      34.855 -24.804 -14.269  0.00  0.00    +0.029 C 
BRANCH  19  20
ATOM     20  C   UNL     1      33.762 -23.895 -13.781  0.00  0.00    -0.031 C 
ATOM     21  C   UNL     1      32.824 -23.283 -14.521  0.00  0.00    -0.031 C 
BRANCH  21  22
ATOM     22  C   UNL     1      32.722 -23.419 -16.011  0.00  0.00    +0.026 C 
BRANCH  22  23
ATOM     23  C   UNL     1      31.435 -22.823 -16.598  0.00  0.00    +0.016 C 
BRANCH  23  24
ATOM     24  C   UNL     1      30.152 -23.365 -15.960  0.00  0.00    +0.110 C 
BRANCH  24  26
ATOM     25  O   UNL     1      28.412 -22.702 -17.529  0.00  0.00    -0.250 OA
ATOM     26  C   UNL     1      28.897 -22.648 -16.407  0.00  0.00    +0.314 C 
BRANCH  26  27
ATOM     27  O   UNL     1      28.376 -21.882 -15.413  0.00  0.00    -0.480 OA
ATOM     28  H   UNL     1      28.646 -22.018 -14.526  0.00  0.00    +0.295 HD
ENDBRANCH  26  27
ENDBRANCH  24  26
ENDBRANCH  23  24
ENDBRANCH  22  23
ENDBRANCH  21  22
ENDBRANCH  19  20
ENDBRANCH   2  19
TORSDOF 15
ENDMDL
MODEL 4
REMARK VINA RESULT:      -8.7      2.521      7.061
REMARK  Name = 448457
REMARK  15 active torsions:
REMARK  status: ('A' for Active; 'I' for Inactive)
REMARK    1  A    between atoms: C_2  and  C_19
REMARK    2  A    between atoms: C_3  and  C_9
REMARK    3  A    between atoms: C_4  and  O_7
REMARK    4  A    between atoms: C_10  and  C_11
REMARK    5  A    between atoms: C_11  and  O_12
REMARK    6  A    between atoms: C_11  and  C_14
REMARK    7  A    between atoms: C_14  and  C_15
REMARK    8  A    between atoms: C_15  and  C_16
REMARK    9  A    between atoms: C_16  and  C_17
REMARK   10  A    between atoms: C_19  and  C_20
REMARK   11  A    between atoms: C_21  and  C_22
REMARK   12  A    between atoms: C_22  and  C_23
REMARK   13  A    between atoms: C_23  and  C_24
REMARK   14  A    between atoms: C_24  and  C_26
REMARK   15  A    between atoms: C_26  and  O_27
REMARK                            x       y       z     vdW  Elec       q    Type
REMARK                         _______ _______ _______ _____ _____    ______ ____
ROOT
ATOM      1  O   UNL     1      36.076 -24.927 -15.610  0.00  0.00    -0.296 OA
ATOM      2  C   UNL     1      33.171 -23.165 -14.589  0.00  0.00    +0.043 C 
ATOM      3  C   UNL     1      33.844 -23.958 -15.726  0.00  0.00    +0.082 C 
ATOM      4  C   UNL     1      33.561 -23.939 -13.320  0.00  0.00    +0.119 C 
ATOM      5  C   UNL     1      35.031 -24.289 -13.533  0.00  0.00    +0.094 C 
ATOM      6  C   UNL     1      35.105 -24.449 -15.035  0.00  0.00    +0.157 C 
ENDROOT
BRANCH   4   7
ATOM      7  O   UNL     1      32.823 -25.149 -13.185  0.00  0.00    -0.384 OA
ATOM      8  H   UNL     1      31.874 -24.949 -13.173  0.00  0.00    +0.210 HD
ENDBRANCH   4   7
BRANCH   3   9
ATOM      9  C   UNL     1      34.168 -23.138 -16.926  0.00  0.00    -0.021 C 
ATOM     10  C   UNL     1      33.591 -23.309 -18.124  0.00  0.00    -0.002 C 
BRANCH  10  11
ATOM     11  C   UNL     1      33.922 -22.480 -19.333  0.00  0.00    +0.132 C 
BRANCH  11  12
ATOM     12  O   UNL     1      32.756 -21.744 -19.706  0.00  0.00    -0.380 OA
ATOM     13  H   UNL     1      32.938 -20.793 -19.642  0.00  0.00    +0.211 HD
ENDBRANCH  11  12
BRANCH  11  14
ATOM     14  C   UNL     1      35.042 -21.464 -19.071  0.00  0.00    +0.034 C 
BRANCH  14  15
ATOM     15  C   UNL     1      35.956 -21.247 -20.280  0.00  0.00    +0.003 C 
BRANCH  15  16
ATOM     16  C   UNL     1      35.898 -19.822 -20.839  0.00  0.00    +0.000 C 
BRANCH  16  17
ATOM     17  C   UNL     1      34.605 -19.514 -21.595  0.00  0.00    +0.000 C 
ATOM     18  C   UNL     1      34.892 -19.011 -23.001  0.00  0.00    +0.000 C 
ENDBRANCH  16  17
ENDBRANCH  15  16
ENDBRANCH  14  15
ENDBRANCH  11  14
ENDBRANCH  10  11
ENDBRANCH   3   9
BRANCH   2  19
ATOM     19  C   UNL     1      31.667 -23.013 -14.788  0.00  0.00    +0.029 C 
BRANCH  19  20
ATOM     20  C   UNL     1      30.952 -24.158 -15.450  0.00  0.00    -0.031 C 
ATOM     21  C   UNL     1      29.685 -24.178 -15.891  0.00  0.00    -0.031 C 
BRANCH  21  22
ATOM     22  C   UNL     1      28.750 -23.009 -15.785  0.00  0.00    +0.026 C 
BRANCH  22  23
ATOM     23  C   UNL     1      27.797 -22.871 -16.980  0.00  0.00    +0.016 C 
BRANCH  23  24
ATOM     24  C   UNL     1      26.651 -21.880 -16.750  0.00  0.00    +0.110 C 
BRANCH  24  26
ATOM     25  O   UNL     1      25.913 -21.849 -19.070  0.00  0.00    -0.250 OA
ATOM     26  C   UNL     1      26.121 -21.254 -18.021  0.00  0.00    +0.314 C 
BRANCH  26  27
ATOM     27  O   UNL     1      25.934 -19.916 -17.881  0.00  0.00    -0.480 OA
ATOM     28  H   UNL     1      26.217 -19.482 -17.100  0.00  0.00    +0.295 HD
ENDBRANCH  26  27
ENDBRANCH  24  26
ENDBRANCH  23  24
ENDBRANCH  22  23
ENDBRANCH  21  22
ENDBRANCH  19  20
ENDBRANCH   2  19
TORSDOF 15
ENDMDL
MODEL 5
REMARK VINA RESULT:      -8.5      7.626     13.115
REMARK  Name = 448457
REMARK  15 active torsions:
REMARK  status: ('A' for Active; 'I' for Inactive)
REMARK    1  A    between atoms: C_2  and  C_19
REMARK    2  A    between atoms: C_3  and  C_9
REMARK    3  A    between atoms: C_4  and  O_7
REMARK    4  A    between atoms: C_10  and  C_11
REMARK    5  A    between atoms: C_11  and  O_12
REMARK    6  A    between atoms: C_11  and  C_14
REMARK    7  A    between atoms: C_14  and  C_15
REMARK    8  A    between atoms: C_15  and  C_16
REMARK    9  A    between atoms: C_16  and  C_17
REMARK   10  A    between atoms: C_19  and  C_20
REMARK   11  A    between atoms: C_21  and  C_22
REMARK   12  A    between atoms: C_22  and  C_23
REMARK   13  A    between atoms: C_23  and  C_24
REMARK   14  A    between atoms: C_24  and  C_26
REMARK   15  A    between atoms: C_26  and  O_27
REMARK                            x       y       z     vdW  Elec       q    Type
REMARK                         _______ _______ _______ _____ _____    ______ ____
ROOT
ATOM      1  O   UNL     1      34.836 -16.872 -25.805  0.00  0.00    -0.296 OA
ATOM      2  C   UNL     1      33.016 -14.481 -23.919  0.00  0.00    +0.043 C 
ATOM      3  C   UNL     1      34.324 -15.289 -24.026  0.00  0.00    +0.082 C 
ATOM      4  C   UNL     1      32.721 -14.065 -25.368  0.00  0.00    +0.119 C 
ATOM      5  C   UNL     1      33.038 -15.313 -26.187  0.00  0.00    +0.094 C 
ATOM      6  C   UNL     1      34.154 -15.943 -25.386  0.00  0.00    +0.157 C 
ENDROOT
BRANCH   4   7
ATOM      7  O   UNL     1      33.572 -13.009 -25.803  0.00  0.00    -0.384 OA
ATOM      8  H   UNL     1      33.397 -12.215 -25.276  0.00  0.00    +0.210 HD
ENDBRANCH   4   7
BRANCH   3   9
ATOM      9  C   UNL     1      34.498 -16.305 -22.953  0.00  0.00    -0.021 C 
ATOM     10  C   UNL     1      35.472 -17.228 -22.948  0.00  0.00    -0.002 C 
BRANCH  10  11
ATOM     11  C   UNL     1      35.642 -18.253 -21.864  0.00  0.00    +0.132 C 
BRANCH  11  12
ATOM     12  O   UNL     1      35.438 -17.612 -20.603  0.00  0.00    -0.380 OA
ATOM     13  H   UNL     1      34.582 -17.155 -20.607  0.00  0.00    +0.211 HD
ENDBRANCH  11  12
BRANCH  11  14
ATOM     14  C   UNL     1      34.628 -19.402 -21.965  0.00  0.00    +0.034 C 
BRANCH  14  15
ATOM     15  C   UNL     1      33.478 -19.283 -20.961  0.00  0.00    +0.003 C 
BRANCH  15  16
ATOM     16  C   UNL     1      33.143 -20.603 -20.259  0.00  0.00    +0.000 C 
BRANCH  16  17
ATOM     17  C   UNL     1      34.362 -21.296 -19.649  0.00  0.00    +0.000 C 
ATOM     18  C   UNL     1      33.961 -22.545 -18.879  0.00  0.00    +0.000 C 
ENDBRANCH  16  17
ENDBRANCH  15  16
ENDBRANCH  14  15
ENDBRANCH  11  14
ENDBRANCH  10  11
ENDBRANCH   3   9
BRANCH   2  19
ATOM     19  C   UNL     1      33.124 -13.313 -22.945  0.00  0.00    +0.029 C 
BRANCH  19  20
ATOM     20  C   UNL     1      32.757 -13.588 -21.514  0.00  0.00    -0.031 C 
ATOM     21  C   UNL     1      31.901 -12.894 -20.747  0.00  0.00    -0.031 C 
BRANCH  21  22
ATOM     22  C   UNL     1      31.149 -11.687 -21.225  0.00  0.00    +0.026 C 
BRANCH  22  23
ATOM     23  C   UNL     1      31.642 -10.370 -20.609  0.00  0.00    +0.016 C 
BRANCH  23  24
ATOM     24  C   UNL     1      32.010  -9.300 -21.641  0.00  0.00    +0.110 C 
BRANCH  24  26
ATOM     25  O   UNL     1      32.850  -7.015 -21.647  0.00  0.00    -0.250 OA
ATOM     26  C   UNL     1      32.603  -8.046 -21.037  0.00  0.00    +0.314 C 
BRANCH  26  27
ATOM     27  O   UNL     1      32.878  -8.208 -19.716  0.00  0.00    -0.480 OA
ATOM     28  H   UNL     1      33.475  -7.626 -19.288  0.00  0.00    +0.295 HD
ENDBRANCH  26  27
ENDBRANCH  24  26
ENDBRANCH  23  24
ENDBRANCH  22  23
ENDBRANCH  21  22
ENDBRANCH  19  20
ENDBRANCH   2  19
TORSDOF 15
ENDMDL
MODEL 6
REMARK VINA RESULT:      -8.5      2.431      6.474
REMARK  Name = 448457
REMARK  15 active torsions:
REMARK  status: ('A' for Active; 'I' for Inactive)
REMARK    1  A    between atoms: C_2  and  C_19
REMARK    2  A    between atoms: C_3  and  C_9
REMARK    3  A    between atoms: C_4  and  O_7
REMARK    4  A    between atoms: C_10  and  C_11
REMARK    5  A    between atoms: C_11  and  O_12
REMARK    6  A    between atoms: C_11  and  C_14
REMARK    7  A    between atoms: C_14  and  C_15
REMARK    8  A    between atoms: C_15  and  C_16
REMARK    9  A    between atoms: C_16  and  C_17
REMARK   10  A    between atoms: C_19  and  C_20
REMARK   11  A    between atoms: C_21  and  C_22
REMARK   12  A    between atoms: C_22  and  C_23
REMARK   13  A    between atoms: C_23  and  C_24
REMARK   14  A    between atoms: C_24  and  C_26
REMARK   15  A    between atoms: C_26  and  O_27
REMARK                            x       y       z     vdW  Elec       q    Type
REMARK                         _______ _______ _______ _____ _____    ______ ____
ROOT
ATOM      1  O   UNL     1      36.952 -21.399 -18.979  0.00  0.00    -0.296 OA
ATOM      2  C   UNL     1      34.918 -22.663 -16.361  0.00  0.00    +0.043 C 
ATOM      3  C   UNL     1      35.148 -22.615 -17.884  0.00  0.00    +0.082 C 
ATOM      4  C   UNL     1      36.334 -22.787 -15.779  0.00  0.00    +0.119 C 
ATOM      5  C   UNL     1      37.168 -21.819 -16.615  0.00  0.00    +0.094 C 
ATOM      6  C   UNL     1      36.477 -21.884 -17.958  0.00  0.00    +0.157 C 
ENDROOT
BRANCH   4   7
ATOM      7  O   UNL     1      36.865 -24.098 -15.942  0.00  0.00    -0.384 OA
ATOM      8  H   UNL     1      37.831 -24.050 -16.005  0.00  0.00    +0.210 HD
ENDBRANCH   4   7
BRANCH   3   9
ATOM      9  C   UNL     1      34.087 -21.889 -18.634  0.00  0.00    -0.021 C 
ATOM     10  C   UNL     1      34.295 -21.257 -19.799  0.00  0.00    -0.002 C 
BRANCH  10  11
ATOM     11  C   UNL     1      33.221 -20.523 -20.551  0.00  0.00    +0.132 C 
BRANCH  11  12
ATOM     12  O   UNL     1      32.131 -20.285 -19.660  0.00  0.00    -0.380 OA
ATOM     13  H   UNL     1      31.474 -19.719 -20.095  0.00  0.00    +0.211 HD
ENDBRANCH  11  12
BRANCH  11  14
ATOM     14  C   UNL     1      33.689 -19.161 -21.081  0.00  0.00    +0.034 C 
BRANCH  14  15
ATOM     15  C   UNL     1      35.212 -19.013 -21.106  0.00  0.00    +0.003 C 
BRANCH  15  16
ATOM     16  C   UNL     1      35.765 -18.637 -22.485  0.00  0.00    +0.000 C 
BRANCH  16  17
ATOM     17  C   UNL     1      34.942 -19.199 -23.646  0.00  0.00    +0.000 C 
ATOM     18  C   UNL     1      34.603 -18.116 -24.659  0.00  0.00    +0.000 C 
ENDBRANCH  16  17
ENDBRANCH  15  16
ENDBRANCH  14  15
ENDBRANCH  11  14
ENDBRANCH  10  11
ENDBRANCH   3   9
BRANCH   2  19
ATOM     19  C   UNL     1      33.973 -23.783 -15.943  0.00  0.00    +0.029 C 
BRANCH  19  20
ATOM     20  C   UNL     1      33.514 -23.785 -14.512  0.00  0.00    -0.031 C 
ATOM     21  C   UNL     1      32.322 -23.388 -14.040  0.00  0.00    -0.031 C 
BRANCH  21  22
ATOM     22  C   UNL     1      31.219 -22.859 -14.909  0.00  0.00    +0.026 C 
BRANCH  22  23
ATOM     23  C   UNL     1      30.438 -23.954 -15.648  0.00  0.00    +0.016 C 
BRANCH  23  24
ATOM     24  C   UNL     1      28.917 -23.791 -15.572  0.00  0.00    +0.110 C 
BRANCH  24  26
ATOM     25  O   UNL     1      27.660 -23.942 -17.651  0.00  0.00    -0.250 OA
ATOM     26  C   UNL     1      28.293 -23.271 -16.848  0.00  0.00    +0.314 C 
BRANCH  26  27
ATOM     27  O   UNL     1      28.555 -21.951 -17.034  0.00  0.00    -0.480 OA
ATOM     28  H   UNL     1      28.088 -21.307 -16.539  0.00  0.00    +0.295 HD
ENDBRANCH  26  27
ENDBRANCH  24  26
ENDBRANCH  23  24
ENDBRANCH  22  23
ENDBRANCH  21  22
ENDBRANCH  19  20
ENDBRANCH   2  19
TORSDOF 15
ENDMDL
MODEL 7
REMARK VINA RESULT:      -8.5      2.128      6.468
REMARK  Name = 448457
REMARK  15 active torsions:
REMARK  status: ('A' for Active; 'I' for Inactive)
REMARK    1  A    between atoms: C_2  and  C_19
REMARK    2  A    between atoms: C_3  and  C_9
REMARK    3  A    between atoms: C_4  and  O_7
REMARK    4  A    between atoms: C_10  and  C_11
REMARK    5  A    between atoms: C_11  and  O_12
REMARK    6  A    between atoms: C_11  and  C_14
REMARK    7  A    between atoms: C_14  and  C_15
REMARK    8  A    between atoms: C_15  and  C_16
REMARK    9  A    between atoms: C_16  and  C_17
REMARK   10  A    between atoms: C_19  and  C_20
REMARK   11  A    between atoms: C_21  and  C_22
REMARK   12  A    between atoms: C_22  and  C_23
REMARK   13  A    between atoms: C_23  and  C_24
REMARK   14  A    between atoms: C_24  and  C_26
REMARK   15  A    between atoms: C_26  and  O_27
REMARK                            x       y       z     vdW  Elec       q    Type
REMARK                         _______ _______ _______ _____ _____    ______ ____
ROOT
ATOM      1  O   UNL     1      37.518 -23.206 -16.104  0.00  0.00    -0.296 OA
ATOM      2  C   UNL     1      34.242 -23.224 -14.743  0.00  0.00    +0.043 C 
ATOM      3  C   UNL     1      35.109 -23.543 -15.977  0.00  0.00    +0.082 C 
ATOM      4  C   UNL     1      35.103 -23.688 -13.558  0.00  0.00    +0.119 C 
ATOM      5  C   UNL     1      36.511 -23.219 -13.914  0.00  0.00    +0.094 C 
ATOM      6  C   UNL     1      36.504 -23.309 -15.423  0.00  0.00    +0.157 C 
ENDROOT
BRANCH   4   7
ATOM      7  O   UNL     1      35.117 -25.106 -13.432  0.00  0.00    -0.384 OA
ATOM      8  H   UNL     1      35.078 -25.347 -12.493  0.00  0.00    +0.210 HD
ENDBRANCH   4   7
BRANCH   3   9
ATOM      9  C   UNL     1      34.837 -22.668 -17.150  0.00  0.00    -0.021 C 
ATOM     10  C   UNL     1      34.009 -22.999 -18.152  0.00  0.00    -0.002 C 
BRANCH  10  11
ATOM     11  C   UNL     1      33.739 -22.113 -19.335  0.00  0.00    +0.132 C 
BRANCH  11  12
ATOM     12  O   UNL     1      32.627 -21.273 -19.023  0.00  0.00    -0.380 OA
ATOM     13  H   UNL     1      31.854 -21.553 -19.538  0.00  0.00    +0.211 HD
ENDBRANCH  11  12
BRANCH  11  14
ATOM     14  C   UNL     1      34.924 -21.200 -19.679  0.00  0.00    +0.034 C 
BRANCH  14  15
ATOM     15  C   UNL     1      34.556 -20.072 -20.648  0.00  0.00    +0.003 C 
BRANCH  15  16
ATOM     16  C   UNL     1      35.738 -19.162 -21.000  0.00  0.00    +0.000 C 
BRANCH  16  17
ATOM     17  C   UNL     1      35.547 -18.393 -22.307  0.00  0.00    +0.000 C 
ATOM     18  C   UNL     1      34.884 -19.259 -23.367  0.00  0.00    +0.000 C 
ENDBRANCH  16  17
ENDBRANCH  15  16
ENDBRANCH  14  15
ENDBRANCH  11  14
ENDBRANCH  10  11
ENDBRANCH   3   9
BRANCH   2  19
ATOM     19  C   UNL     1      32.866 -23.878 -14.806  0.00  0.00    +0.029 C 
BRANCH  19  20
ATOM     20  C   UNL     1      31.777 -23.245 -13.987  0.00  0.00    -0.031 C 
ATOM     21  C   UNL     1      30.490 -23.620 -13.918  0.00  0.00    -0.031 C 
BRANCH  21  22
ATOM     22  C   UNL     1      29.920 -24.778 -14.684  0.00  0.00    +0.026 C 
BRANCH  22  23
ATOM     23  C   UNL     1      29.070 -24.360 -15.891  0.00  0.00    +0.016 C 
BRANCH  23  24
ATOM     24  C   UNL     1      28.545 -22.922 -15.813  0.00  0.00    +0.110 C 
BRANCH  24  26
ATOM     25  O   UNL     1      27.138 -21.436 -17.132  0.00  0.00    -0.250 OA
ATOM     26  C   UNL     1      27.665 -22.529 -16.980  0.00  0.00    +0.314 C 
BRANCH  26  27
ATOM     27  O   UNL     1      27.485 -23.562 -17.843  0.00  0.00    -0.480 OA
ATOM     28  H   UNL     1      26.720 -23.594 -18.383  0.00  0.00    +0.295 HD
ENDBRANCH  26  27
ENDBRANCH  24  26
ENDBRANCH  23  24
ENDBRANCH  22  23
ENDBRANCH  21  22
ENDBRANCH  19  20
ENDBRANCH   2  19
TORSDOF 15
ENDMDL
MODEL 8
REMARK VINA RESULT:      -8.4      6.000     10.552
REMARK  Name = 448457
REMARK  15 active torsions:
REMARK  status: ('A' for Active; 'I' for Inactive)
REMARK    1  A    between atoms: C_2  and  C_19
REMARK    2  A    between atoms: C_3  and  C_9
REMARK    3  A    between atoms: C_4  and  O_7
REMARK    4  A    between atoms: C_10  and  C_11
REMARK    5  A    between atoms: C_11  and  O_12
REMARK    6  A    between atoms: C_11  and  C_14
REMARK    7  A    between atoms: C_14  and  C_15
REMARK    8  A    between atoms: C_15  and  C_16
REMARK    9  A    between atoms: C_16  and  C_17
REMARK   10  A    between atoms: C_19  and  C_20
REMARK   11  A    between atoms: C_21  and  C_22
REMARK   12  A    between atoms: C_22  and  C_23
REMARK   13  A    between atoms: C_23  and  C_24
REMARK   14  A    between atoms: C_24  and  C_26
REMARK   15  A    between atoms: C_26  and  O_27
REMARK                            x       y       z     vdW  Elec       q    Type
REMARK                         _______ _______ _______ _____ _____    ______ ____
ROOT
ATOM      1  O   UNL     1      32.228 -12.899 -21.680  0.00  0.00    -0.296 OA
ATOM      2  C   UNL     1      33.893 -15.980 -22.243  0.00  0.00    +0.043 C 
ATOM      3  C   UNL     1      33.768 -14.505 -22.671  0.00  0.00    +0.082 C 
ATOM      4  C   UNL     1      33.783 -15.930 -20.712  0.00  0.00    +0.119 C 
ATOM      5  C   UNL     1      32.664 -14.925 -20.450  0.00  0.00    +0.094 C 
ATOM      6  C   UNL     1      32.814 -13.973 -21.615  0.00  0.00    +0.157 C 
ENDROOT
BRANCH   4   7
ATOM      7  O   UNL     1      34.977 -15.445 -20.107  0.00  0.00    -0.384 OA
ATOM      8  H   UNL     1      34.803 -15.225 -19.179  0.00  0.00    +0.210 HD
ENDBRANCH   4   7
BRANCH   3   9
ATOM      9  C   UNL     1      33.219 -14.317 -24.041  0.00  0.00    -0.021 C 
ATOM     10  C   UNL     1      33.826 -14.753 -25.155  0.00  0.00    -0.002 C 
BRANCH  10  11
ATOM     11  C   UNL     1      33.268 -14.560 -26.537  0.00  0.00    +0.132 C 
BRANCH  11  12
ATOM     12  O   UNL     1      32.036 -15.277 -26.629  0.00  0.00    -0.380 OA
ATOM     13  H   UNL     1      31.991 -15.936 -25.919  0.00  0.00    +0.211 HD
ENDBRANCH  11  12
BRANCH  11  14
ATOM     14  C   UNL     1      32.970 -13.089 -26.859  0.00  0.00    +0.034 C 
BRANCH  14  15
ATOM     15  C   UNL     1      34.191 -12.178 -26.710  0.00  0.00    +0.003 C 
BRANCH  15  16
ATOM     16  C   UNL     1      34.135 -11.284 -25.467  0.00  0.00    +0.000 C 
BRANCH  16  17
ATOM     17  C   UNL     1      35.246 -10.234 -25.420  0.00  0.00    +0.000 C 
ATOM     18  C   UNL     1      34.984  -9.199 -24.337  0.00  0.00    +0.000 C 
ENDBRANCH  16  17
ENDBRANCH  15  16
ENDBRANCH  14  15
ENDBRANCH  11  14
ENDBRANCH  10  11
ENDBRANCH   3   9
BRANCH   2  19
ATOM     19  C   UNL     1      35.171 -16.635 -22.755  0.00  0.00    +0.029 C 
BRANCH  19  20
ATOM     20  C   UNL     1      35.042 -18.017 -23.330  0.00  0.00    -0.031 C 
ATOM     21  C   UNL     1      35.035 -19.179 -22.658  0.00  0.00    -0.031 C 
BRANCH  21  22
ATOM     22  C   UNL     1      35.160 -19.276 -21.166  0.00  0.00    +0.026 C 
BRANCH  22  23
ATOM     23  C   UNL     1      34.082 -20.151 -20.513  0.00  0.00    +0.016 C 
BRANCH  23  24
ATOM     24  C   UNL     1      34.642 -21.295 -19.661  0.00  0.00    +0.110 C 
BRANCH  24  26
ATOM     25  O   UNL     1      32.526 -22.035 -18.711  0.00  0.00    -0.250 OA
ATOM     26  C   UNL     1      33.600 -22.305 -19.232  0.00  0.00    +0.314 C 
BRANCH  26  27
ATOM     27  O   UNL     1      34.013 -23.579 -19.457  0.00  0.00    -0.480 OA
ATOM     28  H   UNL     1      34.790 -23.900 -19.042  0.00  0.00    +0.295 HD
ENDBRANCH  26  27
ENDBRANCH  24  26
ENDBRANCH  23  24
ENDBRANCH  22  23
ENDBRANCH  21  22
ENDBRANCH  19  20
ENDBRANCH   2  19
TORSDOF 15
ENDMDL
MODEL 9
REMARK VINA RESULT:      -8.4      8.556     13.854
REMARK  Name = 448457
REMARK  15 active torsions:
REMARK  status: ('A' for Active; 'I' for Inactive)
REMARK    1  A    between atoms: C_2  and  C_19
REMARK    2  A    between atoms: C_3  and  C_9
REMARK    3  A    between atoms: C_4  and  O_7
REMARK    4  A    between atoms: C_10  and  C_11
REMARK    5  A    between atoms: C_11  and  O_12
REMARK    6  A    between atoms: C_11  and  C_14
REMARK    7  A    between atoms: C_14  and  C_15
REMARK    8  A    between atoms: C_15  and  C_16
REMARK    9  A    between atoms: C_16  and  C_17
REMARK   10  A    between atoms: C_19  and  C_20
REMARK   11  A    between atoms: C_21  and  C_22
REMARK   12  A    between atoms: C_22  and  C_23
REMARK   13  A    between atoms: C_23  and  C_24
REMARK   14  A    between atoms: C_24  and  C_26
REMARK   15  A    between atoms: C_26  and  O_27
REMARK                            x       y       z     vdW  Elec       q    Type
REMARK                         _______ _______ _______ _____ _____    ______ ____
ROOT
ATOM      1  O   UNL     1      32.014 -15.123 -21.348  0.00  0.00    -0.296 OA
ATOM      2  C   UNL     1      33.291 -12.239 -22.974  0.00  0.00    +0.043 C 
ATOM      3  C   UNL     1      32.841 -13.703 -23.147  0.00  0.00    +0.082 C 
ATOM      4  C   UNL     1      32.259 -11.650 -22.001  0.00  0.00    +0.119 C 
ATOM      5  C   UNL     1      32.063 -12.745 -20.955  0.00  0.00    +0.094 C 
ATOM      6  C   UNL     1      32.276 -14.001 -21.768  0.00  0.00    +0.157 C 
ENDROOT
BRANCH   4   7
ATOM      7  O   UNL     1      31.008 -11.401 -22.635  0.00  0.00    -0.384 OA
ATOM      8  H   UNL     1      30.296 -11.465 -21.981  0.00  0.00    +0.210 HD
ENDBRANCH   4   7
BRANCH   3   9
ATOM      9  C   UNL     1      33.946 -14.638 -23.494  0.00  0.00    -0.021 C 
ATOM     10  C   UNL     1      33.770 -15.782 -24.173  0.00  0.00    -0.002 C 
BRANCH  10  11
ATOM     11  C   UNL     1      34.888 -16.724 -24.520  0.00  0.00    +0.132 C 
BRANCH  11  12
ATOM     12  O   UNL     1      36.033 -16.368 -23.743  0.00  0.00    -0.380 OA
ATOM     13  H   UNL     1      36.170 -17.029 -23.046  0.00  0.00    +0.211 HD
ENDBRANCH  11  12
BRANCH  11  14
ATOM     14  C   UNL     1      34.555 -18.188 -24.203  0.00  0.00    +0.034 C 
BRANCH  14  15
ATOM     15  C   UNL     1      35.275 -18.716 -22.960  0.00  0.00    +0.003 C 
BRANCH  15  16
ATOM     16  C   UNL     1      34.489 -18.497 -21.662  0.00  0.00    +0.000 C 
BRANCH  16  17
ATOM     17  C   UNL     1      34.279 -19.778 -20.853  0.00  0.00    +0.000 C 
ATOM     18  C   UNL     1      32.800 -20.085 -20.676  0.00  0.00    +0.000 C 
ENDBRANCH  16  17
ENDBRANCH  15  16
ENDBRANCH  14  15
ENDBRANCH  11  14
ENDBRANCH  10  11
ENDBRANCH   3   9
BRANCH   2  19
ATOM     19  C   UNL     1      33.393 -11.494 -24.300  0.00  0.00    +0.029 C 
BRANCH  19  20
ATOM     20  C   UNL     1      34.547 -10.544 -24.457  0.00  0.00    -0.031 C 
ATOM     21  C   UNL     1      34.545  -9.221 -24.236  0.00  0.00    -0.031 C 
BRANCH  21  22
ATOM     22  C   UNL     1      33.338  -8.457 -23.777  0.00  0.00    +0.026 C 
BRANCH  22  23
ATOM     23  C   UNL     1      33.494  -7.835 -22.383  0.00  0.00    +0.016 C 
BRANCH  23  24
ATOM     24  C   UNL     1      32.225  -7.900 -21.528  0.00  0.00    +0.110 C 
BRANCH  24  26
ATOM     25  O   UNL     1      32.121  -9.191 -19.466  0.00  0.00    -0.250 OA
ATOM     26  C   UNL     1      32.487  -8.190 -20.066  0.00  0.00    +0.314 C 
BRANCH  26  27
ATOM     27  O   UNL     1      33.156  -7.172 -19.465  0.00  0.00    -0.480 OA
ATOM     28  H   UNL     1      34.066  -7.265 -19.262  0.00  0.00    +0.295 HD
ENDBRANCH  26  27
ENDBRANCH  24  26
ENDBRANCH  23  24
ENDBRANCH  22  23
ENDBRANCH  21  22
ENDBRANCH  19  20
ENDBRANCH   2  19
TORSDOF 15
ENDMDL
