MODEL 1
REMARK VINA RESULT:      -6.6      0.000      0.000
REMARK  Name = 798
REMARK  0 active torsions:
REMARK  status: ('A' for Active; 'I' for Inactive)
REMARK                            x       y       z     vdW  Elec       q    Type
REMARK                         _______ _______ _______ _____ _____    ______ ____
ROOT
ATOM      1  N   UNL     1      32.710 -21.927 -18.945  0.00  0.00    -0.312 N 
ATOM      2  C   UNL     1      33.381 -21.039 -19.755  0.00  0.00    +0.048 C 
ATOM      3  C   UNL     1      34.746 -21.297 -19.605  0.00  0.00    +0.015 C 
ATOM      4  C   UNL     1      34.868 -22.369 -18.678  0.00  0.00    +0.017 C 
ATOM      5  C   UNL     1      32.890 -20.038 -20.600  0.00  0.00    +0.015 C 
ATOM      6  C   UNL     1      35.667 -20.518 -20.334  0.00  0.00    +0.001 C 
ATOM      7  C   UNL     1      33.599 -22.735 -18.290  0.00  0.00    +0.062 C 
ATOM      8  C   UNL     1      33.822 -19.278 -21.312  0.00  0.00    +0.001 C 
ATOM      9  C   UNL     1      35.190 -19.513 -21.183  0.00  0.00    +0.000 C 
ATOM     10  H   UNL     1      31.730 -21.974 -18.850  0.00  0.00    +0.152 HD
ENDROOT
TORSDOF 0
ENDMDL
MODEL 2
REMARK VINA RESULT:      -6.5      1.871      3.846
REMARK  Name = 798
REMARK  0 active torsions:
REMARK  status: ('A' for Active; 'I' for Inactive)
REMARK                            x       y       z     vdW  Elec       q    Type
REMARK                         _______ _______ _______ _____ _____    ______ ____
ROOT
ATOM      1  N   UNL     1      36.446 -19.217 -20.823  0.00  0.00    -0.312 N 
ATOM      2  C   UNL     1      35.597 -20.165 -20.299  0.00  0.00    +0.048 C 
ATOM      3  C   UNL     1      34.296 -19.789 -20.644  0.00  0.00    +0.015 C 
ATOM      4  C   UNL     1      34.396 -18.582 -21.393  0.00  0.00    +0.017 C 
ATOM      5  C   UNL     1      35.876 -21.316 -19.554  0.00  0.00    +0.015 C 
ATOM      6  C   UNL     1      33.222 -20.599 -20.226  0.00  0.00    +0.001 C 
ATOM      7  C   UNL     1      35.730 -18.257 -21.486  0.00  0.00    +0.062 C 
ATOM      8  C   UNL     1      34.795 -22.103 -19.150  0.00  0.00    +0.001 C 
ATOM      9  C   UNL     1      33.487 -21.752 -19.480  0.00  0.00    +0.000 C 
ATOM     10  H   UNL     1      37.427 -19.228 -20.734  0.00  0.00    +0.152 HD
ENDROOT
TORSDOF 0
ENDMDL
MODEL 3
REMARK VINA RESULT:      -6.3      1.753      3.373
REMARK  Name = 798
REMARK  0 active torsions:
REMARK  status: ('A' for Active; 'I' for Inactive)
REMARK                            x       y       z     vdW  Elec       q    Type
REMARK                         _______ _______ _______ _____ _____    ______ ____
ROOT
ATOM      1  N   UNL     1      34.333 -18.512 -21.440  0.00  0.00    -0.312 N 
ATOM      2  C   UNL     1      34.281 -19.682 -20.718  0.00  0.00    +0.048 C 
ATOM      3  C   UNL     1      35.600 -20.071 -20.468  0.00  0.00    +0.015 C 
ATOM      4  C   UNL     1      36.443 -19.093 -21.065  0.00  0.00    +0.017 C 
ATOM      5  C   UNL     1      33.180 -20.420 -20.270  0.00  0.00    +0.015 C 
ATOM      6  C   UNL     1      35.831 -21.253 -19.737  0.00  0.00    +0.001 C 
ATOM      7  C   UNL     1      35.635 -18.147 -21.655  0.00  0.00    +0.062 C 
ATOM      8  C   UNL     1      33.434 -21.589 -19.547  0.00  0.00    +0.001 C 
ATOM      9  C   UNL     1      34.739 -22.001 -19.283  0.00  0.00    +0.000 C 
ATOM     10  H   UNL     1      33.547 -18.009 -21.756  0.00  0.00    +0.152 HD
ENDROOT
TORSDOF 0
ENDMDL
MODEL 4
REMARK VINA RESULT:      -6.1      1.261      2.212
REMARK  Name = 798
REMARK  0 active torsions:
REMARK  status: ('A' for Active; 'I' for Inactive)
REMARK                            x       y       z     vdW  Elec       q    Type
REMARK                         _______ _______ _______ _____ _____    ______ ____
ROOT
ATOM      1  N   UNL     1      35.626 -21.823 -19.248  0.00  0.00    -0.312 N 
ATOM      2  C   UNL     1      35.483 -20.689 -20.013  0.00  0.00    +0.048 C 
ATOM      3  C   UNL     1      34.113 -20.496 -20.212  0.00  0.00    +0.015 C 
ATOM      4  C   UNL     1      33.442 -21.555 -19.538  0.00  0.00    +0.017 C 
ATOM      5  C   UNL     1      36.449 -19.826 -20.541  0.00  0.00    +0.015 C 
ATOM      6  C   UNL     1      33.687 -19.390 -20.973  0.00  0.00    +0.001 C 
ATOM      7  C   UNL     1      34.399 -22.354 -18.955  0.00  0.00    +0.062 C 
ATOM      8  C   UNL     1      36.003 -18.735 -21.292  0.00  0.00    +0.001 C 
ATOM      9  C   UNL     1      34.642 -18.519 -21.506  0.00  0.00    +0.000 C 
ATOM     10  H   UNL     1      36.488 -22.199 -18.953  0.00  0.00    +0.152 HD
ENDROOT
TORSDOF 0
ENDMDL
MODEL 5
REMARK VINA RESULT:      -5.9      3.746      5.248
REMARK  Name = 798
REMARK  0 active torsions:
REMARK  status: ('A' for Active; 'I' for Inactive)
REMARK                            x       y       z     vdW  Elec       q    Type
REMARK                         _______ _______ _______ _____ _____    ______ ____
ROOT
ATOM      1  N   UNL     1      35.409 -17.970 -20.707  0.00  0.00    -0.312 N 
ATOM      2  C   UNL     1      35.028 -16.799 -21.321  0.00  0.00    +0.048 C 
ATOM      3  C   UNL     1      35.216 -16.974 -22.695  0.00  0.00    +0.015 C 
ATOM      4  C   UNL     1      35.723 -18.291 -22.881  0.00  0.00    +0.017 C 
ATOM      5  C   UNL     1      34.536 -15.609 -20.774  0.00  0.00    +0.015 C 
ATOM      6  C   UNL     1      34.899 -15.912 -23.564  0.00  0.00    +0.001 C 
ATOM      7  C   UNL     1      35.830 -18.878 -21.641  0.00  0.00    +0.062 C 
ATOM      8  C   UNL     1      34.228 -14.569 -21.655  0.00  0.00    +0.001 C 
ATOM      9  C   UNL     1      34.406 -14.716 -23.030  0.00  0.00    +0.000 C 
ATOM     10  H   UNL     1      35.382 -18.131 -19.736  0.00  0.00    +0.152 HD
ENDROOT
TORSDOF 0
ENDMDL
MODEL 6
REMARK VINA RESULT:      -5.9      4.096      5.375
REMARK  Name = 798
REMARK  0 active torsions:
REMARK  status: ('A' for Active; 'I' for Inactive)
REMARK                            x       y       z     vdW  Elec       q    Type
REMARK                         _______ _______ _______ _____ _____    ______ ____
ROOT
ATOM      1  N   UNL     1      34.948 -17.441 -20.926  0.00  0.00    -0.312 N 
ATOM      2  C   UNL     1      34.855 -17.804 -22.250  0.00  0.00    +0.048 C 
ATOM      3  C   UNL     1      34.633 -16.635 -22.983  0.00  0.00    +0.015 C 
ATOM      4  C   UNL     1      34.596 -15.560 -22.051  0.00  0.00    +0.017 C 
ATOM      5  C   UNL     1      34.950 -19.064 -22.852  0.00  0.00    +0.015 C 
ATOM      6  C   UNL     1      34.499 -16.727 -24.382  0.00  0.00    +0.001 C 
ATOM      7  C   UNL     1      34.793 -16.088 -20.795  0.00  0.00    +0.062 C 
ATOM      8  C   UNL     1      34.813 -19.130 -24.241  0.00  0.00    +0.001 C 
ATOM      9  C   UNL     1      34.591 -17.980 -24.997  0.00  0.00    +0.000 C 
ATOM     10  H   UNL     1      35.104 -18.066 -20.180  0.00  0.00    +0.152 HD
ENDROOT
TORSDOF 0
ENDMDL
MODEL 7
REMARK VINA RESULT:      -5.9     10.528     12.195
REMARK  Name = 798
REMARK  0 active torsions:
REMARK  status: ('A' for Active; 'I' for Inactive)
REMARK                            x       y       z     vdW  Elec       q    Type
REMARK                         _______ _______ _______ _____ _____    ______ ____
ROOT
ATOM      1  N   UNL     1      32.549  -7.952 -19.558  0.00  0.00    -0.312 N 
ATOM      2  C   UNL     1      32.117  -9.209 -19.916  0.00  0.00    +0.048 C 
ATOM      3  C   UNL     1      31.914  -9.196 -21.299  0.00  0.00    +0.015 C 
ATOM      4  C   UNL     1      32.239  -7.888 -21.755  0.00  0.00    +0.017 C 
ATOM      5  C   UNL     1      31.893 -10.346 -19.132  0.00  0.00    +0.015 C 
ATOM      6  C   UNL     1      31.466 -10.373 -21.929  0.00  0.00    +0.001 C 
ATOM      7  C   UNL     1      32.626  -7.147 -20.662  0.00  0.00    +0.062 C 
ATOM      8  C   UNL     1      31.448 -11.502 -19.779  0.00  0.00    +0.001 C 
ATOM      9  C   UNL     1      31.237 -11.518 -21.157  0.00  0.00    +0.000 C 
ATOM     10  H   UNL     1      32.770  -7.673 -18.639  0.00  0.00    +0.152 HD
ENDROOT
TORSDOF 0
ENDMDL
MODEL 8
REMARK VINA RESULT:      -5.9      4.106      5.534
REMARK  Name = 798
REMARK  0 active torsions:
REMARK  status: ('A' for Active; 'I' for Inactive)
REMARK                            x       y       z     vdW  Elec       q    Type
REMARK                         _______ _______ _______ _____ _____    ______ ____
ROOT
ATOM      1  N   UNL     1      34.704 -15.297 -22.967  0.00  0.00    -0.312 N 
ATOM      2  C   UNL     1      34.787 -16.670 -22.919  0.00  0.00    +0.048 C 
ATOM      3  C   UNL     1      34.684 -17.043 -21.577  0.00  0.00    +0.015 C 
ATOM      4  C   UNL     1      34.536 -15.845 -20.822  0.00  0.00    +0.017 C 
ATOM      5  C   UNL     1      34.944 -17.603 -23.951  0.00  0.00    +0.015 C 
ATOM      6  C   UNL     1      34.740 -18.411 -21.246  0.00  0.00    +0.001 C 
ATOM      7  C   UNL     1      34.552 -14.789 -21.705  0.00  0.00    +0.062 C 
ATOM      8  C   UNL     1      34.997 -18.954 -23.599  0.00  0.00    +0.001 C 
ATOM      9  C   UNL     1      34.897 -19.355 -22.267  0.00  0.00    +0.000 C 
ATOM     10  H   UNL     1      34.747 -14.758 -23.790  0.00  0.00    +0.152 HD
ENDROOT
TORSDOF 0
ENDMDL
MODEL 9
REMARK VINA RESULT:      -5.8      4.612      5.617
REMARK  Name = 798
REMARK  0 active torsions:
REMARK  status: ('A' for Active; 'I' for Inactive)
REMARK                            x       y       z     vdW  Elec       q    Type
REMARK                         _______ _______ _______ _____ _____    ______ ____
ROOT
ATOM      1  N   UNL     1      34.571 -15.191 -22.450  0.00  0.00    -0.312 N 
ATOM      2  C   UNL     1      34.613 -16.345 -23.198  0.00  0.00    +0.048 C 
ATOM      3  C   UNL     1      34.777 -17.408 -22.306  0.00  0.00    +0.015 C 
ATOM      4  C   UNL     1      34.831 -16.850 -20.998  0.00  0.00    +0.017 C 
ATOM      5  C   UNL     1      34.520 -16.529 -24.582  0.00  0.00    +0.015 C 
ATOM      6  C   UNL     1      34.851 -18.718 -22.819  0.00  0.00    +0.001 C 
ATOM      7  C   UNL     1      34.702 -15.485 -21.119  0.00  0.00    +0.062 C 
ATOM      8  C   UNL     1      34.596 -17.837 -25.067  0.00  0.00    +0.001 C 
ATOM      9  C   UNL     1      34.760 -18.917 -24.201  0.00  0.00    +0.000 C 
ATOM     10  H   UNL     1      34.462 -14.283 -22.818  0.00  0.00    +0.152 HD
ENDROOT
TORSDOF 0
ENDMDL
