MODEL 1
REMARK VINA RESULT:      -9.4      0.000      0.000
REMARK  Name = 158795
REMARK  6 active torsions:
REMARK  status: ('A' for Active; 'I' for Inactive)
REMARK    1  A    between atoms: N_1  and  C1*_11
REMARK    2  A    between atoms: C2*_12  and  O2*_15
REMARK    3  A    between atoms: C3*_13  and  O3*_17
REMARK    4  A    between atoms: C4*_14  and  C5*_19
REMARK    5  A    between atoms: C5*_19  and  O5*_20
REMARK    6  A    between atoms: N_22  and  C_25
REMARK                            x       y       z     vdW  Elec       q    Type
REMARK                         _______ _______ _______ _____ _____    ______ ____
ROOT
ATOM      1  N   UNL     1      36.450 -22.897 -15.955  0.00  0.00    -0.247 N 
ATOM      2  N   UNL     1      37.044 -21.411 -17.509  0.00  0.00    -0.242 NA
ATOM      3  N   UNL     1      34.274 -23.551 -16.818  0.00  0.00    -0.228 NA
ATOM      4  N   UNL     1      33.742 -22.360 -18.880  0.00  0.00    -0.228 NA
ATOM      5  C   UNL     1      35.418 -22.852 -16.852  0.00  0.00    +0.152 C 
ATOM      6  C   UNL     1      35.806 -21.925 -17.806  0.00  0.00    +0.140 C 
ATOM      7  C   UNL     1      37.401 -22.014 -16.395  0.00  0.00    +0.223 C 
ATOM      8  C   UNL     1      34.918 -21.688 -18.850  0.00  0.00    +0.146 C 
ATOM      9  C   UNL     1      33.497 -23.237 -17.877  0.00  0.00    +0.253 C 
ATOM     10  N   UNL     1      35.230 -20.766 -19.864  0.00  0.00    -0.316 N 
ATOM     11  H   UNL     1      36.092 -20.292 -19.817  0.00  0.00    +0.148 HD
ENDROOT
BRANCH   1  13
ATOM     12  O4* UNL     1      37.818 -23.546 -14.129  0.00  0.00    -0.333 OA
ATOM     13  C1* UNL     1      36.532 -23.726 -14.755  0.00  0.00    +0.225 C 
ATOM     14  C2* UNL     1      36.396 -25.218 -15.020  0.00  0.00    +0.187 C 
ATOM     15  C3* UNL     1      37.125 -25.804 -13.828  0.00  0.00    +0.171 C 
ATOM     16  C4* UNL     1      38.282 -24.826 -13.640  0.00  0.00    +0.175 C 
BRANCH  14  17
ATOM     17  O2* UNL     1      35.042 -25.618 -15.092  0.00  0.00    -0.378 OA
ATOM     18  H2* UNL     1      34.692 -25.736 -14.195  0.00  0.00    +0.211 HD
ENDBRANCH  14  17
BRANCH  15  19
ATOM     19  O3* UNL     1      36.283 -25.744 -12.677  0.00  0.00    -0.379 OA
ATOM     20  H3* UNL     1      35.550 -26.373 -12.781  0.00  0.00    +0.211 HD
ENDBRANCH  15  19
BRANCH  16  21
ATOM     21  C5* UNL     1      39.524 -25.219 -14.429  0.00  0.00    +0.169 C 
BRANCH  21  22
ATOM     22  O5* UNL     1      39.532 -26.626 -14.591  0.00  0.00    -0.379 OA
ATOM     23  H5* UNL     1      38.826 -26.885 -15.203  0.00  0.00    +0.211 HD
ENDBRANCH  21  22
ENDBRANCH  16  21
ENDBRANCH   1  13
BRANCH  10  25
ATOM     24  O   UNL     1      33.841 -18.164 -20.809  0.00  0.00    -0.352 OA
ATOM     25  C   UNL     1      34.345 -20.480 -20.972  0.00  0.00    +0.103 C 
ATOM     26  C   UNL     1      35.088 -19.744 -22.061  0.00  0.00    +0.054 C 
ATOM     27  C   UNL     1      33.291 -19.468 -20.564  0.00  0.00    +0.162 C 
ATOM     28  C   UNL     1      35.037 -18.305 -21.586  0.00  0.00    +0.144 C 
ENDBRANCH  10  25
TORSDOF 6
ENDMDL
MODEL 2
REMARK VINA RESULT:      -9.1      3.741      5.215
REMARK  Name = 158795
REMARK  6 active torsions:
REMARK  status: ('A' for Active; 'I' for Inactive)
REMARK    1  A    between atoms: N_1  and  C1*_11
REMARK    2  A    between atoms: C2*_12  and  O2*_15
REMARK    3  A    between atoms: C3*_13  and  O3*_17
REMARK    4  A    between atoms: C4*_14  and  C5*_19
REMARK    5  A    between atoms: C5*_19  and  O5*_20
REMARK    6  A    between atoms: N_22  and  C_25
REMARK                            x       y       z     vdW  Elec       q    Type
REMARK                         _______ _______ _______ _____ _____    ______ ____
ROOT
ATOM      1  N   UNL     1      34.600 -23.566 -15.370  0.00  0.00    -0.247 N 
ATOM      2  N   UNL     1      33.002 -23.062 -16.843  0.00  0.00    -0.242 NA
ATOM      3  N   UNL     1      33.229 -24.345 -13.522  0.00  0.00    -0.228 NA
ATOM      4  N   UNL     1      30.853 -24.235 -14.070  0.00  0.00    -0.228 NA
ATOM      5  C   UNL     1      33.413 -23.856 -14.758  0.00  0.00    +0.152 C 
ATOM      6  C   UNL     1      32.435 -23.537 -15.687  0.00  0.00    +0.140 C 
ATOM      7  C   UNL     1      34.299 -23.092 -16.621  0.00  0.00    +0.223 C 
ATOM      8  C   UNL     1      31.114 -23.744 -15.305  0.00  0.00    +0.146 C 
ATOM      9  C   UNL     1      31.911 -24.502 -13.267  0.00  0.00    +0.253 C 
ATOM     10  N   UNL     1      30.058 -23.449 -16.185  0.00  0.00    -0.316 N 
ATOM     11  H   UNL     1      30.276 -23.094 -17.077  0.00  0.00    +0.148 HD
ENDROOT
BRANCH   1  13
ATOM     12  O4* UNL     1      36.697 -24.647 -15.617  0.00  0.00    -0.333 OA
ATOM     13  C1* UNL     1      35.939 -23.727 -14.809  0.00  0.00    +0.225 C 
ATOM     14  C2* UNL     1      35.956 -24.292 -13.397  0.00  0.00    +0.187 C 
ATOM     15  C3* UNL     1      37.333 -24.921 -13.340  0.00  0.00    +0.171 C 
ATOM     16  C4* UNL     1      37.490 -25.488 -14.748  0.00  0.00    +0.175 C 
BRANCH  14  17
ATOM     17  O2* UNL     1      35.769 -23.284 -12.424  0.00  0.00    -0.378 OA
ATOM     18  H2* UNL     1      35.020 -23.520 -11.853  0.00  0.00    +0.211 HD
ENDBRANCH  14  17
BRANCH  15  19
ATOM     19  O3* UNL     1      38.315 -23.904 -13.143  0.00  0.00    -0.379 OA
ATOM     20  H3* UNL     1      37.873 -23.061 -12.956  0.00  0.00    +0.211 HD
ENDBRANCH  15  19
BRANCH  16  21
ATOM     21  C5* UNL     1      36.983 -26.919 -14.872  0.00  0.00    +0.169 C 
BRANCH  21  22
ATOM     22  O5* UNL     1      36.805 -27.219 -16.245  0.00  0.00    -0.379 OA
ATOM     23  H5* UNL     1      37.314 -28.013 -16.472  0.00  0.00    +0.211 HD
ENDBRANCH  21  22
ENDBRANCH  16  21
ENDBRANCH   1  13
BRANCH  10  25
ATOM     24  O   UNL     1      27.532 -21.718 -16.649  0.00  0.00    -0.352 OA
ATOM     25  C   UNL     1      28.666 -23.645 -15.843  0.00  0.00    +0.103 C 
ATOM     26  C   UNL     1      27.872 -24.026 -17.069  0.00  0.00    +0.054 C 
ATOM     27  C   UNL     1      28.026 -22.327 -15.445  0.00  0.00    +0.162 C 
ATOM     28  C   UNL     1      27.577 -22.683 -17.707  0.00  0.00    +0.144 C 
ENDBRANCH  10  25
TORSDOF 6
ENDMDL
MODEL 3
REMARK VINA RESULT:      -8.8      3.652      5.097
REMARK  Name = 158795
REMARK  6 active torsions:
REMARK  status: ('A' for Active; 'I' for Inactive)
REMARK    1  A    between atoms: N_1  and  C1*_11
REMARK    2  A    between atoms: C2*_12  and  O2*_15
REMARK    3  A    between atoms: C3*_13  and  O3*_17
REMARK    4  A    between atoms: C4*_14  and  C5*_19
REMARK    5  A    between atoms: C5*_19  and  O5*_20
REMARK    6  A    between atoms: N_22  and  C_25
REMARK                            x       y       z     vdW  Elec       q    Type
REMARK                         _______ _______ _______ _____ _____    ______ ____
ROOT
ATOM      1  N   UNL     1      35.051 -23.922 -13.698  0.00  0.00    -0.247 N 
ATOM      2  N   UNL     1      32.870 -24.189 -13.311  0.00  0.00    -0.242 NA
ATOM      3  N   UNL     1      34.984 -23.341 -16.056  0.00  0.00    -0.228 NA
ATOM      4  N   UNL     1      32.694 -23.310 -16.899  0.00  0.00    -0.228 NA
ATOM      5  C   UNL     1      34.420 -23.676 -14.886  0.00  0.00    +0.152 C 
ATOM      6  C   UNL     1      33.070 -23.846 -14.625  0.00  0.00    +0.140 C 
ATOM      7  C   UNL     1      34.076 -24.226 -12.783  0.00  0.00    +0.223 C 
ATOM      8  C   UNL     1      32.194 -23.650 -15.687  0.00  0.00    +0.146 C 
ATOM      9  C   UNL     1      34.039 -23.179 -17.007  0.00  0.00    +0.253 C 
ATOM     10  N   UNL     1      30.808 -23.800 -15.512  0.00  0.00    -0.316 N 
ATOM     11  H   UNL     1      30.472 -24.048 -14.621  0.00  0.00    +0.148 HD
ENDROOT
BRANCH   1  13
ATOM     12  O4* UNL     1      37.205 -24.327 -14.605  0.00  0.00    -0.333 OA
ATOM     13  C1* UNL     1      36.488 -23.872 -13.441  0.00  0.00    +0.225 C 
ATOM     14  C2* UNL     1      36.943 -24.759 -12.291  0.00  0.00    +0.187 C 
ATOM     15  C3* UNL     1      38.392 -25.006 -12.657  0.00  0.00    +0.171 C 
ATOM     16  C4* UNL     1      38.329 -25.131 -14.176  0.00  0.00    +0.175 C 
BRANCH  14  17
ATOM     17  O2* UNL     1      36.789 -24.119 -11.040  0.00  0.00    -0.378 OA
ATOM     18  H2* UNL     1      36.563 -23.186 -11.181  0.00  0.00    +0.211 HD
ENDBRANCH  14  17
BRANCH  15  19
ATOM     19  O3* UNL     1      39.172 -23.858 -12.323  0.00  0.00    -0.379 OA
ATOM     20  H3* UNL     1      39.763 -23.643 -13.061  0.00  0.00    +0.211 HD
ENDBRANCH  15  19
BRANCH  16  21
ATOM     21  C5* UNL     1      38.100 -26.562 -14.645  0.00  0.00    +0.169 C 
BRANCH  21  22
ATOM     22  O5* UNL     1      37.263 -26.536 -15.788  0.00  0.00    -0.379 OA
ATOM     23  H5* UNL     1      36.397 -26.173 -15.547  0.00  0.00    +0.211 HD
ENDBRANCH  21  22
ENDBRANCH  16  21
ENDBRANCH   1  13
BRANCH  10  25
ATOM     24  O   UNL     1      27.712 -23.700 -15.549  0.00  0.00    -0.352 OA
ATOM     25  C   UNL     1      29.851 -23.609 -16.581  0.00  0.00    +0.103 C 
ATOM     26  C   UNL     1      29.278 -22.213 -16.528  0.00  0.00    +0.054 C 
ATOM     27  C   UNL     1      28.621 -24.468 -16.353  0.00  0.00    +0.162 C 
ATOM     28  C   UNL     1      28.174 -22.344 -15.497  0.00  0.00    +0.144 C 
ENDBRANCH  10  25
TORSDOF 6
ENDMDL
MODEL 4
REMARK VINA RESULT:      -8.6      4.333     10.707
REMARK  Name = 158795
REMARK  6 active torsions:
REMARK  status: ('A' for Active; 'I' for Inactive)
REMARK    1  A    between atoms: N_1  and  C1*_11
REMARK    2  A    between atoms: C2*_12  and  O2*_15
REMARK    3  A    between atoms: C3*_13  and  O3*_17
REMARK    4  A    between atoms: C4*_14  and  C5*_19
REMARK    5  A    between atoms: C5*_19  and  O5*_20
REMARK    6  A    between atoms: N_22  and  C_25
REMARK                            x       y       z     vdW  Elec       q    Type
REMARK                         _______ _______ _______ _____ _____    ______ ____
ROOT
ATOM      1  N   UNL     1      34.684 -15.733 -22.343  0.00  0.00    -0.247 N 
ATOM      2  N   UNL     1      35.006 -16.794 -20.407  0.00  0.00    -0.242 NA
ATOM      3  N   UNL     1      34.911 -17.599 -23.881  0.00  0.00    -0.228 NA
ATOM      4  N   UNL     1      35.364 -19.682 -22.691  0.00  0.00    -0.228 NA
ATOM      5  C   UNL     1      34.896 -17.046 -22.660  0.00  0.00    +0.152 C 
ATOM      6  C   UNL     1      35.093 -17.686 -21.447  0.00  0.00    +0.140 C 
ATOM      7  C   UNL     1      34.760 -15.633 -20.977  0.00  0.00    +0.223 C 
ATOM      8  C   UNL     1      35.334 -19.056 -21.490  0.00  0.00    +0.146 C 
ATOM      9  C   UNL     1      35.153 -18.926 -23.796  0.00  0.00    +0.253 C 
ATOM     10  N   UNL     1      35.543 -19.786 -20.308  0.00  0.00    -0.316 N 
ATOM     11  H   UNL     1      35.515 -19.306 -19.449  0.00  0.00    +0.148 HD
ENDROOT
BRANCH   1  13
ATOM     12  O4* UNL     1      34.175 -13.424 -22.536  0.00  0.00    -0.333 OA
ATOM     13  C1* UNL     1      34.424 -14.637 -23.273  0.00  0.00    +0.225 C 
ATOM     14  C2* UNL     1      33.206 -14.851 -24.159  0.00  0.00    +0.187 C 
ATOM     15  C3* UNL     1      32.825 -13.423 -24.496  0.00  0.00    +0.171 C 
ATOM     16  C4* UNL     1      33.111 -12.692 -23.188  0.00  0.00    +0.175 C 
BRANCH  14  17
ATOM     17  O2* UNL     1      33.516 -15.625 -25.301  0.00  0.00    -0.378 OA
ATOM     18  H2* UNL     1      32.931 -15.370 -26.032  0.00  0.00    +0.211 HD
ENDBRANCH  14  17
BRANCH  15  19
ATOM     19  O3* UNL     1      33.700 -12.921 -25.505  0.00  0.00    -0.379 OA
ATOM     20  H3* UNL     1      34.619 -13.001 -25.204  0.00  0.00    +0.211 HD
ENDBRANCH  15  19
BRANCH  16  21
ATOM     21  C5* UNL     1      31.911 -12.655 -22.253  0.00  0.00    +0.169 C 
BRANCH  21  22
ATOM     22  O5* UNL     1      32.322 -13.095 -20.970  0.00  0.00    -0.379 OA
ATOM     23  H5* UNL     1      32.915 -13.857 -21.064  0.00  0.00    +0.211 HD
ENDBRANCH  21  22
ENDBRANCH  16  21
ENDBRANCH   1  13
BRANCH  10  25
ATOM     24  O   UNL     1      35.870 -21.825 -17.999  0.00  0.00    -0.352 OA
ATOM     25  C   UNL     1      35.797 -21.211 -20.294  0.00  0.00    +0.103 C 
ATOM     26  C   UNL     1      34.535 -21.965 -19.953  0.00  0.00    +0.054 C 
ATOM     27  C   UNL     1      36.709 -21.576 -19.138  0.00  0.00    +0.162 C 
ATOM     28  C   UNL     1      34.508 -21.906 -18.439  0.00  0.00    +0.144 C 
ENDBRANCH  10  25
TORSDOF 6
ENDMDL
MODEL 5
REMARK VINA RESULT:      -8.6      3.027      5.085
REMARK  Name = 158795
REMARK  6 active torsions:
REMARK  status: ('A' for Active; 'I' for Inactive)
REMARK    1  A    between atoms: N_1  and  C1*_11
REMARK    2  A    between atoms: C2*_12  and  O2*_15
REMARK    3  A    between atoms: C3*_13  and  O3*_17
REMARK    4  A    between atoms: C4*_14  and  C5*_19
REMARK    5  A    between atoms: C5*_19  and  O5*_20
REMARK    6  A    between atoms: N_22  and  C_25
REMARK                            x       y       z     vdW  Elec       q    Type
REMARK                         _______ _______ _______ _____ _____    ______ ____
ROOT
ATOM      1  N   UNL     1      33.954 -21.676 -19.286  0.00  0.00    -0.247 N 
ATOM      2  N   UNL     1      32.949 -20.199 -20.623  0.00  0.00    -0.242 NA
ATOM      3  N   UNL     1      36.265 -20.977 -19.561  0.00  0.00    -0.228 NA
ATOM      4  N   UNL     1      36.444 -19.081 -21.087  0.00  0.00    -0.228 NA
ATOM      5  C   UNL     1      34.948 -20.890 -19.801  0.00  0.00    +0.152 C 
ATOM      6  C   UNL     1      34.305 -19.982 -20.626  0.00  0.00    +0.140 C 
ATOM      7  C   UNL     1      32.772 -21.220 -19.811  0.00  0.00    +0.223 C 
ATOM      8  C   UNL     1      35.105 -19.052 -21.282  0.00  0.00    +0.146 C 
ATOM      9  C   UNL     1      36.935 -20.028 -20.251  0.00  0.00    +0.253 C 
ATOM     10  N   UNL     1      34.536 -18.092 -22.137  0.00  0.00    -0.316 N 
ATOM     11  H   UNL     1      33.559 -18.093 -22.260  0.00  0.00    +0.148 HD
ENDROOT
BRANCH   1  13
ATOM     12  O4* UNL     1      32.818 -23.344 -18.040  0.00  0.00    -0.333 OA
ATOM     13  C1* UNL     1      34.110 -22.790 -18.355  0.00  0.00    +0.225 C 
ATOM     14  C2* UNL     1      34.740 -22.404 -17.025  0.00  0.00    +0.187 C 
ATOM     15  C3* UNL     1      34.207 -23.490 -16.113  0.00  0.00    +0.171 C 
ATOM     16  C4* UNL     1      32.787 -23.686 -16.635  0.00  0.00    +0.175 C 
BRANCH  14  17
ATOM     17  O2* UNL     1      36.152 -22.386 -17.098  0.00  0.00    -0.378 OA
ATOM     18  H2* UNL     1      36.429 -22.441 -18.026  0.00  0.00    +0.211 HD
ENDBRANCH  14  17
BRANCH  15  19
ATOM     19  O3* UNL     1      34.944 -24.694 -16.322  0.00  0.00    -0.379 OA
ATOM     20  H3* UNL     1      35.683 -24.733 -15.694  0.00  0.00    +0.211 HD
ENDBRANCH  15  19
BRANCH  16  21
ATOM     21  C5* UNL     1      31.771 -22.786 -15.945  0.00  0.00    +0.169 C 
BRANCH  21  22
ATOM     22  O5* UNL     1      30.779 -22.417 -16.886  0.00  0.00    -0.379 OA
ATOM     23  H5* UNL     1      30.410 -21.553 -16.645  0.00  0.00    +0.211 HD
ENDBRANCH  21  22
ENDBRANCH  16  21
ENDBRANCH   1  13
BRANCH  10  25
ATOM     24  O   UNL     1      33.845 -16.143 -24.443  0.00  0.00    -0.352 OA
ATOM     25  C   UNL     1      35.319 -17.101 -22.844  0.00  0.00    +0.103 C 
ATOM     26  C   UNL     1      34.944 -15.712 -22.388  0.00  0.00    +0.054 C 
ATOM     27  C   UNL     1      34.935 -17.070 -24.312  0.00  0.00    +0.162 C 
ATOM     28  C   UNL     1      33.715 -15.407 -23.221  0.00  0.00    +0.144 C 
ENDBRANCH  10  25
TORSDOF 6
ENDMDL
MODEL 6
REMARK VINA RESULT:      -8.5     10.705     15.042
REMARK  Name = 158795
REMARK  6 active torsions:
REMARK  status: ('A' for Active; 'I' for Inactive)
REMARK    1  A    between atoms: N_1  and  C1*_11
REMARK    2  A    between atoms: C2*_12  and  O2*_15
REMARK    3  A    between atoms: C3*_13  and  O3*_17
REMARK    4  A    between atoms: C4*_14  and  C5*_19
REMARK    5  A    between atoms: C5*_19  and  O5*_20
REMARK    6  A    between atoms: N_22  and  C_25
REMARK                            x       y       z     vdW  Elec       q    Type
REMARK                         _______ _______ _______ _____ _____    ______ ____
ROOT
ATOM      1  N   UNL     1      33.403  -9.155 -23.299  0.00  0.00    -0.247 N 
ATOM      2  N   UNL     1      34.430 -10.746 -24.479  0.00  0.00    -0.242 NA
ATOM      3  N   UNL     1      31.807 -10.515 -22.071  0.00  0.00    -0.228 NA
ATOM      4  N   UNL     1      32.028 -12.877 -22.642  0.00  0.00    -0.228 NA
ATOM      5  C   UNL     1      32.807 -10.334 -22.946  0.00  0.00    +0.152 C 
ATOM      6  C   UNL     1      33.458 -11.307 -23.688  0.00  0.00    +0.140 C 
ATOM      7  C   UNL     1      34.371  -9.456 -24.222  0.00  0.00    +0.223 C 
ATOM      8  C   UNL     1      33.035 -12.621 -23.511  0.00  0.00    +0.146 C 
ATOM      9  C   UNL     1      31.484 -11.824 -21.985  0.00  0.00    +0.253 C 
ATOM     10  N   UNL     1      33.640 -13.672 -24.221  0.00  0.00    -0.316 N 
ATOM     11  H   UNL     1      34.369 -13.457 -24.846  0.00  0.00    +0.148 HD
ENDROOT
BRANCH   1  13
ATOM     12  O4* UNL     1      33.487  -7.712 -21.418  0.00  0.00    -0.333 OA
ATOM     13  C1* UNL     1      33.078  -7.823 -22.795  0.00  0.00    +0.225 C 
ATOM     14  C2* UNL     1      31.593  -7.494 -22.822  0.00  0.00    +0.187 C 
ATOM     15  C3* UNL     1      31.495  -6.446 -21.732  0.00  0.00    +0.171 C 
ATOM     16  C4* UNL     1      32.482  -6.967 -20.691  0.00  0.00    +0.175 C 
BRANCH  14  17
ATOM     17  O2* UNL     1      31.183  -7.016 -24.088  0.00  0.00    -0.378 OA
ATOM     18  H2* UNL     1      31.818  -7.302 -24.763  0.00  0.00    +0.211 HD
ENDBRANCH  14  17
BRANCH  15  19
ATOM     19  O3* UNL     1      31.969  -5.195 -22.229  0.00  0.00    -0.379 OA
ATOM     20  H3* UNL     1      32.770  -5.340 -22.758  0.00  0.00    +0.211 HD
ENDBRANCH  15  19
BRANCH  16  21
ATOM     21  C5* UNL     1      31.836  -7.898 -19.674  0.00  0.00    +0.169 C 
BRANCH  21  22
ATOM     22  O5* UNL     1      32.672  -9.030 -19.501  0.00  0.00    -0.379 OA
ATOM     23  H5* UNL     1      33.085  -9.259 -20.348  0.00  0.00    +0.211 HD
ENDBRANCH  21  22
ENDBRANCH  16  21
ENDBRANCH   1  13
BRANCH  10  25
ATOM     24  O   UNL     1      35.088 -16.338 -24.846  0.00  0.00    -0.352 OA
ATOM     25  C   UNL     1      33.241 -15.055 -24.077  0.00  0.00    +0.103 C 
ATOM     26  C   UNL     1      33.928 -15.678 -22.886  0.00  0.00    +0.054 C 
ATOM     27  C   UNL     1      33.778 -15.886 -25.227  0.00  0.00    +0.162 C 
ATOM     28  C   UNL     1      35.278 -16.076 -23.450  0.00  0.00    +0.144 C 
ENDBRANCH  10  25
TORSDOF 6
ENDMDL
MODEL 7
REMARK VINA RESULT:      -8.5      2.581      4.165
REMARK  Name = 158795
REMARK  6 active torsions:
REMARK  status: ('A' for Active; 'I' for Inactive)
REMARK    1  A    between atoms: N_1  and  C1*_11
REMARK    2  A    between atoms: C2*_12  and  O2*_15
REMARK    3  A    between atoms: C3*_13  and  O3*_17
REMARK    4  A    between atoms: C4*_14  and  C5*_19
REMARK    5  A    between atoms: C5*_19  and  O5*_20
REMARK    6  A    between atoms: N_22  and  C_25
REMARK                            x       y       z     vdW  Elec       q    Type
REMARK                         _______ _______ _______ _____ _____    ______ ____
ROOT
ATOM      1  N   UNL     1      33.805 -22.518 -18.063  0.00  0.00    -0.247 N 
ATOM      2  N   UNL     1      32.957 -21.132 -19.593  0.00  0.00    -0.242 NA
ATOM      3  N   UNL     1      36.175 -22.098 -18.393  0.00  0.00    -0.228 NA
ATOM      4  N   UNL     1      36.549 -20.444 -20.148  0.00  0.00    -0.228 NA
ATOM      5  C   UNL     1      34.874 -21.910 -18.661  0.00  0.00    +0.152 C 
ATOM      6  C   UNL     1      34.328 -21.056 -19.605  0.00  0.00    +0.140 C 
ATOM      7  C   UNL     1      32.676 -22.017 -18.659  0.00  0.00    +0.223 C 
ATOM      8  C   UNL     1      35.219 -20.305 -20.364  0.00  0.00    +0.146 C 
ATOM      9  C   UNL     1      36.939 -21.319 -19.190  0.00  0.00    +0.253 C 
ATOM     10  N   UNL     1      34.752 -19.411 -21.343  0.00  0.00    -0.316 N 
ATOM     11  H   UNL     1      33.781 -19.329 -21.479  0.00  0.00    +0.148 HD
ENDROOT
BRANCH   1  13
ATOM     12  O4* UNL     1      32.513 -23.748 -16.500  0.00  0.00    -0.333 OA
ATOM     13  C1* UNL     1      33.846 -23.512 -16.994  0.00  0.00    +0.225 C 
ATOM     14  C2* UNL     1      34.676 -23.095 -15.790  0.00  0.00    +0.187 C 
ATOM     15  C3* UNL     1      34.047 -23.924 -14.688  0.00  0.00    +0.171 C 
ATOM     16  C4* UNL     1      32.568 -23.894 -15.061  0.00  0.00    +0.175 C 
BRANCH  14  17
ATOM     17  O2* UNL     1      36.049 -23.372 -15.976  0.00  0.00    -0.378 OA
ATOM     18  H2* UNL     1      36.287 -23.221 -16.904  0.00  0.00    +0.211 HD
ENDBRANCH  14  17
BRANCH  15  19
ATOM     19  O3* UNL     1      34.516 -25.269 -14.777  0.00  0.00    -0.379 OA
ATOM     20  H3* UNL     1      35.327 -25.363 -14.252  0.00  0.00    +0.211 HD
ENDBRANCH  15  19
BRANCH  16  21
ATOM     21  C5* UNL     1      31.820 -22.726 -14.432  0.00  0.00    +0.169 C 
BRANCH  21  22
ATOM     22  O5* UNL     1      32.031 -22.755 -13.031  0.00  0.00    -0.379 OA
ATOM     23  H5* UNL     1      31.529 -22.037 -12.614  0.00  0.00    +0.211 HD
ENDBRANCH  21  22
ENDBRANCH  16  21
ENDBRANCH   1  13
BRANCH  10  25
ATOM     24  O   UNL     1      34.252 -17.663 -23.852  0.00  0.00    -0.352 OA
ATOM     25  C   UNL     1      35.633 -18.605 -22.162  0.00  0.00    +0.103 C 
ATOM     26  C   UNL     1      35.431 -17.139 -21.863  0.00  0.00    +0.054 C 
ATOM     27  C   UNL     1      35.229 -18.692 -23.621  0.00  0.00    +0.162 C 
ATOM     28  C   UNL     1      34.231 -16.785 -22.719  0.00  0.00    +0.144 C 
ENDBRANCH  10  25
TORSDOF 6
ENDMDL
MODEL 8
REMARK VINA RESULT:      -8.4      3.279      5.129
REMARK  Name = 158795
REMARK  6 active torsions:
REMARK  status: ('A' for Active; 'I' for Inactive)
REMARK    1  A    between atoms: N_1  and  C1*_11
REMARK    2  A    between atoms: C2*_12  and  O2*_15
REMARK    3  A    between atoms: C3*_13  and  O3*_17
REMARK    4  A    between atoms: C4*_14  and  C5*_19
REMARK    5  A    between atoms: C5*_19  and  O5*_20
REMARK    6  A    between atoms: N_22  and  C_25
REMARK                            x       y       z     vdW  Elec       q    Type
REMARK                         _______ _______ _______ _____ _____    ______ ____
ROOT
ATOM      1  N   UNL     1      34.894 -24.241 -15.002  0.00  0.00    -0.247 N 
ATOM      2  N   UNL     1      32.812 -24.169 -14.202  0.00  0.00    -0.242 NA
ATOM      3  N   UNL     1      34.503 -23.399 -17.247  0.00  0.00    -0.228 NA
ATOM      4  N   UNL     1      32.145 -22.880 -17.604  0.00  0.00    -0.228 NA
ATOM      5  C   UNL     1      34.113 -23.759 -16.015  0.00  0.00    +0.152 C 
ATOM      6  C   UNL     1      32.828 -23.722 -15.499  0.00  0.00    +0.140 C 
ATOM      7  C   UNL     1      34.065 -24.472 -13.934  0.00  0.00    +0.223 C 
ATOM      8  C   UNL     1      31.823 -23.260 -16.345  0.00  0.00    +0.146 C 
ATOM      9  C   UNL     1      33.446 -22.971 -17.972  0.00  0.00    +0.253 C 
ATOM     10  N   UNL     1      30.491 -23.187 -15.904  0.00  0.00    -0.316 N 
ATOM     11  H   UNL     1      30.285 -23.470 -14.983  0.00  0.00    +0.148 HD
ENDROOT
BRANCH   1  13
ATOM     12  O4* UNL     1      36.721 -25.319 -13.940  0.00  0.00    -0.333 OA
ATOM     13  C1* UNL     1      36.336 -24.470 -15.038  0.00  0.00    +0.225 C 
ATOM     14  C2* UNL     1      37.169 -23.204 -14.906  0.00  0.00    +0.187 C 
ATOM     15  C3* UNL     1      38.466 -23.753 -14.349  0.00  0.00    +0.171 C 
ATOM     16  C4* UNL     1      37.978 -24.846 -13.402  0.00  0.00    +0.175 C 
BRANCH  14  17
ATOM     17  O2* UNL     1      37.333 -22.550 -16.148  0.00  0.00    -0.378 OA
ATOM     18  H2* UNL     1      37.327 -21.589 -16.011  0.00  0.00    +0.211 HD
ENDBRANCH  14  17
BRANCH  15  19
ATOM     19  O3* UNL     1      39.219 -24.358 -15.400  0.00  0.00    -0.379 OA
ATOM     20  H3* UNL     1      39.285 -23.741 -16.146  0.00  0.00    +0.211 HD
ENDBRANCH  15  19
BRANCH  16  21
ATOM     21  C5* UNL     1      37.734 -24.340 -11.987  0.00  0.00    +0.169 C 
BRANCH  21  22
ATOM     22  O5* UNL     1      38.714 -23.364 -11.679  0.00  0.00    -0.379 OA
ATOM     23  H5* UNL     1      38.482 -22.526 -12.109  0.00  0.00    +0.211 HD
ENDBRANCH  21  22
ENDBRANCH  16  21
ENDBRANCH   1  13
BRANCH  10  25
ATOM     24  O   UNL     1      27.499 -23.970 -16.080  0.00  0.00    -0.352 OA
ATOM     25  C   UNL     1      29.407 -22.715 -16.738  0.00  0.00    +0.103 C 
ATOM     26  C   UNL     1      28.486 -21.819 -15.946  0.00  0.00    +0.054 C 
ATOM     27  C   UNL     1      28.489 -23.863 -17.116  0.00  0.00    +0.162 C 
ATOM     28  C   UNL     1      27.579 -22.809 -15.243  0.00  0.00    +0.144 C 
ENDBRANCH  10  25
TORSDOF 6
ENDMDL
MODEL 9
REMARK VINA RESULT:      -8.4      1.497      2.539
REMARK  Name = 158795
REMARK  6 active torsions:
REMARK  status: ('A' for Active; 'I' for Inactive)
REMARK    1  A    between atoms: N_1  and  C1*_11
REMARK    2  A    between atoms: C2*_12  and  O2*_15
REMARK    3  A    between atoms: C3*_13  and  O3*_17
REMARK    4  A    between atoms: C4*_14  and  C5*_19
REMARK    5  A    between atoms: C5*_19  and  O5*_20
REMARK    6  A    between atoms: N_22  and  C_25
REMARK                            x       y       z     vdW  Elec       q    Type
REMARK                         _______ _______ _______ _____ _____    ______ ____
ROOT
ATOM      1  N   UNL     1      36.303 -22.793 -16.577  0.00  0.00    -0.247 N 
ATOM      2  N   UNL     1      36.972 -21.126 -17.901  0.00  0.00    -0.242 NA
ATOM      3  N   UNL     1      34.159 -23.300 -17.602  0.00  0.00    -0.228 NA
ATOM      4  N   UNL     1      33.721 -21.845 -19.512  0.00  0.00    -0.228 NA
ATOM      5  C   UNL     1      35.309 -22.618 -17.500  0.00  0.00    +0.152 C 
ATOM      6  C   UNL     1      35.743 -21.581 -18.311  0.00  0.00    +0.140 C 
ATOM      7  C   UNL     1      37.279 -21.873 -16.861  0.00  0.00    +0.223 C 
ATOM      8  C   UNL     1      34.900 -21.199 -19.349  0.00  0.00    +0.146 C 
ATOM      9  C   UNL     1      33.428 -22.841 -18.641  0.00  0.00    +0.253 C 
ATOM     10  N   UNL     1      35.262 -20.158 -20.222  0.00  0.00    -0.316 N 
ATOM     11  H   UNL     1      36.125 -19.706 -20.081  0.00  0.00    +0.148 HD
ENDROOT
BRANCH   1  13
ATOM     12  O4* UNL     1      35.195 -24.652 -15.605  0.00  0.00    -0.333 OA
ATOM     13  C1* UNL     1      36.329 -23.770 -15.492  0.00  0.00    +0.225 C 
ATOM     14  C2* UNL     1      36.251 -23.156 -14.102  0.00  0.00    +0.187 C 
ATOM     15  C3* UNL     1      35.670 -24.302 -13.299  0.00  0.00    +0.171 C 
ATOM     16  C4* UNL     1      34.678 -24.919 -14.280  0.00  0.00    +0.175 C 
BRANCH  14  17
ATOM     17  O2* UNL     1      37.519 -22.741 -13.637  0.00  0.00    -0.378 OA
ATOM     18  H2* UNL     1      38.127 -22.657 -14.389  0.00  0.00    +0.211 HD
ENDBRANCH  14  17
BRANCH  15  19
ATOM     19  O3* UNL     1      36.695 -25.256 -13.020  0.00  0.00    -0.379 OA
ATOM     20  H3* UNL     1      36.848 -25.804 -13.806  0.00  0.00    +0.211 HD
ENDBRANCH  15  19
BRANCH  16  21
ATOM     21  C5* UNL     1      33.286 -24.313 -14.178  0.00  0.00    +0.169 C 
BRANCH  21  22
ATOM     22  O5* UNL     1      32.526 -25.075 -13.256  0.00  0.00    -0.379 OA
ATOM     23  H5* UNL     1      32.958 -25.931 -13.111  0.00  0.00    +0.211 HD
ENDBRANCH  21  22
ENDBRANCH  16  21
ENDBRANCH   1  13
BRANCH  10  25
ATOM     24  O   UNL     1      34.743 -17.370 -21.467  0.00  0.00    -0.352 OA
ATOM     25  C   UNL     1      34.425 -19.720 -21.318  0.00  0.00    +0.103 C 
ATOM     26  C   UNL     1      35.268 -19.420 -22.534  0.00  0.00    +0.054 C 
ATOM     27  C   UNL     1      33.814 -18.366 -21.012  0.00  0.00    +0.162 C 
ATOM     28  C   UNL     1      35.746 -18.006 -22.269  0.00  0.00    +0.144 C 
ENDBRANCH  10  25
TORSDOF 6
ENDMDL
