MODEL 1
REMARK VINA RESULT:      -6.7      0.000      0.000
REMARK  Name = 51634
REMARK  8 active torsions:
REMARK  status: ('A' for Active; 'I' for Inactive)
REMARK    1  A    between atoms: N_1  and  C_14
REMARK    2  A    between atoms: C_2  and  C_18
REMARK    3  A    between atoms: C_3  and  O_8
REMARK    4  A    between atoms: C_4  and  O_10
REMARK    5  A    between atoms: C_5  and  O_12
REMARK    6  A    between atoms: C_14  and  C_15
REMARK    7  A    between atoms: C_15  and  C_16
REMARK    8  A    between atoms: C_18  and  O_19
REMARK                            x       y       z     vdW  Elec       q    Type
REMARK                         _______ _______ _______ _____ _____    ______ ____
ROOT
ATOM      1  N   UNL     1      35.634 -25.010 -13.867  0.00  0.00    +0.393 N 
ATOM      2  C   UNL     1      36.176 -25.005 -12.492  0.00  0.00    +0.002 C 
ATOM      3  C   UNL     1      37.629 -24.487 -12.420  0.00  0.00    +0.123 C 
ATOM      4  C   UNL     1      38.545 -25.247 -13.383  0.00  0.00    +0.160 C 
ATOM      5  C   UNL     1      37.951 -25.314 -14.789  0.00  0.00    +0.119 C 
ATOM      6  C   UNL     1      36.498 -25.792 -14.760  0.00  0.00    -0.045 C 
ATOM      7  H   UNL     1      34.720 -25.460 -13.806  0.00  0.00    -0.079 HD
ENDROOT
BRANCH   3   8
ATOM      8  O   UNL     1      38.151 -24.680 -11.103  0.00  0.00    -0.384 OA
ATOM      9  H   UNL     1      39.086 -24.934 -11.159  0.00  0.00    +0.210 HD
ENDBRANCH   3   8
BRANCH   4  10
ATOM     10  O   UNL     1      39.804 -24.575 -13.462  0.00  0.00    -0.380 OA
ATOM     11  H   UNL     1      40.477 -25.188 -13.798  0.00  0.00    +0.211 HD
ENDBRANCH   4  10
BRANCH   5  12
ATOM     12  O   UNL     1      38.721 -26.213 -15.588  0.00  0.00    -0.384 OA
ATOM     13  H   UNL     1      38.424 -26.161 -16.510  0.00  0.00    +0.210 HD
ENDBRANCH   5  12
BRANCH   1  14
ATOM     14  C   UNL     1      35.360 -23.681 -14.415  0.00  0.00    -0.077 C 
BRANCH  14  15
ATOM     15  C   UNL     1      34.022 -23.677 -15.153  0.00  0.00    -0.023 C 
BRANCH  15  16
ATOM     16  C   UNL     1      34.187 -23.180 -16.589  0.00  0.00    -0.002 C 
ATOM     17  C   UNL     1      32.858 -23.164 -17.328  0.00  0.00    -0.000 C 
ENDBRANCH  15  16
ENDBRANCH  14  15
ENDBRANCH   1  14
BRANCH   2  18
ATOM     18  C   UNL     1      35.254 -24.271 -11.509  0.00  0.00    +0.119 C 
BRANCH  18  19
ATOM     19  O   UNL     1      35.260 -24.985 -10.290  0.00  0.00    -0.384 OA
ATOM     20  H   UNL     1      36.116 -24.867  -9.850  0.00  0.00    +0.210 HD
ENDBRANCH  18  19
ENDBRANCH   2  18
TORSDOF 8
ENDMDL
MODEL 2
REMARK VINA RESULT:      -6.6      1.912      2.328
REMARK  Name = 51634
REMARK  8 active torsions:
REMARK  status: ('A' for Active; 'I' for Inactive)
REMARK    1  A    between atoms: N_1  and  C_14
REMARK    2  A    between atoms: C_2  and  C_18
REMARK    3  A    between atoms: C_3  and  O_8
REMARK    4  A    between atoms: C_4  and  O_10
REMARK    5  A    between atoms: C_5  and  O_12
REMARK    6  A    between atoms: C_14  and  C_15
REMARK    7  A    between atoms: C_15  and  C_16
REMARK    8  A    between atoms: C_18  and  O_19
REMARK                            x       y       z     vdW  Elec       q    Type
REMARK                         _______ _______ _______ _____ _____    ______ ____
ROOT
ATOM      1  N   UNL     1      35.956 -23.841 -14.063  0.00  0.00    +0.393 N 
ATOM      2  C   UNL     1      36.589 -24.334 -12.821  0.00  0.00    +0.002 C 
ATOM      3  C   UNL     1      37.808 -25.244 -13.087  0.00  0.00    +0.123 C 
ATOM      4  C   UNL     1      37.454 -26.395 -14.034  0.00  0.00    +0.160 C 
ATOM      5  C   UNL     1      36.736 -25.892 -15.285  0.00  0.00    +0.119 C 
ATOM      6  C   UNL     1      35.574 -24.963 -14.929  0.00  0.00    -0.045 C 
ATOM      7  H   UNL     1      35.116 -23.342 -13.770  0.00  0.00    -0.079 HD
ENDROOT
BRANCH   3   8
ATOM      8  O   UNL     1      38.256 -25.831 -11.863  0.00  0.00    -0.384 OA
ATOM      9  H   UNL     1      38.596 -25.136 -11.276  0.00  0.00    +0.210 HD
ENDBRANCH   3   8
BRANCH   4  10
ATOM     10  O   UNL     1      38.655 -27.052 -14.443  0.00  0.00    -0.380 OA
ATOM     11  H   UNL     1      38.480 -27.999 -14.565  0.00  0.00    +0.211 HD
ENDBRANCH   4  10
BRANCH   5  12
ATOM     12  O   UNL     1      36.231 -27.006 -16.023  0.00  0.00    -0.384 OA
ATOM     13  H   UNL     1      35.354 -27.247 -15.686  0.00  0.00    +0.210 HD
ENDBRANCH   5  12
BRANCH   1  14
ATOM     14  C   UNL     1      36.745 -22.847 -14.791  0.00  0.00    -0.077 C 
BRANCH  14  15
ATOM     15  C   UNL     1      36.033 -22.445 -16.081  0.00  0.00    -0.023 C 
BRANCH  15  16
ATOM     16  C   UNL     1      37.013 -21.842 -17.087  0.00  0.00    -0.002 C 
ATOM     17  C   UNL     1      36.369 -21.662 -18.453  0.00  0.00    -0.000 C 
ENDBRANCH  15  16
ENDBRANCH  14  15
ENDBRANCH   1  14
BRANCH   2  18
ATOM     18  C   UNL     1      36.923 -23.194 -11.849  0.00  0.00    +0.119 C 
BRANCH  18  19
ATOM     19  O   UNL     1      38.328 -23.120 -11.730  0.00  0.00    -0.384 OA
ATOM     20  H   UNL     1      38.595 -22.194 -11.618  0.00  0.00    +0.210 HD
ENDBRANCH  18  19
ENDBRANCH   2  18
TORSDOF 8
ENDMDL
MODEL 3
REMARK VINA RESULT:      -6.4      1.922      2.651
REMARK  Name = 51634
REMARK  8 active torsions:
REMARK  status: ('A' for Active; 'I' for Inactive)
REMARK    1  A    between atoms: N_1  and  C_14
REMARK    2  A    between atoms: C_2  and  C_18
REMARK    3  A    between atoms: C_3  and  O_8
REMARK    4  A    between atoms: C_4  and  O_10
REMARK    5  A    between atoms: C_5  and  O_12
REMARK    6  A    between atoms: C_14  and  C_15
REMARK    7  A    between atoms: C_15  and  C_16
REMARK    8  A    between atoms: C_18  and  O_19
REMARK                            x       y       z     vdW  Elec       q    Type
REMARK                         _______ _______ _______ _____ _____    ______ ____
ROOT
ATOM      1  N   UNL     1      36.072 -24.373 -14.997  0.00  0.00    +0.393 N 
ATOM      2  C   UNL     1      35.165 -24.754 -13.894  0.00  0.00    +0.002 C 
ATOM      3  C   UNL     1      35.761 -24.469 -12.498  0.00  0.00    +0.123 C 
ATOM      4  C   UNL     1      37.144 -25.109 -12.337  0.00  0.00    +0.160 C 
ATOM      5  C   UNL     1      38.059 -24.773 -13.513  0.00  0.00    +0.119 C 
ATOM      6  C   UNL     1      37.371 -25.042 -14.852  0.00  0.00    -0.045 C 
ATOM      7  H   UNL     1      35.622 -24.695 -15.853  0.00  0.00    -0.079 HD
ENDROOT
BRANCH   3   8
ATOM      8  O   UNL     1      34.920 -25.026 -11.485  0.00  0.00    -0.384 OA
ATOM      9  H   UNL     1      35.257 -24.775 -10.610  0.00  0.00    +0.210 HD
ENDBRANCH   3   8
BRANCH   4  10
ATOM     10  O   UNL     1      37.753 -24.615 -11.142  0.00  0.00    -0.380 OA
ATOM     11  H   UNL     1      38.718 -24.621 -11.245  0.00  0.00    +0.211 HD
ENDBRANCH   4  10
BRANCH   5  12
ATOM     12  O   UNL     1      39.245 -25.565 -13.433  0.00  0.00    -0.384 OA
ATOM     13  H   UNL     1      39.667 -25.429 -12.570  0.00  0.00    +0.210 HD
ENDBRANCH   5  12
BRANCH   1  14
ATOM     14  C   UNL     1      36.230 -22.930 -15.179  0.00  0.00    -0.077 C 
BRANCH  14  15
ATOM     15  C   UNL     1      37.403 -22.638 -16.115  0.00  0.00    -0.023 C 
BRANCH  15  16
ATOM     16  C   UNL     1      37.116 -21.422 -16.995  0.00  0.00    -0.002 C 
ATOM     17  C   UNL     1      36.254 -21.793 -18.192  0.00  0.00    -0.000 C 
ENDBRANCH  15  16
ENDBRANCH  14  15
ENDBRANCH   1  14
BRANCH   2  18
ATOM     18  C   UNL     1      33.766 -24.144 -14.057  0.00  0.00    +0.119 C 
BRANCH  18  19
ATOM     19  O   UNL     1      32.858 -24.931 -13.317  0.00  0.00    -0.384 OA
ATOM     20  H   UNL     1      32.303 -25.444 -13.926  0.00  0.00    +0.210 HD
ENDBRANCH  18  19
ENDBRANCH   2  18
TORSDOF 8
ENDMDL
MODEL 4
REMARK VINA RESULT:      -6.4      1.934      3.391
REMARK  Name = 51634
REMARK  8 active torsions:
REMARK  status: ('A' for Active; 'I' for Inactive)
REMARK    1  A    between atoms: N_1  and  C_14
REMARK    2  A    between atoms: C_2  and  C_18
REMARK    3  A    between atoms: C_3  and  O_8
REMARK    4  A    between atoms: C_4  and  O_10
REMARK    5  A    between atoms: C_5  and  O_12
REMARK    6  A    between atoms: C_14  and  C_15
REMARK    7  A    between atoms: C_15  and  C_16
REMARK    8  A    between atoms: C_18  and  O_19
REMARK                            x       y       z     vdW  Elec       q    Type
REMARK                         _______ _______ _______ _____ _____    ______ ____
ROOT
ATOM      1  N   UNL     1      35.383 -23.201 -14.242  0.00  0.00    +0.393 N 
ATOM      2  C   UNL     1      36.689 -22.990 -14.901  0.00  0.00    +0.002 C 
ATOM      3  C   UNL     1      37.520 -24.287 -15.020  0.00  0.00    +0.123 C 
ATOM      4  C   UNL     1      37.679 -24.977 -13.662  0.00  0.00    +0.160 C 
ATOM      5  C   UNL     1      36.338 -25.131 -12.948  0.00  0.00    +0.119 C 
ATOM      6  C   UNL     1      35.565 -23.811 -12.919  0.00  0.00    -0.045 C 
ATOM      7  H   UNL     1      34.973 -22.274 -14.130  0.00  0.00    -0.079 HD
ENDROOT
BRANCH   3   8
ATOM      8  O   UNL     1      38.834 -23.983 -15.494  0.00  0.00    -0.384 OA
ATOM      9  H   UNL     1      39.384 -24.781 -15.457  0.00  0.00    +0.210 HD
ENDBRANCH   3   8
BRANCH   4  10
ATOM     10  O   UNL     1      38.231 -26.281 -13.861  0.00  0.00    -0.380 OA
ATOM     11  H   UNL     1      38.960 -26.421 -13.236  0.00  0.00    +0.211 HD
ENDBRANCH   4  10
BRANCH   5  12
ATOM     12  O   UNL     1      36.560 -25.569 -11.608  0.00  0.00    -0.384 OA
ATOM     13  H   UNL     1      37.442 -25.289 -11.318  0.00  0.00    +0.210 HD
ENDBRANCH   5  12
BRANCH   1  14
ATOM     14  C   UNL     1      34.412 -23.943 -15.046  0.00  0.00    -0.077 C 
BRANCH  14  15
ATOM     15  C   UNL     1      33.009 -23.372 -14.846  0.00  0.00    -0.023 C 
BRANCH  15  16
ATOM     16  C   UNL     1      32.239 -23.327 -16.166  0.00  0.00    -0.002 C 
ATOM     17  C   UNL     1      33.180 -23.245 -17.357  0.00  0.00    -0.000 C 
ENDBRANCH  15  16
ENDBRANCH  14  15
ENDBRANCH   1  14
BRANCH   2  18
ATOM     18  C   UNL     1      36.547 -22.272 -16.251  0.00  0.00    +0.119 C 
BRANCH  18  19
ATOM     19  O   UNL     1      37.554 -21.286 -16.328  0.00  0.00    -0.384 OA
ATOM     20  H   UNL     1      38.210 -21.544 -16.995  0.00  0.00    +0.210 HD
ENDBRANCH  18  19
ENDBRANCH   2  18
TORSDOF 8
ENDMDL
MODEL 5
REMARK VINA RESULT:      -6.3      1.585      3.205
REMARK  Name = 51634
REMARK  8 active torsions:
REMARK  status: ('A' for Active; 'I' for Inactive)
REMARK    1  A    between atoms: N_1  and  C_14
REMARK    2  A    between atoms: C_2  and  C_18
REMARK    3  A    between atoms: C_3  and  O_8
REMARK    4  A    between atoms: C_4  and  O_10
REMARK    5  A    between atoms: C_5  and  O_12
REMARK    6  A    between atoms: C_14  and  C_15
REMARK    7  A    between atoms: C_15  and  C_16
REMARK    8  A    between atoms: C_18  and  O_19
REMARK                            x       y       z     vdW  Elec       q    Type
REMARK                         _______ _______ _______ _____ _____    ______ ____
ROOT
ATOM      1  N   UNL     1      36.596 -23.855 -14.875  0.00  0.00    +0.393 N 
ATOM      2  C   UNL     1      36.837 -25.238 -14.413  0.00  0.00    +0.002 C 
ATOM      3  C   UNL     1      36.519 -25.436 -12.914  0.00  0.00    +0.123 C 
ATOM      4  C   UNL     1      37.256 -24.414 -12.043  0.00  0.00    +0.160 C 
ATOM      5  C   UNL     1      37.065 -22.991 -12.563  0.00  0.00    +0.119 C 
ATOM      6  C   UNL     1      37.357 -22.898 -14.062  0.00  0.00    -0.045 C 
ATOM      7  H   UNL     1      36.931 -23.819 -15.837  0.00  0.00    -0.079 HD
ENDROOT
BRANCH   3   8
ATOM      8  O   UNL     1      36.945 -26.733 -12.492  0.00  0.00    -0.384 OA
ATOM      9  H   UNL     1      37.860 -26.883 -12.778  0.00  0.00    +0.210 HD
ENDBRANCH   3   8
BRANCH   4  10
ATOM     10  O   UNL     1      36.742 -24.475 -10.711  0.00  0.00    -0.380 OA
ATOM     11  H   UNL     1      37.320 -25.035 -10.168  0.00  0.00    +0.211 HD
ENDBRANCH   4  10
BRANCH   5  12
ATOM     12  O   UNL     1      37.943 -22.107 -11.864  0.00  0.00    -0.384 OA
ATOM     13  H   UNL     1      37.512 -21.802 -11.049  0.00  0.00    +0.210 HD
ENDBRANCH   5  12
BRANCH   1  14
ATOM     14  C   UNL     1      35.183 -23.482 -14.958  0.00  0.00    -0.077 C 
BRANCH  14  15
ATOM     15  C   UNL     1      34.878 -22.857 -16.319  0.00  0.00    -0.023 C 
BRANCH  15  16
ATOM     16  C   UNL     1      33.608 -23.452 -16.926  0.00  0.00    -0.002 C 
ATOM     17  C   UNL     1      33.155 -22.668 -18.148  0.00  0.00    -0.000 C 
ENDBRANCH  15  16
ENDBRANCH  14  15
ENDBRANCH   1  14
BRANCH   2  18
ATOM     18  C   UNL     1      36.127 -26.275 -15.294  0.00  0.00    +0.119 C 
BRANCH  18  19
ATOM     19  O   UNL     1      37.116 -27.033 -15.957  0.00  0.00    -0.384 OA
ATOM     20  H   UNL     1      37.735 -27.399 -15.306  0.00  0.00    +0.210 HD
ENDBRANCH  18  19
ENDBRANCH   2  18
TORSDOF 8
ENDMDL
MODEL 6
REMARK VINA RESULT:      -6.2     10.409     12.565
REMARK  Name = 51634
REMARK  8 active torsions:
REMARK  status: ('A' for Active; 'I' for Inactive)
REMARK    1  A    between atoms: N_1  and  C_14
REMARK    2  A    between atoms: C_2  and  C_18
REMARK    3  A    between atoms: C_3  and  O_8
REMARK    4  A    between atoms: C_4  and  O_10
REMARK    5  A    between atoms: C_5  and  O_12
REMARK    6  A    between atoms: C_14  and  C_15
REMARK    7  A    between atoms: C_15  and  C_16
REMARK    8  A    between atoms: C_18  and  O_19
REMARK                            x       y       z     vdW  Elec       q    Type
REMARK                         _______ _______ _______ _____ _____    ______ ____
ROOT
ATOM      1  N   UNL     1      34.958 -17.215 -22.080  0.00  0.00    +0.393 N 
ATOM      2  C   UNL     1      34.842 -15.752 -21.903  0.00  0.00    +0.002 C 
ATOM      3  C   UNL     1      33.844 -15.104 -22.887  0.00  0.00    +0.123 C 
ATOM      4  C   UNL     1      34.167 -15.472 -24.339  0.00  0.00    +0.160 C 
ATOM      5  C   UNL     1      34.356 -16.978 -24.507  0.00  0.00    +0.119 C 
ATOM      6  C   UNL     1      35.323 -17.541 -23.464  0.00  0.00    -0.045 C 
ATOM      7  H   UNL     1      35.707 -17.514 -21.456  0.00  0.00    -0.079 HD
ENDROOT
BRANCH   3   8
ATOM      8  O   UNL     1      33.917 -13.679 -22.789  0.00  0.00    -0.384 OA
ATOM      9  H   UNL     1      33.138 -13.285 -23.213  0.00  0.00    +0.210 HD
ENDBRANCH   3   8
BRANCH   4  10
ATOM     10  O   UNL     1      33.085 -15.062 -25.178  0.00  0.00    -0.380 OA
ATOM     11  H   UNL     1      32.872 -14.132 -24.999  0.00  0.00    +0.211 HD
ENDBRANCH   4  10
BRANCH   5  12
ATOM     12  O   UNL     1      34.871 -17.249 -25.812  0.00  0.00    -0.384 OA
ATOM     13  H   UNL     1      34.618 -18.146 -26.079  0.00  0.00    +0.210 HD
ENDBRANCH   5  12
BRANCH   1  14
ATOM     14  C   UNL     1      33.784 -17.972 -21.643  0.00  0.00    -0.077 C 
BRANCH  14  15
ATOM     15  C   UNL     1      34.207 -19.323 -21.068  0.00  0.00    -0.023 C 
BRANCH  15  16
ATOM     16  C   UNL     1      32.996 -20.117 -20.579  0.00  0.00    -0.002 C 
ATOM     17  C   UNL     1      33.410 -21.239 -19.639  0.00  0.00    -0.000 C 
ENDBRANCH  15  16
ENDBRANCH  14  15
ENDBRANCH   1  14
BRANCH   2  18
ATOM     18  C   UNL     1      34.548 -15.366 -20.447  0.00  0.00    +0.119 C 
BRANCH  18  19
ATOM     19  O   UNL     1      33.252 -14.808 -20.397  0.00  0.00    -0.384 OA
ATOM     20  H   UNL     1      32.661 -15.406 -19.913  0.00  0.00    +0.210 HD
ENDBRANCH  18  19
ENDBRANCH   2  18
TORSDOF 8
ENDMDL
MODEL 7
REMARK VINA RESULT:      -6.1     12.417     14.442
REMARK  Name = 51634
REMARK  8 active torsions:
REMARK  status: ('A' for Active; 'I' for Inactive)
REMARK    1  A    between atoms: N_1  and  C_14
REMARK    2  A    between atoms: C_2  and  C_18
REMARK    3  A    between atoms: C_3  and  O_8
REMARK    4  A    between atoms: C_4  and  O_10
REMARK    5  A    between atoms: C_5  and  O_12
REMARK    6  A    between atoms: C_14  and  C_15
REMARK    7  A    between atoms: C_15  and  C_16
REMARK    8  A    between atoms: C_18  and  O_19
REMARK                            x       y       z     vdW  Elec       q    Type
REMARK                         _______ _______ _______ _____ _____    ______ ____
ROOT
ATOM      1  N   UNL     1      34.205 -14.798 -22.811  0.00  0.00    +0.393 N 
ATOM      2  C   UNL     1      34.158 -14.442 -24.244  0.00  0.00    +0.002 C 
ATOM      3  C   UNL     1      33.660 -15.600 -25.137  0.00  0.00    +0.123 C 
ATOM      4  C   UNL     1      34.471 -16.879 -24.901  0.00  0.00    +0.160 C 
ATOM      5  C   UNL     1      34.580 -17.208 -23.413  0.00  0.00    +0.119 C 
ATOM      6  C   UNL     1      35.034 -15.992 -22.603  0.00  0.00    -0.045 C 
ATOM      7  H   UNL     1      34.637 -14.004 -22.339  0.00  0.00    -0.079 HD
ENDROOT
BRANCH   3   8
ATOM      8  O   UNL     1      33.813 -15.255 -26.516  0.00  0.00    -0.384 OA
ATOM      9  H   UNL     1      34.550 -14.632 -26.614  0.00  0.00    +0.210 HD
ENDBRANCH   3   8
BRANCH   4  10
ATOM     10  O   UNL     1      33.822 -17.972 -25.554  0.00  0.00    -0.380 OA
ATOM     11  H   UNL     1      33.148 -18.346 -24.964  0.00  0.00    +0.211 HD
ENDBRANCH   4  10
BRANCH   5  12
ATOM     12  O   UNL     1      35.521 -18.267 -23.229  0.00  0.00    -0.384 OA
ATOM     13  H   UNL     1      35.932 -18.186 -22.355  0.00  0.00    +0.210 HD
ENDBRANCH   5  12
BRANCH   1  14
ATOM     14  C   UNL     1      32.894 -14.939 -22.178  0.00  0.00    -0.077 C 
BRANCH  14  15
ATOM     15  C   UNL     1      32.789 -14.021 -20.962  0.00  0.00    -0.023 C 
BRANCH  15  16
ATOM     16  C   UNL     1      31.946 -12.784 -21.275  0.00  0.00    -0.002 C 
ATOM     17  C   UNL     1      31.748 -11.919 -20.041  0.00  0.00    -0.000 C 
ENDBRANCH  15  16
ENDBRANCH  14  15
ENDBRANCH   1  14
BRANCH   2  18
ATOM     18  C   UNL     1      33.373 -13.146 -24.493  0.00  0.00    +0.119 C 
BRANCH  18  19
ATOM     19  O   UNL     1      34.223 -12.058 -24.197  0.00  0.00    -0.384 OA
ATOM     20  H   UNL     1      34.449 -12.071 -23.253  0.00  0.00    +0.210 HD
ENDBRANCH  18  19
ENDBRANCH   2  18
TORSDOF 8
ENDMDL
MODEL 8
REMARK VINA RESULT:      -6.1     11.161     13.481
REMARK  Name = 51634
REMARK  8 active torsions:
REMARK  status: ('A' for Active; 'I' for Inactive)
REMARK    1  A    between atoms: N_1  and  C_14
REMARK    2  A    between atoms: C_2  and  C_18
REMARK    3  A    between atoms: C_3  and  O_8
REMARK    4  A    between atoms: C_4  and  O_10
REMARK    5  A    between atoms: C_5  and  O_12
REMARK    6  A    between atoms: C_14  and  C_15
REMARK    7  A    between atoms: C_15  and  C_16
REMARK    8  A    between atoms: C_18  and  O_19
REMARK                            x       y       z     vdW  Elec       q    Type
REMARK                         _______ _______ _______ _____ _____    ______ ____
ROOT
ATOM      1  N   UNL     1      34.088 -14.780 -21.886  0.00  0.00    +0.393 N 
ATOM      2  C   UNL     1      34.453 -14.939 -23.309  0.00  0.00    +0.002 C 
ATOM      3  C   UNL     1      34.260 -16.383 -23.823  0.00  0.00    +0.123 C 
ATOM      4  C   UNL     1      34.991 -17.397 -22.938  0.00  0.00    +0.160 C 
ATOM      5  C   UNL     1      34.669 -17.187 -21.460  0.00  0.00    +0.119 C 
ATOM      6  C   UNL     1      34.843 -15.723 -21.051  0.00  0.00    -0.045 C 
ATOM      7  H   UNL     1      34.348 -13.827 -21.635  0.00  0.00    -0.079 HD
ENDROOT
BRANCH   3   8
ATOM      8  O   UNL     1      34.801 -16.508 -25.141  0.00  0.00    -0.384 OA
ATOM      9  H   UNL     1      34.711 -15.664 -25.610  0.00  0.00    +0.210 HD
ENDBRANCH   3   8
BRANCH   4  10
ATOM     10  O   UNL     1      34.583 -18.717 -23.301  0.00  0.00    -0.380 OA
ATOM     11  H   UNL     1      34.775 -18.867 -24.241  0.00  0.00    +0.211 HD
ENDBRANCH   4  10
BRANCH   5  12
ATOM     12  O   UNL     1      35.536 -17.998 -20.665  0.00  0.00    -0.384 OA
ATOM     13  H   UNL     1      35.006 -18.610 -20.130  0.00  0.00    +0.210 HD
ENDBRANCH   5  12
BRANCH   1  14
ATOM     14  C   UNL     1      32.652 -14.858 -21.617  0.00  0.00    -0.077 C 
BRANCH  14  15
ATOM     15  C   UNL     1      32.260 -13.861 -20.528  0.00  0.00    -0.023 C 
BRANCH  15  16
ATOM     16  C   UNL     1      31.872 -12.511 -21.129  0.00  0.00    -0.002 C 
ATOM     17  C   UNL     1      31.525 -11.499 -20.048  0.00  0.00    -0.000 C 
ENDBRANCH  15  16
ENDBRANCH  14  15
ENDBRANCH   1  14
BRANCH   2  18
ATOM     18  C   UNL     1      33.750 -13.910 -24.206  0.00  0.00    +0.119 C 
BRANCH  18  19
ATOM     19  O   UNL     1      34.220 -12.628 -23.850  0.00  0.00    -0.384 OA
ATOM     20  H   UNL     1      34.858 -12.707 -23.122  0.00  0.00    +0.210 HD
ENDBRANCH  18  19
ENDBRANCH   2  18
TORSDOF 8
ENDMDL
MODEL 9
REMARK VINA RESULT:      -6.0     17.389     19.291
REMARK  Name = 51634
REMARK  8 active torsions:
REMARK  status: ('A' for Active; 'I' for Inactive)
REMARK    1  A    between atoms: N_1  and  C_14
REMARK    2  A    between atoms: C_2  and  C_18
REMARK    3  A    between atoms: C_3  and  O_8
REMARK    4  A    between atoms: C_4  and  O_10
REMARK    5  A    between atoms: C_5  and  O_12
REMARK    6  A    between atoms: C_14  and  C_15
REMARK    7  A    between atoms: C_15  and  C_16
REMARK    8  A    between atoms: C_18  and  O_19
REMARK                            x       y       z     vdW  Elec       q    Type
REMARK                         _______ _______ _______ _____ _____    ______ ____
ROOT
ATOM      1  N   UNL     1      31.881  -8.896 -22.880  0.00  0.00    +0.393 N 
ATOM      2  C   UNL     1      31.620  -7.445 -22.791  0.00  0.00    +0.002 C 
ATOM      3  C   UNL     1      32.433  -6.753 -21.675  0.00  0.00    +0.123 C 
ATOM      4  C   UNL     1      32.233  -7.445 -20.323  0.00  0.00    +0.160 C 
ATOM      5  C   UNL     1      32.434  -8.955 -20.430  0.00  0.00    +0.119 C 
ATOM      6  C   UNL     1      31.628  -9.546 -21.587  0.00  0.00    -0.045 C 
ATOM      7  H   UNL     1      31.224  -9.257 -23.571  0.00  0.00    -0.079 HD
ENDROOT
BRANCH   3   8
ATOM      8  O   UNL     1      32.000  -5.399 -21.523  0.00  0.00    -0.384 OA
ATOM      9  H   UNL     1      32.181  -5.101 -20.617  0.00  0.00    +0.210 HD
ENDBRANCH   3   8
BRANCH   4  10
ATOM     10  O   UNL     1      33.186  -6.932 -19.389  0.00  0.00    -0.380 OA
ATOM     11  H   UNL     1      33.363  -7.601 -18.709  0.00  0.00    +0.211 HD
ENDBRANCH   4  10
BRANCH   5  12
ATOM     12  O   UNL     1      32.022  -9.576 -19.211  0.00  0.00    -0.384 OA
ATOM     13  H   UNL     1      32.278 -10.511 -19.222  0.00  0.00    +0.210 HD
ENDBRANCH   5  12
BRANCH   1  14
ATOM     14  C   UNL     1      33.203  -9.243 -23.403  0.00  0.00    -0.077 C 
BRANCH  14  15
ATOM     15  C   UNL     1      33.300 -10.748 -23.645  0.00  0.00    -0.023 C 
BRANCH  15  16
ATOM     16  C   UNL     1      34.121 -11.054 -24.898  0.00  0.00    -0.002 C 
ATOM     17  C   UNL     1      35.249 -10.051 -25.083  0.00  0.00    -0.000 C 
ENDBRANCH  15  16
ENDBRANCH  14  15
ENDBRANCH   1  14
BRANCH   2  18
ATOM     18  C   UNL     1      31.788  -6.742 -24.145  0.00  0.00    +0.119 C 
BRANCH  18  19
ATOM     19  O   UNL     1      30.904  -5.642 -24.179  0.00  0.00    -0.384 OA
ATOM     20  H   UNL     1      30.352  -5.693 -24.975  0.00  0.00    +0.210 HD
ENDBRANCH  18  19
ENDBRANCH   2  18
TORSDOF 8
ENDMDL
