MODEL 1
REMARK VINA RESULT:      -8.2      0.000      0.000
REMARK  Name = 61119
REMARK  5 active torsions:
REMARK  status: ('A' for Active; 'I' for Inactive)
REMARK    1  A    between atoms: C_2  and  C_9
REMARK    2  A    between atoms: C_2  and  O_17
REMARK    3  A    between atoms: C_3  and  C_15
REMARK    4  A    between atoms: O_17  and  C_19
REMARK    5  A    between atoms: C_19  and  C_20
REMARK                            x       y       z     vdW  Elec       q    Type
REMARK                         _______ _______ _______ _____ _____    ______ ____
ROOT
ATOM      1  N   UNL     1      38.078 -25.350 -15.070  0.00  0.00    +0.386 N 
ATOM      2  C   UNL     1      35.519 -23.881 -14.867  0.00  0.00    +0.150 C 
ATOM      3  C   UNL     1      36.687 -23.407 -15.784  0.00  0.00    +0.020 C 
ATOM      4  C   UNL     1      35.650 -25.404 -14.628  0.00  0.00    +0.022 C 
ATOM      5  C   UNL     1      38.050 -23.891 -15.240  0.00  0.00    -0.074 C 
ATOM      6  C   UNL     1      37.044 -25.793 -14.127  0.00  0.00    -0.074 C 
ATOM      7  C   UNL     1      39.399 -25.789 -14.621  0.00  0.00    -0.101 C 
ATOM      8  H   UNL     1      37.881 -25.776 -15.976  0.00  0.00    -0.080 HD
ENDROOT
BRANCH   2   9
ATOM      9  C   UNL     1      34.146 -23.547 -15.455  0.00  0.00    +0.013 C 
ATOM     10  C   UNL     1      33.978 -23.496 -16.837  0.00  0.00    -0.001 C 
ATOM     11  C   UNL     1      33.072 -23.295 -14.607  0.00  0.00    -0.001 C 
ATOM     12  C   UNL     1      32.726 -23.191 -17.373  0.00  0.00    -0.000 C 
ATOM     13  C   UNL     1      31.820 -22.991 -15.142  0.00  0.00    -0.000 C 
ATOM     14  C   UNL     1      31.648 -22.939 -16.525  0.00  0.00    -0.000 C 
ENDBRANCH   2   9
BRANCH   3  15
ATOM     15  C   UNL     1      36.731 -21.881 -15.951  0.00  0.00    +0.002 C 
ATOM     16  C   UNL     1      36.947 -21.498 -17.399  0.00  0.00    +0.000 C 
ENDBRANCH   3  15
BRANCH   2  17
ATOM     17  O   UNL     1      35.694 -23.239 -13.593  0.00  0.00    -0.452 OA
BRANCH  17  19
ATOM     18  O   UNL     1      34.271 -24.593 -12.382  0.00  0.00    -0.250 OA
ATOM     19  C   UNL     1      35.319 -23.973 -12.500  0.00  0.00    +0.317 C 
BRANCH  19  20
ATOM     20  C   UNL     1      36.408 -23.897 -11.454  0.00  0.00    +0.110 C 
ATOM     21  C   UNL     1      37.467 -22.867 -11.805  0.00  0.00    +0.012 C 
ENDBRANCH  19  20
ENDBRANCH  17  19
ENDBRANCH   2  17
TORSDOF 5
ENDMDL
MODEL 2
REMARK VINA RESULT:      -7.8     15.186     17.396
REMARK  Name = 61119
REMARK  5 active torsions:
REMARK  status: ('A' for Active; 'I' for Inactive)
REMARK    1  A    between atoms: C_2  and  C_9
REMARK    2  A    between atoms: C_2  and  O_17
REMARK    3  A    between atoms: C_3  and  C_15
REMARK    4  A    between atoms: O_17  and  C_19
REMARK    5  A    between atoms: C_19  and  C_20
REMARK                            x       y       z     vdW  Elec       q    Type
REMARK                         _______ _______ _______ _____ _____    ______ ____
ROOT
ATOM      1  N   UNL     1      32.236 -12.278 -23.067  0.00  0.00    +0.386 N 
ATOM      2  C   UNL     1      32.522  -9.335 -23.037  0.00  0.00    +0.150 C 
ATOM      3  C   UNL     1      33.371 -10.250 -23.970  0.00  0.00    +0.020 C 
ATOM      4  C   UNL     1      31.211 -10.069 -22.666  0.00  0.00    +0.022 C 
ATOM      5  C   UNL     1      33.536 -11.661 -23.362  0.00  0.00    -0.074 C 
ATOM      6  C   UNL     1      31.472 -11.472 -22.109  0.00  0.00    -0.074 C 
ATOM      7  C   UNL     1      32.418 -13.638 -22.559  0.00  0.00    -0.101 C 
ATOM      8  H   UNL     1      31.704 -12.322 -23.937  0.00  0.00    -0.080 HD
ENDROOT
BRANCH   2   9
ATOM      9  C   UNL     1      32.214  -7.979 -23.677  0.00  0.00    +0.013 C 
ATOM     10  C   UNL     1      33.257  -7.159 -24.099  0.00  0.00    -0.001 C 
ATOM     11  C   UNL     1      30.892  -7.571 -23.832  0.00  0.00    -0.001 C 
ATOM     12  C   UNL     1      32.976  -5.922 -24.682  0.00  0.00    -0.000 C 
ATOM     13  C   UNL     1      30.610  -6.335 -24.415  0.00  0.00    -0.000 C 
ATOM     14  C   UNL     1      31.652  -5.512 -24.840  0.00  0.00    -0.000 C 
ENDBRANCH   2   9
BRANCH   3  15
ATOM     15  C   UNL     1      34.762  -9.670 -24.267  0.00  0.00    +0.002 C 
ATOM     16  C   UNL     1      35.349 -10.278 -25.523  0.00  0.00    +0.000 C 
ENDBRANCH   3  15
BRANCH   2  17
ATOM     17  O   UNL     1      33.267  -9.163 -21.820  0.00  0.00    -0.452 OA
BRANCH  17  19
ATOM     18  O   UNL     1      31.746  -9.140 -20.086  0.00  0.00    -0.250 OA
ATOM     19  C   UNL     1      32.587  -8.587 -20.782  0.00  0.00    +0.317 C 
BRANCH  19  20
ATOM     20  C   UNL     1      33.038  -7.152 -20.627  0.00  0.00    +0.110 C 
ATOM     21  C   UNL     1      31.876  -6.178 -20.689  0.00  0.00    +0.012 C 
ENDBRANCH  19  20
ENDBRANCH  17  19
ENDBRANCH   2  17
TORSDOF 5
ENDMDL
MODEL 3
REMARK VINA RESULT:      -7.2     15.773     17.871
REMARK  Name = 61119
REMARK  5 active torsions:
REMARK  status: ('A' for Active; 'I' for Inactive)
REMARK    1  A    between atoms: C_2  and  C_9
REMARK    2  A    between atoms: C_2  and  O_17
REMARK    3  A    between atoms: C_3  and  C_15
REMARK    4  A    between atoms: O_17  and  C_19
REMARK    5  A    between atoms: C_19  and  C_20
REMARK                            x       y       z     vdW  Elec       q    Type
REMARK                         _______ _______ _______ _____ _____    ______ ____
ROOT
ATOM      1  N   UNL     1      32.997 -11.075 -23.705  0.00  0.00    +0.386 N 
ATOM      2  C   UNL     1      32.530  -8.293 -22.817  0.00  0.00    +0.150 C 
ATOM      3  C   UNL     1      33.651  -8.672 -23.830  0.00  0.00    +0.020 C 
ATOM      4  C   UNL     1      31.421  -9.371 -22.863  0.00  0.00    +0.022 C 
ATOM      5  C   UNL     1      34.118 -10.129 -23.621  0.00  0.00    -0.074 C 
ATOM      6  C   UNL     1      31.983 -10.785 -22.685  0.00  0.00    -0.074 C 
ATOM      7  C   UNL     1      33.475 -12.451 -23.573  0.00  0.00    -0.101 C 
ATOM      8  H   UNL     1      32.562 -10.965 -24.621  0.00  0.00    -0.080 HD
ENDROOT
BRANCH   2   9
ATOM      9  C   UNL     1      31.941  -6.907 -23.093  0.00  0.00    +0.013 C 
ATOM     10  C   UNL     1      31.214  -6.683 -24.259  0.00  0.00    -0.001 C 
ATOM     11  C   UNL     1      32.135  -5.877 -22.177  0.00  0.00    -0.001 C 
ATOM     12  C   UNL     1      30.677  -5.420 -24.511  0.00  0.00    -0.000 C 
ATOM     13  C   UNL     1      31.598  -4.614 -22.428  0.00  0.00    -0.000 C 
ATOM     14  C   UNL     1      30.869  -4.386 -23.595  0.00  0.00    -0.000 C 
ENDBRANCH   2   9
BRANCH   3  15
ATOM     15  C   UNL     1      34.870  -7.741 -23.745  0.00  0.00    +0.002 C 
ATOM     16  C   UNL     1      34.842  -6.703 -24.846  0.00  0.00    +0.000 C 
ENDBRANCH   3  15
BRANCH   2  17
ATOM     17  O   UNL     1      33.112  -8.343 -21.503  0.00  0.00    -0.452 OA
BRANCH  17  19
ATOM     18  O   UNL     1      31.405  -7.630 -20.124  0.00  0.00    -0.250 OA
ATOM     19  C   UNL     1      32.228  -8.468 -20.465  0.00  0.00    +0.317 C 
BRANCH  19  20
ATOM     20  C   UNL     1      32.429  -9.812 -19.802  0.00  0.00    +0.110 C 
ATOM     21  C   UNL     1      31.156 -10.324 -19.152  0.00  0.00    +0.012 C 
ENDBRANCH  19  20
ENDBRANCH  17  19
ENDBRANCH   2  17
TORSDOF 5
ENDMDL
MODEL 4
REMARK VINA RESULT:      -7.1      1.891      3.978
REMARK  Name = 61119
REMARK  5 active torsions:
REMARK  status: ('A' for Active; 'I' for Inactive)
REMARK    1  A    between atoms: C_2  and  C_9
REMARK    2  A    between atoms: C_2  and  O_17
REMARK    3  A    between atoms: C_3  and  C_15
REMARK    4  A    between atoms: O_17  and  C_19
REMARK    5  A    between atoms: C_19  and  C_20
REMARK                            x       y       z     vdW  Elec       q    Type
REMARK                         _______ _______ _______ _____ _____    ______ ____
ROOT
ATOM      1  N   UNL     1      35.893 -23.269 -11.992  0.00  0.00    +0.386 N 
ATOM      2  C   UNL     1      36.048 -23.485 -14.937  0.00  0.00    +0.150 C 
ATOM      3  C   UNL     1      34.710 -23.645 -14.155  0.00  0.00    +0.020 C 
ATOM      4  C   UNL     1      37.031 -22.642 -14.090  0.00  0.00    +0.022 C 
ATOM      5  C   UNL     1      34.965 -24.149 -12.717  0.00  0.00    -0.074 C 
ATOM      6  C   UNL     1      37.191 -23.194 -12.671  0.00  0.00    -0.074 C 
ATOM      7  C   UNL     1      36.063 -23.728 -10.613  0.00  0.00    -0.101 C 
ATOM      8  H   UNL     1      35.490 -22.332 -11.978  0.00  0.00    -0.080 HD
ENDROOT
BRANCH   2   9
ATOM      9  C   UNL     1      35.843 -22.846 -16.314  0.00  0.00    +0.013 C 
ATOM     10  C   UNL     1      36.856 -22.073 -16.876  0.00  0.00    -0.001 C 
ATOM     11  C   UNL     1      34.646 -23.040 -16.997  0.00  0.00    -0.001 C 
ATOM     12  C   UNL     1      36.670 -21.491 -18.130  0.00  0.00    -0.000 C 
ATOM     13  C   UNL     1      34.459 -22.459 -18.251  0.00  0.00    -0.000 C 
ATOM     14  C   UNL     1      35.472 -21.685 -18.817  0.00  0.00    -0.000 C 
ENDBRANCH   2   9
BRANCH   3  15
ATOM     15  C   UNL     1      33.725 -24.598 -14.849  0.00  0.00    +0.002 C 
ATOM     16  C   UNL     1      32.431 -24.705 -14.070  0.00  0.00    +0.000 C 
ENDBRANCH   3  15
BRANCH   2  17
ATOM     17  O   UNL     1      36.622 -24.796 -15.068  0.00  0.00    -0.452 OA
BRANCH  17  19
ATOM     18  O   UNL     1      38.771 -24.050 -15.451  0.00  0.00    -0.250 OA
ATOM     19  C   UNL     1      37.986 -24.860 -14.978  0.00  0.00    +0.317 C 
BRANCH  19  20
ATOM     20  C   UNL     1      38.375 -26.097 -14.199  0.00  0.00    +0.110 C 
ATOM     21  C   UNL     1      37.162 -26.864 -13.705  0.00  0.00    +0.012 C 
ENDBRANCH  19  20
ENDBRANCH  17  19
ENDBRANCH   2  17
TORSDOF 5
ENDMDL
MODEL 5
REMARK VINA RESULT:      -6.8      1.989      4.438
REMARK  Name = 61119
REMARK  5 active torsions:
REMARK  status: ('A' for Active; 'I' for Inactive)
REMARK    1  A    between atoms: C_2  and  C_9
REMARK    2  A    between atoms: C_2  and  O_17
REMARK    3  A    between atoms: C_3  and  C_15
REMARK    4  A    between atoms: O_17  and  C_19
REMARK    5  A    between atoms: C_19  and  C_20
REMARK                            x       y       z     vdW  Elec       q    Type
REMARK                         _______ _______ _______ _____ _____    ______ ____
ROOT
ATOM      1  N   UNL     1      33.910 -22.966 -17.155  0.00  0.00    +0.386 N 
ATOM      2  C   UNL     1      35.671 -23.824 -14.941  0.00  0.00    +0.150 C 
ATOM      3  C   UNL     1      35.830 -22.447 -15.651  0.00  0.00    +0.020 C 
ATOM      4  C   UNL     1      34.215 -24.317 -15.113  0.00  0.00    +0.022 C 
ATOM      5  C   UNL     1      35.305 -22.508 -17.103  0.00  0.00    -0.074 C 
ATOM      6  C   UNL     1      33.771 -24.308 -16.579  0.00  0.00    -0.074 C 
ATOM      7  C   UNL     1      33.416 -22.948 -18.532  0.00  0.00    -0.101 C 
ATOM      8  H   UNL     1      33.348 -22.323 -16.597  0.00  0.00    -0.080 HD
ENDROOT
BRANCH   2   9
ATOM      9  C   UNL     1      36.043 -23.760 -13.457  0.00  0.00    +0.013 C 
ATOM     10  C   UNL     1      35.254 -24.417 -12.516  0.00  0.00    -0.001 C 
ATOM     11  C   UNL     1      37.166 -23.043 -13.054  0.00  0.00    -0.001 C 
ATOM     12  C   UNL     1      35.593 -24.358 -11.164  0.00  0.00    -0.000 C 
ATOM     13  C   UNL     1      37.505 -22.983 -11.703  0.00  0.00    -0.000 C 
ATOM     14  C   UNL     1      36.718 -23.641 -10.758  0.00  0.00    -0.000 C 
ENDBRANCH   2   9
BRANCH   3  15
ATOM     15  C   UNL     1      37.283 -21.949 -15.667  0.00  0.00    +0.002 C 
ATOM     16  C   UNL     1      37.546 -21.077 -16.876  0.00  0.00    +0.000 C 
ENDBRANCH   3  15
BRANCH   2  17
ATOM     17  O   UNL     1      36.517 -24.758 -15.634  0.00  0.00    -0.452 OA
BRANCH  17  19
ATOM     18  O   UNL     1      35.760 -26.876 -15.122  0.00  0.00    -0.250 OA
ATOM     19  C   UNL     1      36.614 -26.003 -15.072  0.00  0.00    +0.317 C 
BRANCH  19  20
ATOM     20  C   UNL     1      37.951 -26.130 -14.377  0.00  0.00    +0.110 C 
ATOM     21  C   UNL     1      39.029 -25.305 -15.056  0.00  0.00    +0.012 C 
ENDBRANCH  19  20
ENDBRANCH  17  19
ENDBRANCH   2  17
TORSDOF 5
ENDMDL
MODEL 6
REMARK VINA RESULT:      -6.6     15.133     17.572
REMARK  Name = 61119
REMARK  5 active torsions:
REMARK  status: ('A' for Active; 'I' for Inactive)
REMARK    1  A    between atoms: C_2  and  C_9
REMARK    2  A    between atoms: C_2  and  O_17
REMARK    3  A    between atoms: C_3  and  C_15
REMARK    4  A    between atoms: O_17  and  C_19
REMARK    5  A    between atoms: C_19  and  C_20
REMARK                            x       y       z     vdW  Elec       q    Type
REMARK                         _______ _______ _______ _____ _____    ______ ____
ROOT
ATOM      1  N   UNL     1      35.231 -10.157 -25.055  0.00  0.00    +0.386 N 
ATOM      2  C   UNL     1      33.121  -9.210 -23.213  0.00  0.00    +0.150 C 
ATOM      3  C   UNL     1      33.468 -10.719 -23.384  0.00  0.00    +0.020 C 
ATOM      4  C   UNL     1      34.352  -8.360 -23.609  0.00  0.00    +0.022 C 
ATOM      5  C   UNL     1      34.056 -10.997 -24.786  0.00  0.00    -0.074 C 
ATOM      6  C   UNL     1      34.888  -8.732 -24.995  0.00  0.00    -0.074 C 
ATOM      7  C   UNL     1      35.810 -10.488 -26.357  0.00  0.00    -0.101 C 
ATOM      8  H   UNL     1      35.925 -10.344 -24.331  0.00  0.00    -0.080 HD
ENDROOT
BRANCH   2   9
ATOM      9  C   UNL     1      32.676  -8.874 -21.787  0.00  0.00    +0.013 C 
ATOM     10  C   UNL     1      31.950  -9.806 -21.050  0.00  0.00    -0.001 C 
ATOM     11  C   UNL     1      32.997  -7.637 -21.234  0.00  0.00    -0.001 C 
ATOM     12  C   UNL     1      31.545  -9.500 -19.750  0.00  0.00    -0.000 C 
ATOM     13  C   UNL     1      32.592  -7.331 -19.935  0.00  0.00    -0.000 C 
ATOM     14  C   UNL     1      31.866  -8.263 -19.193  0.00  0.00    -0.000 C 
ENDBRANCH   2   9
BRANCH   3  15
ATOM     15  C   UNL     1      32.256 -11.637 -23.162  0.00  0.00    +0.002 C 
ATOM     16  C   UNL     1      32.695 -13.051 -22.847  0.00  0.00    +0.000 C 
ENDBRANCH   3  15
BRANCH   2  17
ATOM     17  O   UNL     1      32.078  -8.905 -24.153  0.00  0.00    -0.452 OA
BRANCH  17  19
ATOM     18  O   UNL     1      30.319  -7.724 -23.241  0.00  0.00    -0.250 OA
ATOM     19  C   UNL     1      31.353  -7.774 -23.892  0.00  0.00    +0.317 C 
BRANCH  19  20
ATOM     20  C   UNL     1      32.033  -6.588 -24.538  0.00  0.00    +0.110 C 
ATOM     21  C   UNL     1      31.661  -5.279 -23.864  0.00  0.00    +0.012 C 
ENDBRANCH  19  20
ENDBRANCH  17  19
ENDBRANCH   2  17
TORSDOF 5
ENDMDL
MODEL 7
REMARK VINA RESULT:      -6.4     15.095     17.650
REMARK  Name = 61119
REMARK  5 active torsions:
REMARK  status: ('A' for Active; 'I' for Inactive)
REMARK    1  A    between atoms: C_2  and  C_9
REMARK    2  A    between atoms: C_2  and  O_17
REMARK    3  A    between atoms: C_3  and  C_15
REMARK    4  A    between atoms: O_17  and  C_19
REMARK    5  A    between atoms: C_19  and  C_20
REMARK                            x       y       z     vdW  Elec       q    Type
REMARK                         _______ _______ _______ _____ _____    ______ ____
ROOT
ATOM      1  N   UNL     1      30.924  -6.692 -22.571  0.00  0.00    +0.386 N 
ATOM      2  C   UNL     1      32.560  -9.149 -22.743  0.00  0.00    +0.150 C 
ATOM      3  C   UNL     1      31.823  -8.723 -21.438  0.00  0.00    +0.020 C 
ATOM      4  C   UNL     1      31.843  -8.514 -23.959  0.00  0.00    +0.022 C 
ATOM      5  C   UNL     1      31.632  -7.191 -21.384  0.00  0.00    -0.074 C 
ATOM      6  C   UNL     1      31.664  -7.001 -23.799  0.00  0.00    -0.074 C 
ATOM      7  C   UNL     1      30.694  -5.251 -22.463  0.00  0.00    -0.101 C 
ATOM      8  H   UNL     1      30.021  -7.165 -22.620  0.00  0.00    -0.080 HD
ENDROOT
BRANCH   2   9
ATOM      9  C   UNL     1      32.633 -10.670 -22.899  0.00  0.00    +0.013 C 
ATOM     10  C   UNL     1      31.800 -11.486 -22.138  0.00  0.00    -0.001 C 
ATOM     11  C   UNL     1      33.532 -11.232 -23.801  0.00  0.00    -0.001 C 
ATOM     12  C   UNL     1      31.867 -12.872 -22.280  0.00  0.00    -0.000 C 
ATOM     13  C   UNL     1      33.600 -12.618 -23.945  0.00  0.00    -0.000 C 
ATOM     14  C   UNL     1      32.766 -13.438 -23.183  0.00  0.00    -0.000 C 
ENDBRANCH   2   9
BRANCH   3  15
ATOM     15  C   UNL     1      32.554  -9.178 -20.166  0.00  0.00    +0.002 C 
ATOM     16  C   UNL     1      31.606  -9.874 -19.212  0.00  0.00    +0.000 C 
ENDBRANCH   3  15
BRANCH   2  17
ATOM     17  O   UNL     1      33.879  -8.582 -22.689  0.00  0.00    -0.452 OA
BRANCH  17  19
ATOM     18  O   UNL     1      34.784  -9.154 -24.733  0.00  0.00    -0.250 OA
ATOM     19  C   UNL     1      34.464  -8.319 -23.898  0.00  0.00    +0.317 C 
BRANCH  19  20
ATOM     20  C   UNL     1      34.655  -6.826 -24.043  0.00  0.00    +0.110 C 
ATOM     21  C   UNL     1      34.721  -6.397 -25.498  0.00  0.00    +0.012 C 
ENDBRANCH  19  20
ENDBRANCH  17  19
ENDBRANCH   2  17
TORSDOF 5
ENDMDL
MODEL 8
REMARK VINA RESULT:      -6.4     15.537     17.915
REMARK  Name = 61119
REMARK  5 active torsions:
REMARK  status: ('A' for Active; 'I' for Inactive)
REMARK    1  A    between atoms: C_2  and  C_9
REMARK    2  A    between atoms: C_2  and  O_17
REMARK    3  A    between atoms: C_3  and  C_15
REMARK    4  A    between atoms: O_17  and  C_19
REMARK    5  A    between atoms: C_19  and  C_20
REMARK                            x       y       z     vdW  Elec       q    Type
REMARK                         _______ _______ _______ _____ _____    ______ ____
ROOT
ATOM      1  N   UNL     1      31.071  -5.985 -23.852  0.00  0.00    +0.386 N 
ATOM      2  C   UNL     1      32.087  -8.309 -22.332  0.00  0.00    +0.150 C 
ATOM      3  C   UNL     1      31.889  -6.906 -21.684  0.00  0.00    +0.020 C 
ATOM      4  C   UNL     1      31.155  -8.435 -23.561  0.00  0.00    +0.022 C 
ATOM      5  C   UNL     1      32.011  -5.785 -22.740  0.00  0.00    -0.074 C 
ATOM      6  C   UNL     1      31.319  -7.261 -24.532  0.00  0.00    -0.074 C 
ATOM      7  C   UNL     1      31.157  -4.875 -24.802  0.00  0.00    -0.101 C 
ATOM      8  H   UNL     1      30.127  -6.013 -23.465  0.00  0.00    -0.080 HD
ENDROOT
BRANCH   2   9
ATOM      9  C   UNL     1      31.825  -9.448 -21.343  0.00  0.00    +0.013 C 
ATOM     10  C   UNL     1      31.087 -10.558 -21.745  0.00  0.00    -0.001 C 
ATOM     11  C   UNL     1      32.326  -9.369 -20.047  0.00  0.00    -0.001 C 
ATOM     12  C   UNL     1      30.848 -11.597 -20.844  0.00  0.00    -0.000 C 
ATOM     13  C   UNL     1      32.088 -10.407 -19.145  0.00  0.00    -0.000 C 
ATOM     14  C   UNL     1      31.349 -11.520 -19.545  0.00  0.00    -0.000 C 
ENDBRANCH   2   9
BRANCH   3  15
ATOM     15  C   UNL     1      32.884  -6.629 -20.548  0.00  0.00    +0.002 C 
ATOM     16  C   UNL     1      32.173  -6.122 -19.311  0.00  0.00    +0.000 C 
ENDBRANCH   3  15
BRANCH   2  17
ATOM     17  O   UNL     1      33.438  -8.363 -22.820  0.00  0.00    -0.452 OA
BRANCH  17  19
ATOM     18  O   UNL     1      33.148 -10.501 -23.639  0.00  0.00    -0.250 OA
ATOM     19  C   UNL     1      33.738  -9.429 -23.625  0.00  0.00    +0.317 C 
BRANCH  19  20
ATOM     20  C   UNL     1      34.920  -9.075 -24.499  0.00  0.00    +0.110 C 
ATOM     21  C   UNL     1      35.324 -10.223 -25.406  0.00  0.00    +0.012 C 
ENDBRANCH  19  20
ENDBRANCH  17  19
ENDBRANCH   2  17
TORSDOF 5
ENDMDL
MODEL 9
REMARK VINA RESULT:      -6.1     11.826     14.482
REMARK  Name = 61119
REMARK  5 active torsions:
REMARK  status: ('A' for Active; 'I' for Inactive)
REMARK    1  A    between atoms: C_2  and  C_9
REMARK    2  A    between atoms: C_2  and  O_17
REMARK    3  A    between atoms: C_3  and  C_15
REMARK    4  A    between atoms: O_17  and  C_19
REMARK    5  A    between atoms: C_19  and  C_20
REMARK                            x       y       z     vdW  Elec       q    Type
REMARK                         _______ _______ _______ _____ _____    ______ ____
ROOT
ATOM      1  N   UNL     1      31.268 -12.149 -21.078  0.00  0.00    +0.386 N 
ATOM      2  C   UNL     1      33.092 -13.338 -23.078  0.00  0.00    +0.150 C 
ATOM      3  C   UNL     1      33.028 -13.836 -21.603  0.00  0.00    +0.020 C 
ATOM      4  C   UNL     1      31.749 -12.663 -23.443  0.00  0.00    +0.022 C 
ATOM      5  C   UNL     1      32.561 -12.707 -20.657  0.00  0.00    -0.074 C 
ATOM      6  C   UNL     1      31.349 -11.586 -22.430  0.00  0.00    -0.074 C 
ATOM      7  C   UNL     1      30.815 -11.133 -20.128  0.00  0.00    -0.101 C 
ATOM      8  H   UNL     1      30.588 -12.909 -21.093  0.00  0.00    -0.080 HD
ENDROOT
BRANCH   2   9
ATOM      9  C   UNL     1      33.407 -14.470 -24.060  0.00  0.00    +0.013 C 
ATOM     10  C   UNL     1      34.365 -15.426 -23.732  0.00  0.00    -0.001 C 
ATOM     11  C   UNL     1      32.735 -14.538 -25.278  0.00  0.00    -0.001 C 
ATOM     12  C   UNL     1      34.652 -16.457 -24.628  0.00  0.00    -0.000 C 
ATOM     13  C   UNL     1      33.021 -15.569 -26.173  0.00  0.00    -0.000 C 
ATOM     14  C   UNL     1      33.980 -16.528 -25.847  0.00  0.00    -0.000 C 
ENDBRANCH   2   9
BRANCH   3  15
ATOM     15  C   UNL     1      34.372 -14.383 -21.100  0.00  0.00    +0.002 C 
ATOM     16  C   UNL     1      34.173 -15.618 -20.248  0.00  0.00    +0.000 C 
ENDBRANCH   3  15
BRANCH   2  17
ATOM     17  O   UNL     1      34.105 -12.320 -23.138  0.00  0.00    -0.452 OA
BRANCH  17  19
ATOM     18  O   UNL     1      34.108 -11.859 -25.398  0.00  0.00    -0.250 OA
ATOM     19  C   UNL     1      34.059 -11.498 -24.231  0.00  0.00    +0.317 C 
BRANCH  19  20
ATOM     20  C   UNL     1      33.935 -10.064 -23.768  0.00  0.00    +0.110 C 
ATOM     21  C   UNL     1      35.000  -9.172 -24.381  0.00  0.00    +0.012 C 
ENDBRANCH  19  20
ENDBRANCH  17  19
ENDBRANCH   2  17
TORSDOF 5
ENDMDL
