MODEL 1
REMARK VINA RESULT:      -9.4      0.000      0.000
REMARK  Name = 441300
REMARK  4 active torsions:
REMARK  status: ('A' for Active; 'I' for Inactive)
REMARK    1  A    between atoms: N_1  and  C_13
REMARK    2  A    between atoms: C_15  and  C_18
REMARK    3  A    between atoms: C_18  and  O_19
REMARK    4  A    between atoms: N_21  and  C_23
REMARK                            x       y       z     vdW  Elec       q    Type
REMARK                         _______ _______ _______ _____ _____    ______ ____
ROOT
ATOM      1  N   UNL     1      34.386 -19.814 -21.062  0.00  0.00    -0.262 N 
ATOM      2  N   UNL     1      32.495 -20.694 -20.273  0.00  0.00    -0.240 NA
ATOM      3  N   UNL     1      34.882 -22.367 -17.996  0.00  0.00    -0.312 NA
ATOM      4  N   UNL     1      35.991 -20.889 -19.590  0.00  0.00    -0.311 NA
ATOM      5  N   UNL     1      37.210 -22.105 -18.005  0.00  0.00    -0.283 N 
ATOM      6  C   UNL     1      33.660 -22.073 -18.502  0.00  0.00    +0.215 C 
ATOM      7  C   UNL     1      34.751 -20.644 -20.040  0.00  0.00    +0.220 C 
ATOM      8  C   UNL     1      33.565 -21.179 -19.564  0.00  0.00    +0.167 C 
ATOM      9  C   UNL     1      33.021 -19.878 -21.163  0.00  0.00    +0.222 C 
ATOM     10  C   UNL     1      35.955 -21.766 -18.563  0.00  0.00    +0.199 C 
ATOM     11  H   UNL     1      37.258 -22.738 -17.253  0.00  0.00    +0.156 HD
ATOM     12  H   UNL     1      38.033 -21.706 -18.367  0.00  0.00    +0.156 HD
ATOM     13  N   UNL     1      32.507 -22.665 -17.956  0.00  0.00    -0.308 N 
ATOM     14  H   UNL     1      31.636 -22.427 -18.349  0.00  0.00    +0.149 HD
ENDROOT
BRANCH   1  15
ATOM     15  C   UNL     1      35.275 -19.005 -21.897  0.00  0.00    +0.077 C 
ATOM     16  C   UNL     1      35.090 -17.488 -21.706  0.00  0.00    +0.022 C 
ATOM     17  C   UNL     1      35.265 -16.863 -23.100  0.00  0.00    +0.031 C 
ATOM     18  C   UNL     1      35.060 -19.193 -23.367  0.00  0.00    +0.020 C 
ATOM     19  C   UNL     1      35.049 -18.026 -24.019  0.00  0.00    +0.004 C 
BRANCH  17  20
ATOM     20  C   UNL     1      34.286 -15.724 -23.348  0.00  0.00    +0.137 C 
BRANCH  20  21
ATOM     21  O   UNL     1      34.904 -14.505 -22.970  0.00  0.00    -0.382 OA
ATOM     22  H   UNL     1      35.156 -14.011 -23.766  0.00  0.00    +0.210 HD
ENDBRANCH  20  21
ENDBRANCH  17  20
ENDBRANCH   1  15
BRANCH  13  23
ATOM     23  C   UNL     1      32.521 -23.611 -16.842  0.00  0.00    +0.071 C 
ATOM     24  C   UNL     1      32.507 -23.140 -15.416  0.00  0.00    +0.021 C 
ATOM     25  C   UNL     1      31.305 -23.832 -15.990  0.00  0.00    +0.021 C 
ENDBRANCH  13  23
TORSDOF 4
ENDMDL
MODEL 2
REMARK VINA RESULT:      -9.4      5.728      8.290
REMARK  Name = 441300
REMARK  4 active torsions:
REMARK  status: ('A' for Active; 'I' for Inactive)
REMARK    1  A    between atoms: N_1  and  C_13
REMARK    2  A    between atoms: C_15  and  C_18
REMARK    3  A    between atoms: C_18  and  O_19
REMARK    4  A    between atoms: N_21  and  C_23
REMARK                            x       y       z     vdW  Elec       q    Type
REMARK                         _______ _______ _______ _____ _____    ______ ____
ROOT
ATOM      1  N   UNL     1      34.589 -24.052 -15.087  0.00  0.00    -0.262 N 
ATOM      2  N   UNL     1      32.547 -23.987 -14.193  0.00  0.00    -0.240 NA
ATOM      3  N   UNL     1      31.726 -22.674 -17.552  0.00  0.00    -0.312 NA
ATOM      4  N   UNL     1      34.098 -23.194 -17.306  0.00  0.00    -0.311 NA
ATOM      5  N   UNL     1      33.239 -22.341 -19.309  0.00  0.00    -0.283 N 
ATOM      6  C   UNL     1      31.461 -23.064 -16.281  0.00  0.00    +0.215 C 
ATOM      7  C   UNL     1      33.763 -23.563 -16.061  0.00  0.00    +0.220 C 
ATOM      8  C   UNL     1      32.503 -23.531 -15.486  0.00  0.00    +0.167 C 
ATOM      9  C   UNL     1      33.812 -24.291 -13.985  0.00  0.00    +0.222 C 
ATOM     10  C   UNL     1      33.009 -22.762 -17.979  0.00  0.00    +0.199 C 
ATOM     11  H   UNL     1      32.490 -22.014 -19.858  0.00  0.00    +0.156 HD
ATOM     12  H   UNL     1      34.147 -22.377 -19.686  0.00  0.00    +0.156 HD
ATOM     13  N   UNL     1      30.149 -22.997 -15.780  0.00  0.00    -0.308 N 
ATOM     14  H   UNL     1      29.994 -23.288 -14.853  0.00  0.00    +0.149 HD
ENDROOT
BRANCH   1  15
ATOM     15  C   UNL     1      36.031 -24.281 -15.192  0.00  0.00    +0.077 C 
ATOM     16  C   UNL     1      36.504 -25.565 -14.488  0.00  0.00    +0.022 C 
ATOM     17  C   UNL     1      37.869 -25.226 -13.866  0.00  0.00    +0.031 C 
ATOM     18  C   UNL     1      36.860 -23.213 -14.549  0.00  0.00    +0.020 C 
ATOM     19  C   UNL     1      37.857 -23.729 -13.823  0.00  0.00    +0.004 C 
BRANCH  17  20
ATOM     20  C   UNL     1      38.048 -25.856 -12.492  0.00  0.00    +0.137 C 
BRANCH  20  21
ATOM     21  O   UNL     1      36.838 -26.496 -12.125  0.00  0.00    -0.382 OA
ATOM     22  H   UNL     1      36.972 -26.992 -11.302  0.00  0.00    +0.210 HD
ENDBRANCH  20  21
ENDBRANCH  17  20
ENDBRANCH   1  15
BRANCH  13  23
ATOM     23  C   UNL     1      29.001 -22.519 -16.550  0.00  0.00    +0.071 C 
ATOM     24  C   UNL     1      27.960 -23.468 -17.071  0.00  0.00    +0.021 C 
ATOM     25  C   UNL     1      27.618 -22.512 -15.966  0.00  0.00    +0.021 C 
ENDBRANCH  13  23
TORSDOF 4
ENDMDL
MODEL 3
REMARK VINA RESULT:      -9.2      2.974      4.729
REMARK  Name = 441300
REMARK  4 active torsions:
REMARK  status: ('A' for Active; 'I' for Inactive)
REMARK    1  A    between atoms: N_1  and  C_13
REMARK    2  A    between atoms: C_15  and  C_18
REMARK    3  A    between atoms: C_18  and  O_19
REMARK    4  A    between atoms: N_21  and  C_23
REMARK                            x       y       z     vdW  Elec       q    Type
REMARK                         _______ _______ _______ _____ _____    ______ ____
ROOT
ATOM      1  N   UNL     1      35.485 -21.960 -18.415  0.00  0.00    -0.262 N 
ATOM      2  N   UNL     1      37.156 -21.992 -16.939  0.00  0.00    -0.240 NA
ATOM      3  N   UNL     1      34.533 -23.541 -14.843  0.00  0.00    -0.312 NA
ATOM      4  N   UNL     1      33.729 -22.973 -17.076  0.00  0.00    -0.311 NA
ATOM      5  N   UNL     1      32.323 -23.968 -15.493  0.00  0.00    -0.283 N 
ATOM      6  C   UNL     1      35.772 -23.068 -15.117  0.00  0.00    +0.215 C 
ATOM      7  C   UNL     1      34.977 -22.524 -17.278  0.00  0.00    +0.220 C 
ATOM      8  C   UNL     1      36.029 -22.535 -16.377  0.00  0.00    +0.167 C 
ATOM      9  C   UNL     1      36.797 -21.657 -18.161  0.00  0.00    +0.222 C 
ATOM     10  C   UNL     1      33.602 -23.465 -15.824  0.00  0.00    +0.199 C 
ATOM     11  H   UNL     1      32.159 -24.342 -14.597  0.00  0.00    +0.156 HD
ATOM     12  H   UNL     1      31.597 -23.944 -16.157  0.00  0.00    +0.156 HD
ATOM     13  N   UNL     1      36.781 -23.119 -14.139  0.00  0.00    -0.308 N 
ATOM     14  H   UNL     1      37.670 -22.766 -14.374  0.00  0.00    +0.149 HD
ENDROOT
BRANCH   1  15
ATOM     15  C   UNL     1      34.772 -21.720 -19.670  0.00  0.00    +0.077 C 
ATOM     16  C   UNL     1      35.396 -20.607 -20.531  0.00  0.00    +0.022 C 
ATOM     17  C   UNL     1      34.216 -19.857 -21.171  0.00  0.00    +0.031 C 
ATOM     18  C   UNL     1      33.360 -21.256 -19.484  0.00  0.00    +0.020 C 
ATOM     19  C   UNL     1      33.061 -20.239 -20.297  0.00  0.00    +0.004 C 
BRANCH  17  20
ATOM     20  C   UNL     1      34.447 -18.353 -21.221  0.00  0.00    +0.137 C 
BRANCH  20  21
ATOM     21  O   UNL     1      35.698 -18.067 -20.618  0.00  0.00    -0.382 OA
ATOM     22  H   UNL     1      36.350 -18.728 -20.898  0.00  0.00    +0.210 HD
ENDBRANCH  20  21
ENDBRANCH  17  20
ENDBRANCH   1  15
BRANCH  13  23
ATOM     23  C   UNL     1      36.593 -23.663 -12.795  0.00  0.00    +0.071 C 
ATOM     24  C   UNL     1      37.741 -24.239 -12.017  0.00  0.00    +0.021 C 
ATOM     25  C   UNL     1      37.115 -22.946 -11.583  0.00  0.00    +0.021 C 
ENDBRANCH  13  23
TORSDOF 4
ENDMDL
MODEL 4
REMARK VINA RESULT:      -9.0      3.817      6.538
REMARK  Name = 441300
REMARK  4 active torsions:
REMARK  status: ('A' for Active; 'I' for Inactive)
REMARK    1  A    between atoms: N_1  and  C_13
REMARK    2  A    between atoms: C_15  and  C_18
REMARK    3  A    between atoms: C_18  and  O_19
REMARK    4  A    between atoms: N_21  and  C_23
REMARK                            x       y       z     vdW  Elec       q    Type
REMARK                         _______ _______ _______ _____ _____    ______ ____
ROOT
ATOM      1  N   UNL     1      33.532 -14.289 -22.409  0.00  0.00    -0.262 N 
ATOM      2  N   UNL     1      34.395 -15.318 -20.629  0.00  0.00    -0.240 NA
ATOM      3  N   UNL     1      35.117 -17.905 -23.172  0.00  0.00    -0.312 NA
ATOM      4  N   UNL     1      33.985 -15.959 -24.115  0.00  0.00    -0.311 NA
ATOM      5  N   UNL     1      34.587 -17.783 -25.451  0.00  0.00    -0.283 N 
ATOM      6  C   UNL     1      35.112 -17.365 -21.930  0.00  0.00    +0.215 C 
ATOM      7  C   UNL     1      34.015 -15.486 -22.860  0.00  0.00    +0.220 C 
ATOM      8  C   UNL     1      34.546 -16.108 -21.741  0.00  0.00    +0.167 C 
ATOM      9  C   UNL     1      33.783 -14.236 -21.064  0.00  0.00    +0.222 C 
ATOM     10  C   UNL     1      34.562 -17.179 -24.172  0.00  0.00    +0.199 C 
ATOM     11  H   UNL     1      34.993 -18.673 -25.566  0.00  0.00    +0.156 HD
ATOM     12  H   UNL     1      34.201 -17.314 -26.224  0.00  0.00    +0.156 HD
ATOM     13  N   UNL     1      35.674 -18.069 -20.850  0.00  0.00    -0.308 N 
ATOM     14  H   UNL     1      35.652 -17.645 -19.961  0.00  0.00    +0.149 HD
ENDROOT
BRANCH   1  15
ATOM     15  C   UNL     1      32.870 -13.255 -23.205  0.00  0.00    +0.077 C 
ATOM     16  C   UNL     1      33.834 -12.451 -24.096  0.00  0.00    +0.022 C 
ATOM     17  C   UNL     1      33.317 -11.002 -24.077  0.00  0.00    +0.031 C 
ATOM     18  C   UNL     1      32.201 -12.196 -22.383  0.00  0.00    +0.020 C 
ATOM     19  C   UNL     1      32.450 -10.971 -22.856  0.00  0.00    +0.004 C 
BRANCH  17  20
ATOM     20  C   UNL     1      34.451  -9.987 -24.024  0.00  0.00    +0.137 C 
BRANCH  20  21
ATOM     21  O   UNL     1      35.489 -10.422 -24.886  0.00  0.00    -0.382 OA
ATOM     22  H   UNL     1      36.318 -10.485 -24.386  0.00  0.00    +0.210 HD
ENDBRANCH  20  21
ENDBRANCH  17  20
ENDBRANCH   1  15
BRANCH  13  23
ATOM     23  C   UNL     1      36.287 -19.391 -20.964  0.00  0.00    +0.071 C 
ATOM     24  C   UNL     1      36.786 -20.128 -19.755  0.00  0.00    +0.021 C 
ATOM     25  C   UNL     1      35.576 -20.626 -20.489  0.00  0.00    +0.021 C 
ENDBRANCH  13  23
TORSDOF 4
ENDMDL
MODEL 5
REMARK VINA RESULT:      -9.0      4.358      8.822
REMARK  Name = 441300
REMARK  4 active torsions:
REMARK  status: ('A' for Active; 'I' for Inactive)
REMARK    1  A    between atoms: N_1  and  C_13
REMARK    2  A    between atoms: C_15  and  C_18
REMARK    3  A    between atoms: C_18  and  O_19
REMARK    4  A    between atoms: N_21  and  C_23
REMARK                            x       y       z     vdW  Elec       q    Type
REMARK                         _______ _______ _______ _____ _____    ______ ____
ROOT
ATOM      1  N   UNL     1      34.665 -16.771 -22.168  0.00  0.00    -0.262 N 
ATOM      2  N   UNL     1      34.619 -14.701 -21.342  0.00  0.00    -0.240 NA
ATOM      3  N   UNL     1      33.490 -13.952 -24.783  0.00  0.00    -0.312 NA
ATOM      4  N   UNL     1      33.927 -16.328 -24.439  0.00  0.00    -0.311 NA
ATOM      5  N   UNL     1      33.198 -15.511 -26.507  0.00  0.00    -0.283 N 
ATOM      6  C   UNL     1      33.830 -13.657 -23.505  0.00  0.00    +0.215 C 
ATOM      7  C   UNL     1      34.248 -15.964 -23.189  0.00  0.00    +0.220 C 
ATOM      8  C   UNL     1      34.226 -14.685 -22.656  0.00  0.00    +0.167 C 
ATOM      9  C   UNL     1      34.876 -15.966 -21.080  0.00  0.00    +0.222 C 
ATOM     10  C   UNL     1      33.558 -15.250 -25.165  0.00  0.00    +0.199 C 
ATOM     11  H   UNL     1      32.919 -14.771 -27.094  0.00  0.00    +0.156 HD
ATOM     12  H   UNL     1      33.225 -16.431 -26.854  0.00  0.00    +0.156 HD
ATOM     13  N   UNL     1      33.779 -12.328 -23.049  0.00  0.00    -0.308 N 
ATOM     14  H   UNL     1      34.033 -12.151 -22.114  0.00  0.00    +0.149 HD
ENDROOT
BRANCH   1  15
ATOM     15  C   UNL     1      34.854 -18.222 -22.216  0.00  0.00    +0.077 C 
ATOM     16  C   UNL     1      33.597 -19.021 -21.828  0.00  0.00    +0.022 C 
ATOM     17  C   UNL     1      34.100 -20.240 -21.037  0.00  0.00    +0.031 C 
ATOM     18  C   UNL     1      35.890 -18.728 -21.261  0.00  0.00    +0.020 C 
ATOM     19  C   UNL     1      35.476 -19.823 -20.616  0.00  0.00    +0.004 C 
BRANCH  17  20
ATOM     20  C   UNL     1      33.197 -20.575 -19.859  0.00  0.00    +0.137 C 
BRANCH  20  21
ATOM     21  O   UNL     1      32.957 -21.972 -19.854  0.00  0.00    -0.382 OA
ATOM     22  H   UNL     1      33.069 -22.316 -18.954  0.00  0.00    +0.210 HD
ENDBRANCH  20  21
ENDBRANCH  17  20
ENDBRANCH   1  15
BRANCH  13  23
ATOM     23  C   UNL     1      33.373 -11.192 -23.876  0.00  0.00    +0.071 C 
ATOM     24  C   UNL     1      33.102  -9.844 -23.273  0.00  0.00    +0.021 C 
ATOM     25  C   UNL     1      34.308 -10.048 -24.143  0.00  0.00    +0.021 C 
ENDBRANCH  13  23
TORSDOF 4
ENDMDL
MODEL 6
REMARK VINA RESULT:      -8.9      5.763      8.725
REMARK  Name = 441300
REMARK  4 active torsions:
REMARK  status: ('A' for Active; 'I' for Inactive)
REMARK    1  A    between atoms: N_1  and  C_13
REMARK    2  A    between atoms: C_15  and  C_18
REMARK    3  A    between atoms: C_18  and  O_19
REMARK    4  A    between atoms: N_21  and  C_23
REMARK                            x       y       z     vdW  Elec       q    Type
REMARK                         _______ _______ _______ _____ _____    ______ ____
ROOT
ATOM      1  N   UNL     1      32.189 -13.033 -21.697  0.00  0.00    -0.262 N 
ATOM      2  N   UNL     1      33.282 -14.847 -21.002  0.00  0.00    -0.240 NA
ATOM      3  N   UNL     1      33.720 -15.296 -24.646  0.00  0.00    -0.312 NA
ATOM      4  N   UNL     1      32.450 -13.285 -24.099  0.00  0.00    -0.311 NA
ATOM      5  N   UNL     1      32.908 -13.870 -26.318  0.00  0.00    -0.283 N 
ATOM      6  C   UNL     1      33.862 -15.619 -23.338  0.00  0.00    +0.215 C 
ATOM      7  C   UNL     1      32.630 -13.666 -22.825  0.00  0.00    +0.220 C 
ATOM      8  C   UNL     1      33.305 -14.788 -22.372  0.00  0.00    +0.167 C 
ATOM      9  C   UNL     1      32.606 -13.781 -20.628  0.00  0.00    +0.222 C 
ATOM     10  C   UNL     1      33.034 -14.167 -24.941  0.00  0.00    +0.199 C 
ATOM     11  H   UNL     1      33.309 -14.470 -26.989  0.00  0.00    +0.156 HD
ATOM     12  H   UNL     1      32.421 -13.065 -26.606  0.00  0.00    +0.156 HD
ATOM     13  N   UNL     1      34.564 -16.780 -22.969  0.00  0.00    -0.308 N 
ATOM     14  H   UNL     1      34.647 -16.983 -22.009  0.00  0.00    +0.149 HD
ENDROOT
BRANCH   1  15
ATOM     15  C   UNL     1      31.417 -11.791 -21.633  0.00  0.00    +0.077 C 
ATOM     16  C   UNL     1      32.124 -10.591 -22.289  0.00  0.00    +0.022 C 
ATOM     17  C   UNL     1      31.792  -9.373 -21.409  0.00  0.00    +0.031 C 
ATOM     18  C   UNL     1      31.157 -11.313 -20.237  0.00  0.00    +0.020 C 
ATOM     19  C   UNL     1      31.367  -9.999 -20.116  0.00  0.00    +0.004 C 
BRANCH  17  20
ATOM     20  C   UNL     1      32.980  -8.436 -21.250  0.00  0.00    +0.137 C 
BRANCH  20  21
ATOM     21  O   UNL     1      33.020  -7.978 -19.909  0.00  0.00    -0.382 OA
ATOM     22  H   UNL     1      32.278  -8.359 -19.415  0.00  0.00    +0.210 HD
ENDBRANCH  20  21
ENDBRANCH  17  20
ENDBRANCH   1  15
BRANCH  13  23
ATOM     23  C   UNL     1      35.178 -17.705 -23.921  0.00  0.00    +0.071 C 
ATOM     24  C   UNL     1      35.169 -19.188 -23.686  0.00  0.00    +0.021 C 
ATOM     25  C   UNL     1      34.342 -18.599 -24.791  0.00  0.00    +0.021 C 
ENDBRANCH  13  23
TORSDOF 4
ENDMDL
MODEL 7
REMARK VINA RESULT:      -8.9      6.845      8.949
REMARK  Name = 441300
REMARK  4 active torsions:
REMARK  status: ('A' for Active; 'I' for Inactive)
REMARK    1  A    between atoms: N_1  and  C_13
REMARK    2  A    between atoms: C_15  and  C_18
REMARK    3  A    between atoms: C_18  and  O_19
REMARK    4  A    between atoms: N_21  and  C_23
REMARK                            x       y       z     vdW  Elec       q    Type
REMARK                         _______ _______ _______ _____ _____    ______ ____
ROOT
ATOM      1  N   UNL     1      33.442 -23.602 -14.898  0.00  0.00    -0.262 N 
ATOM      2  N   UNL     1      35.160 -24.233 -16.172  0.00  0.00    -0.240 NA
ATOM      3  N   UNL     1      36.602 -25.025 -12.859  0.00  0.00    -0.312 NA
ATOM      4  N   UNL     1      34.347 -24.107 -12.701  0.00  0.00    -0.311 NA
ATOM      5  N   UNL     1      35.551 -24.715 -10.789  0.00  0.00    -0.283 N 
ATOM      6  C   UNL     1      36.593 -24.939 -14.211  0.00  0.00    +0.215 C 
ATOM      7  C   UNL     1      34.407 -24.050 -14.040  0.00  0.00    +0.220 C 
ATOM      8  C   UNL     1      35.463 -24.436 -14.849  0.00  0.00    +0.167 C 
ATOM      9  C   UNL     1      33.942 -23.732 -16.167  0.00  0.00    +0.222 C 
ATOM     10  C   UNL     1      35.495 -24.610 -12.198  0.00  0.00    +0.199 C 
ATOM     11  H   UNL     1      36.358 -25.074 -10.354  0.00  0.00    +0.156 HD
ATOM     12  H   UNL     1      34.783 -24.431 -10.243  0.00  0.00    +0.156 HD
ATOM     13  N   UNL     1      37.712 -25.354 -14.954  0.00  0.00    -0.308 N 
ATOM     14  H   UNL     1      37.669 -25.277 -15.935  0.00  0.00    +0.149 HD
ENDROOT
BRANCH   1  15
ATOM     15  C   UNL     1      32.122 -23.082 -14.540  0.00  0.00    +0.077 C 
ATOM     16  C   UNL     1      31.202 -24.129 -13.888  0.00  0.00    +0.022 C 
ATOM     17  C   UNL     1      29.788 -23.840 -14.422  0.00  0.00    +0.031 C 
ATOM     18  C   UNL     1      31.321 -22.607 -15.714  0.00  0.00    +0.020 C 
ATOM     19  C   UNL     1      30.054 -23.026 -15.650  0.00  0.00    +0.004 C 
BRANCH  17  20
ATOM     20  C   UNL     1      29.011 -25.115 -14.714  0.00  0.00    +0.137 C 
BRANCH  20  21
ATOM     21  O   UNL     1      29.908 -26.212 -14.675  0.00  0.00    -0.382 OA
ATOM     22  H   UNL     1      30.737 -25.936 -14.255  0.00  0.00    +0.210 HD
ENDBRANCH  20  21
ENDBRANCH  17  20
ENDBRANCH   1  15
BRANCH  13  23
ATOM     23  C   UNL     1      38.935 -25.892 -14.361  0.00  0.00    +0.071 C 
ATOM     24  C   UNL     1      40.273 -25.694 -15.015  0.00  0.00    +0.021 C 
ATOM     25  C   UNL     1      39.957 -24.993 -13.726  0.00  0.00    +0.021 C 
ENDBRANCH  13  23
TORSDOF 4
ENDMDL
MODEL 8
REMARK VINA RESULT:      -8.6      7.555     11.054
REMARK  Name = 441300
REMARK  4 active torsions:
REMARK  status: ('A' for Active; 'I' for Inactive)
REMARK    1  A    between atoms: N_1  and  C_13
REMARK    2  A    between atoms: C_15  and  C_18
REMARK    3  A    between atoms: C_18  and  O_19
REMARK    4  A    between atoms: N_21  and  C_23
REMARK                            x       y       z     vdW  Elec       q    Type
REMARK                         _______ _______ _______ _____ _____    ______ ____
ROOT
ATOM      1  N   UNL     1      33.635  -9.193 -23.918  0.00  0.00    -0.262 N 
ATOM      2  N   UNL     1      34.723 -10.892 -24.866  0.00  0.00    -0.240 NA
ATOM      3  N   UNL     1      32.405 -12.834 -22.738  0.00  0.00    -0.312 NA
ATOM      4  N   UNL     1      32.092 -10.426 -22.503  0.00  0.00    -0.311 NA
ATOM      5  N   UNL     1      30.787 -11.946 -21.294  0.00  0.00    -0.283 N 
ATOM      6  C   UNL     1      33.402 -12.664 -23.639  0.00  0.00    +0.215 C 
ATOM      7  C   UNL     1      33.086 -10.332 -23.400  0.00  0.00    +0.220 C 
ATOM      8  C   UNL     1      33.774 -11.374 -24.001  0.00  0.00    +0.167 C 
ATOM      9  C   UNL     1      34.614  -9.582 -24.793  0.00  0.00    +0.222 C 
ATOM     10  C   UNL     1      31.821 -11.721 -22.233  0.00  0.00    +0.199 C 
ATOM     11  H   UNL     1      30.536 -12.866 -21.050  0.00  0.00    +0.156 HD
ATOM     12  H   UNL     1      30.319 -11.184 -20.886  0.00  0.00    +0.156 HD
ATOM     13  N   UNL     1      34.047 -13.781 -24.198  0.00  0.00    -0.308 N 
ATOM     14  H   UNL     1      34.767 -13.620 -24.850  0.00  0.00    +0.149 HD
ENDROOT
BRANCH   1  15
ATOM     15  C   UNL     1      33.256  -7.814 -23.604  0.00  0.00    +0.077 C 
ATOM     16  C   UNL     1      33.581  -7.399 -22.158  0.00  0.00    +0.022 C 
ATOM     17  C   UNL     1      32.420  -6.496 -21.707  0.00  0.00    +0.031 C 
ATOM     18  C   UNL     1      31.786  -7.552 -23.713  0.00  0.00    +0.020 C 
ATOM     19  C   UNL     1      31.332  -6.840 -22.677  0.00  0.00    +0.004 C 
BRANCH  17  20
ATOM     20  C   UNL     1      32.023  -6.748 -20.260  0.00  0.00    +0.137 C 
BRANCH  20  21
ATOM     21  O   UNL     1      33.151  -7.247 -19.560  0.00  0.00    -0.382 OA
ATOM     22  H   UNL     1      32.889  -8.021 -19.037  0.00  0.00    +0.210 HD
ENDBRANCH  20  21
ENDBRANCH  17  20
ENDBRANCH   1  15
BRANCH  13  23
ATOM     23  C   UNL     1      33.716 -15.168 -23.872  0.00  0.00    +0.071 C 
ATOM     24  C   UNL     1      34.106 -16.299 -24.780  0.00  0.00    +0.021 C 
ATOM     25  C   UNL     1      34.775 -16.144 -23.445  0.00  0.00    +0.021 C 
ENDBRANCH  13  23
TORSDOF 4
ENDMDL
MODEL 9
REMARK VINA RESULT:      -8.5      5.822      8.104
REMARK  Name = 441300
REMARK  4 active torsions:
REMARK  status: ('A' for Active; 'I' for Inactive)
REMARK    1  A    between atoms: N_1  and  C_13
REMARK    2  A    between atoms: C_15  and  C_18
REMARK    3  A    between atoms: C_18  and  O_19
REMARK    4  A    between atoms: N_21  and  C_23
REMARK                            x       y       z     vdW  Elec       q    Type
REMARK                         _______ _______ _______ _____ _____    ______ ____
ROOT
ATOM      1  N   UNL     1      33.806 -23.465 -16.348  0.00  0.00    -0.262 N 
ATOM      2  N   UNL     1      32.236 -22.726 -17.749  0.00  0.00    -0.240 NA
ATOM      3  N   UNL     1      30.035 -23.939 -15.036  0.00  0.00    -0.312 NA
ATOM      4  N   UNL     1      32.400 -24.277 -14.540  0.00  0.00    -0.311 NA
ATOM      5  N   UNL     1      30.735 -24.934 -13.034  0.00  0.00    -0.283 N 
ATOM      6  C   UNL     1      30.318 -23.375 -16.235  0.00  0.00    +0.215 C 
ATOM      7  C   UNL     1      32.607 -23.709 -15.738  0.00  0.00    +0.220 C 
ATOM      8  C   UNL     1      31.648 -23.243 -16.623  0.00  0.00    +0.167 C 
ATOM      9  C   UNL     1      33.530 -22.874 -17.553  0.00  0.00    +0.222 C 
ATOM     10  C   UNL     1      31.078 -24.348 -14.275  0.00  0.00    +0.199 C 
ATOM     11  H   UNL     1      29.789 -25.019 -12.775  0.00  0.00    +0.156 HD
ATOM     12  H   UNL     1      31.442 -25.255 -12.429  0.00  0.00    +0.156 HD
ATOM     13  N   UNL     1      29.278 -22.930 -17.070  0.00  0.00    -0.308 N 
ATOM     14  H   UNL     1      29.522 -22.526 -17.934  0.00  0.00    +0.149 HD
ENDROOT
BRANCH   1  15
ATOM     15  C   UNL     1      35.137 -23.773 -15.823  0.00  0.00    +0.077 C 
ATOM     16  C   UNL     1      35.141 -24.902 -14.777  0.00  0.00    +0.022 C 
ATOM     17  C   UNL     1      36.191 -24.499 -13.727  0.00  0.00    +0.031 C 
ATOM     18  C   UNL     1      35.778 -22.631 -15.097  0.00  0.00    +0.020 C 
ATOM     19  C   UNL     1      36.347 -23.027 -13.954  0.00  0.00    +0.004 C 
BRANCH  17  20
ATOM     20  C   UNL     1      35.748 -24.836 -12.310  0.00  0.00    +0.137 C 
BRANCH  20  21
ATOM     21  O   UNL     1      34.334 -24.924 -12.286  0.00  0.00    -0.382 OA
ATOM     22  H   UNL     1      34.002 -24.567 -11.448  0.00  0.00    +0.210 HD
ENDBRANCH  20  21
ENDBRANCH  17  20
ENDBRANCH   1  15
BRANCH  13  23
ATOM     23  C   UNL     1      27.858 -23.032 -16.736  0.00  0.00    +0.071 C 
ATOM     24  C   UNL     1      27.220 -22.103 -15.744  0.00  0.00    +0.021 C 
ATOM     25  C   UNL     1      26.871 -22.000 -17.200  0.00  0.00    +0.021 C 
ENDBRANCH  13  23
TORSDOF 4
ENDMDL
