MODEL 1
REMARK VINA RESULT:      -4.9      0.000      0.000
REMARK  Name = 5289078
REMARK  6 active torsions:
REMARK  status: ('A' for Active; 'I' for Inactive)
REMARK    1  A    between atoms: S_1  and  C_3
REMARK    2  A    between atoms: S_1  and  C_7
REMARK    3  A    between atoms: C_3  and  C_4
REMARK    4  A    between atoms: C_4  and  C_6
REMARK    5  A    between atoms: C_7  and  C_8
REMARK    6  A    between atoms: C_8  and  C_10
REMARK                            x       y       z     vdW  Elec       q    Type
REMARK                         _______ _______ _______ _____ _____    ______ ____
ROOT
ATOM      1  S   UNL     1      35.545 -18.566 -21.171  0.00  0.00    -0.077 S 
ENDROOT
BRANCH   1   3
ATOM      2  O   UNL     1      35.113 -16.179 -20.136  0.00  0.00    -0.284 OA
ATOM      3  C   UNL     1      34.926 -16.912 -21.100  0.00  0.00    +0.200 C 
BRANCH   3   4
ATOM      4  C   UNL     1      34.153 -16.509 -22.344  0.00  0.00    +0.088 C 
BRANCH   4   6
ATOM      5  S   UNL     1      34.641 -17.126 -24.979  0.00  0.00    -0.082 S 
ATOM      6  C   UNL     1      35.090 -16.142 -23.500  0.00  0.00    +0.077 C 
ENDBRANCH   4   6
ENDBRANCH   3   4
ENDBRANCH   1   3
BRANCH   1   7
ATOM      7  C   UNL     1      34.099 -19.431 -21.821  0.00  0.00    +0.073 C 
BRANCH   7   8
ATOM      8  C   UNL     1      33.126 -19.770 -20.700  0.00  0.00    +0.084 C 
BRANCH   8  10
ATOM      9  O   UNL     1      32.894 -21.977 -19.716  0.00  0.00    -0.288 OA
ATOM     10  C   UNL     1      33.571 -20.972 -19.902  0.00  0.00    +0.208 C 
ENDBRANCH   8  10
ENDBRANCH   7   8
ENDBRANCH   1   7
TORSDOF 6
ENDMDL
MODEL 2
REMARK VINA RESULT:      -4.7     10.009     11.363
REMARK  Name = 5289078
REMARK  6 active torsions:
REMARK  status: ('A' for Active; 'I' for Inactive)
REMARK    1  A    between atoms: S_1  and  C_3
REMARK    2  A    between atoms: S_1  and  C_7
REMARK    3  A    between atoms: C_3  and  C_4
REMARK    4  A    between atoms: C_4  and  C_6
REMARK    5  A    between atoms: C_7  and  C_8
REMARK    6  A    between atoms: C_8  and  C_10
REMARK                            x       y       z     vdW  Elec       q    Type
REMARK                         _______ _______ _______ _____ _____    ______ ____
ROOT
ATOM      1  S   UNL     1      37.401 -25.940 -12.513  0.00  0.00    -0.077 S 
ENDROOT
BRANCH   1   3
ATOM      2  O   UNL     1      38.254 -27.058 -14.745  0.00  0.00    -0.284 OA
ATOM      3  C   UNL     1      37.640 -26.118 -14.256  0.00  0.00    +0.200 C 
BRANCH   3   4
ATOM      4  C   UNL     1      37.010 -24.995 -15.063  0.00  0.00    +0.088 C 
BRANCH   4   6
ATOM      5  S   UNL     1      34.847 -23.309 -15.270  0.00  0.00    -0.082 S 
ATOM      6  C   UNL     1      35.482 -24.995 -14.938  0.00  0.00    +0.077 C 
ENDBRANCH   4   6
ENDBRANCH   3   4
ENDBRANCH   1   3
BRANCH   1   7
ATOM      7  C   UNL     1      37.911 -24.223 -12.284  0.00  0.00    +0.073 C 
BRANCH   7   8
ATOM      8  C   UNL     1      36.863 -23.452 -11.493  0.00  0.00    +0.084 C 
BRANCH   8  10
ATOM      9  O   UNL     1      35.392 -24.515  -9.881  0.00  0.00    -0.288 OA
ATOM     10  C   UNL     1      35.721 -24.333 -11.048  0.00  0.00    +0.208 C 
ENDBRANCH   8  10
ENDBRANCH   7   8
ENDBRANCH   1   7
TORSDOF 6
ENDMDL
MODEL 3
REMARK VINA RESULT:      -4.7     10.165     11.425
REMARK  Name = 5289078
REMARK  6 active torsions:
REMARK  status: ('A' for Active; 'I' for Inactive)
REMARK    1  A    between atoms: S_1  and  C_3
REMARK    2  A    between atoms: S_1  and  C_7
REMARK    3  A    between atoms: C_3  and  C_4
REMARK    4  A    between atoms: C_4  and  C_6
REMARK    5  A    between atoms: C_7  and  C_8
REMARK    6  A    between atoms: C_8  and  C_10
REMARK                            x       y       z     vdW  Elec       q    Type
REMARK                         _______ _______ _______ _____ _____    ______ ____
ROOT
ATOM      1  S   UNL     1      36.488 -24.257 -14.852  0.00  0.00    -0.077 S 
ENDROOT
BRANCH   1   3
ATOM      2  O   UNL     1      36.141 -26.674 -15.850  0.00  0.00    -0.284 OA
ATOM      3  C   UNL     1      36.712 -26.005 -14.998  0.00  0.00    +0.200 C 
BRANCH   3   4
ATOM      4  C   UNL     1      37.674 -26.572 -13.968  0.00  0.00    +0.088 C 
BRANCH   4   6
ATOM      5  S   UNL     1      40.181 -25.646 -14.615  0.00  0.00    -0.082 S 
ATOM      6  C   UNL     1      38.711 -25.533 -13.527  0.00  0.00    +0.077 C 
ENDBRANCH   4   6
ENDBRANCH   3   4
ENDBRANCH   1   3
BRANCH   1   7
ATOM      7  C   UNL     1      35.178 -24.195 -13.611  0.00  0.00    +0.073 C 
BRANCH   7   8
ATOM      8  C   UNL     1      35.708 -23.639 -12.297  0.00  0.00    +0.084 C 
BRANCH   8  10
ATOM      9  O   UNL     1      35.446 -24.447 -10.022  0.00  0.00    -0.288 OA
ATOM     10  C   UNL     1      35.711 -24.675 -11.198  0.00  0.00    +0.208 C 
ENDBRANCH   8  10
ENDBRANCH   7   8
ENDBRANCH   1   7
TORSDOF 6
ENDMDL
MODEL 4
REMARK VINA RESULT:      -4.7      3.296      3.853
REMARK  Name = 5289078
REMARK  6 active torsions:
REMARK  status: ('A' for Active; 'I' for Inactive)
REMARK    1  A    between atoms: S_1  and  C_3
REMARK    2  A    between atoms: S_1  and  C_7
REMARK    3  A    between atoms: C_3  and  C_4
REMARK    4  A    between atoms: C_4  and  C_6
REMARK    5  A    between atoms: C_7  and  C_8
REMARK    6  A    between atoms: C_8  and  C_10
REMARK                            x       y       z     vdW  Elec       q    Type
REMARK                         _______ _______ _______ _____ _____    ______ ____
ROOT
ATOM      1  S   UNL     1      34.520 -17.908 -21.468  0.00  0.00    -0.077 S 
ENDROOT
BRANCH   1   3
ATOM      2  O   UNL     1      34.944 -15.635 -20.199  0.00  0.00    -0.284 OA
ATOM      3  C   UNL     1      34.382 -16.175 -21.143  0.00  0.00    +0.200 C 
BRANCH   3   4
ATOM      4  C   UNL     1      33.507 -15.447 -22.149  0.00  0.00    +0.088 C 
BRANCH   4   6
ATOM      5  S   UNL     1      33.308 -13.828 -24.363  0.00  0.00    -0.082 S 
ATOM      6  C   UNL     1      34.295 -14.384 -22.923  0.00  0.00    +0.077 C 
ENDBRANCH   4   6
ENDBRANCH   3   4
ENDBRANCH   1   3
BRANCH   1   7
ATOM      7  C   UNL     1      35.577 -17.886 -22.932  0.00  0.00    +0.073 C 
BRANCH   7   8
ATOM      8  C   UNL     1      34.909 -18.616 -24.088  0.00  0.00    +0.084 C 
BRANCH   8  10
ATOM      9  O   UNL     1      34.930 -16.843 -25.747  0.00  0.00    -0.288 OA
ATOM     10  C   UNL     1      34.299 -17.663 -25.089  0.00  0.00    +0.208 C 
ENDBRANCH   8  10
ENDBRANCH   7   8
ENDBRANCH   1   7
TORSDOF 6
ENDMDL
MODEL 5
REMARK VINA RESULT:      -4.7      2.740      5.481
REMARK  Name = 5289078
REMARK  6 active torsions:
REMARK  status: ('A' for Active; 'I' for Inactive)
REMARK    1  A    between atoms: S_1  and  C_3
REMARK    2  A    between atoms: S_1  and  C_7
REMARK    3  A    between atoms: C_3  and  C_4
REMARK    4  A    between atoms: C_4  and  C_6
REMARK    5  A    between atoms: C_7  and  C_8
REMARK    6  A    between atoms: C_8  and  C_10
REMARK                            x       y       z     vdW  Elec       q    Type
REMARK                         _______ _______ _______ _____ _____    ______ ____
ROOT
ATOM      1  S   UNL     1      34.817 -19.073 -21.093  0.00  0.00    -0.077 S 
ENDROOT
BRANCH   1   3
ATOM      2  O   UNL     1      32.472 -20.247 -20.807  0.00  0.00    -0.284 OA
ATOM      3  C   UNL     1      33.664 -20.286 -20.525  0.00  0.00    +0.200 C 
BRANCH   3   4
ATOM      4  C   UNL     1      34.304 -21.363 -19.666  0.00  0.00    +0.088 C 
BRANCH   4   6
ATOM      5  S   UNL     1      36.546 -21.692 -18.107  0.00  0.00    -0.082 S 
ATOM      6  C   UNL     1      35.834 -21.325 -19.755  0.00  0.00    +0.077 C 
ENDBRANCH   4   6
ENDBRANCH   3   4
ENDBRANCH   1   3
BRANCH   1   7
ATOM      7  C   UNL     1      34.602 -19.224 -22.880  0.00  0.00    +0.073 C 
BRANCH   7   8
ATOM      8  C   UNL     1      34.976 -17.924 -23.578  0.00  0.00    +0.084 C 
BRANCH   8  10
ATOM      9  O   UNL     1      34.703 -16.964 -25.791  0.00  0.00    -0.288 OA
ATOM     10  C   UNL     1      34.562 -17.916 -25.030  0.00  0.00    +0.208 C 
ENDBRANCH   8  10
ENDBRANCH   7   8
ENDBRANCH   1   7
TORSDOF 6
ENDMDL
MODEL 6
REMARK VINA RESULT:      -4.7      2.487      2.797
REMARK  Name = 5289078
REMARK  6 active torsions:
REMARK  status: ('A' for Active; 'I' for Inactive)
REMARK    1  A    between atoms: S_1  and  C_3
REMARK    2  A    between atoms: S_1  and  C_7
REMARK    3  A    between atoms: C_3  and  C_4
REMARK    4  A    between atoms: C_4  and  C_6
REMARK    5  A    between atoms: C_7  and  C_8
REMARK    6  A    between atoms: C_8  and  C_10
REMARK                            x       y       z     vdW  Elec       q    Type
REMARK                         _______ _______ _______ _____ _____    ______ ____
ROOT
ATOM      1  S   UNL     1      34.989 -18.859 -23.677  0.00  0.00    -0.077 S 
ENDROOT
BRANCH   1   3
ATOM      2  O   UNL     1      34.645 -17.198 -25.697  0.00  0.00    -0.284 OA
ATOM      3  C   UNL     1      34.821 -17.298 -24.489  0.00  0.00    +0.200 C 
BRANCH   3   4
ATOM      4  C   UNL     1      34.917 -16.117 -23.538  0.00  0.00    +0.088 C 
BRANCH   4   6
ATOM      5  S   UNL     1      32.989 -14.684 -22.200  0.00  0.00    -0.082 S 
ATOM      6  C   UNL     1      33.804 -15.094 -23.789  0.00  0.00    +0.077 C 
ENDBRANCH   4   6
ENDBRANCH   3   4
ENDBRANCH   1   3
BRANCH   1   7
ATOM      7  C   UNL     1      34.504 -18.411 -21.996  0.00  0.00    +0.073 C 
BRANCH   7   8
ATOM      8  C   UNL     1      34.416 -19.648 -21.114  0.00  0.00    +0.084 C 
BRANCH   8  10
ATOM      9  O   UNL     1      32.643 -20.967 -20.108  0.00  0.00    -0.288 OA
ATOM     10  C   UNL     1      32.998 -19.946 -20.688  0.00  0.00    +0.208 C 
ENDBRANCH   8  10
ENDBRANCH   7   8
ENDBRANCH   1   7
TORSDOF 6
ENDMDL
MODEL 7
REMARK VINA RESULT:      -4.6      2.939      4.507
REMARK  Name = 5289078
REMARK  6 active torsions:
REMARK  status: ('A' for Active; 'I' for Inactive)
REMARK    1  A    between atoms: S_1  and  C_3
REMARK    2  A    between atoms: S_1  and  C_7
REMARK    3  A    between atoms: C_3  and  C_4
REMARK    4  A    between atoms: C_4  and  C_6
REMARK    5  A    between atoms: C_7  and  C_8
REMARK    6  A    between atoms: C_8  and  C_10
REMARK                            x       y       z     vdW  Elec       q    Type
REMARK                         _______ _______ _______ _____ _____    ______ ____
ROOT
ATOM      1  S   UNL     1      35.065 -15.892 -23.497  0.00  0.00    -0.077 S 
ENDROOT
BRANCH   1   3
ATOM      2  O   UNL     1      34.391 -16.836 -25.866  0.00  0.00    -0.284 OA
ATOM      3  C   UNL     1      34.662 -17.118 -24.705  0.00  0.00    +0.200 C 
BRANCH   3   4
ATOM      4  C   UNL     1      34.693 -18.533 -24.153  0.00  0.00    +0.088 C 
BRANCH   4   6
ATOM      5  S   UNL     1      34.244 -19.255 -21.538  0.00  0.00    -0.082 S 
ATOM      6  C   UNL     1      35.402 -18.598 -22.796  0.00  0.00    +0.077 C 
ENDBRANCH   4   6
ENDBRANCH   3   4
ENDBRANCH   1   3
BRANCH   1   7
ATOM      7  C   UNL     1      33.411 -15.337 -23.027  0.00  0.00    +0.073 C 
BRANCH   7   8
ATOM      8  C   UNL     1      33.198 -15.494 -21.528  0.00  0.00    +0.084 C 
BRANCH   8  10
ATOM      9  O   UNL     1      35.002 -16.003 -19.985  0.00  0.00    -0.288 OA
ATOM     10  C   UNL     1      34.453 -15.207 -20.739  0.00  0.00    +0.208 C 
ENDBRANCH   8  10
ENDBRANCH   7   8
ENDBRANCH   1   7
TORSDOF 6
ENDMDL
MODEL 8
REMARK VINA RESULT:      -4.6      2.866      3.236
REMARK  Name = 5289078
REMARK  6 active torsions:
REMARK  status: ('A' for Active; 'I' for Inactive)
REMARK    1  A    between atoms: S_1  and  C_3
REMARK    2  A    between atoms: S_1  and  C_7
REMARK    3  A    between atoms: C_3  and  C_4
REMARK    4  A    between atoms: C_4  and  C_6
REMARK    5  A    between atoms: C_7  and  C_8
REMARK    6  A    between atoms: C_8  and  C_10
REMARK                            x       y       z     vdW  Elec       q    Type
REMARK                         _______ _______ _______ _____ _____    ______ ____
ROOT
ATOM      1  S   UNL     1      34.843 -18.760 -24.086  0.00  0.00    -0.077 S 
ENDROOT
BRANCH   1   3
ATOM      2  O   UNL     1      34.802 -16.773 -25.821  0.00  0.00    -0.284 OA
ATOM      3  C   UNL     1      34.789 -17.080 -24.636  0.00  0.00    +0.200 C 
BRANCH   3   4
ATOM      4  C   UNL     1      34.726 -16.080 -23.494  0.00  0.00    +0.088 C 
BRANCH   4   6
ATOM      5  S   UNL     1      32.874 -14.554 -22.150  0.00  0.00    -0.082 S 
ATOM      6  C   UNL     1      33.665 -15.002 -23.741  0.00  0.00    +0.077 C 
ENDBRANCH   4   6
ENDBRANCH   3   4
ENDBRANCH   1   3
BRANCH   1   7
ATOM      7  C   UNL     1      35.331 -18.527 -22.363  0.00  0.00    +0.073 C 
BRANCH   7   8
ATOM      8  C   UNL     1      34.553 -19.467 -21.453  0.00  0.00    +0.084 C 
BRANCH   8  10
ATOM      9  O   UNL     1      36.486 -19.827 -20.029  0.00  0.00    -0.288 OA
ATOM     10  C   UNL     1      35.459 -20.259 -20.540  0.00  0.00    +0.208 C 
ENDBRANCH   8  10
ENDBRANCH   7   8
ENDBRANCH   1   7
TORSDOF 6
ENDMDL
MODEL 9
REMARK VINA RESULT:      -4.5      3.083      5.335
REMARK  Name = 5289078
REMARK  6 active torsions:
REMARK  status: ('A' for Active; 'I' for Inactive)
REMARK    1  A    between atoms: S_1  and  C_3
REMARK    2  A    between atoms: S_1  and  C_7
REMARK    3  A    between atoms: C_3  and  C_4
REMARK    4  A    between atoms: C_4  and  C_6
REMARK    5  A    between atoms: C_7  and  C_8
REMARK    6  A    between atoms: C_8  and  C_10
REMARK                            x       y       z     vdW  Elec       q    Type
REMARK                         _______ _______ _______ _____ _____    ______ ____
ROOT
ATOM      1  S   UNL     1      33.218 -15.024 -22.177  0.00  0.00    -0.077 S 
ENDROOT
BRANCH   1   3
ATOM      2  O   UNL     1      34.886 -15.523 -20.195  0.00  0.00    -0.284 OA
ATOM      3  C   UNL     1      34.540 -15.835 -21.328  0.00  0.00    +0.200 C 
BRANCH   3   4
ATOM      4  C   UNL     1      35.184 -16.942 -22.145  0.00  0.00    +0.088 C 
BRANCH   4   6
ATOM      5  S   UNL     1      34.156 -19.293 -21.157  0.00  0.00    -0.082 S 
ATOM      6  C   UNL     1      35.574 -18.139 -21.272  0.00  0.00    +0.077 C 
ENDBRANCH   4   6
ENDBRANCH   3   4
ENDBRANCH   1   3
BRANCH   1   7
ATOM      7  C   UNL     1      34.034 -14.601 -23.731  0.00  0.00    +0.073 C 
BRANCH   7   8
ATOM      8  C   UNL     1      33.028 -14.061 -24.737  0.00  0.00    +0.084 C 
BRANCH   8  10
ATOM      9  O   UNL     1      33.751 -15.805 -26.263  0.00  0.00    -0.288 OA
ATOM     10  C   UNL     1      33.087 -14.795 -26.055  0.00  0.00    +0.208 C 
ENDBRANCH   8  10
ENDBRANCH   7   8
ENDBRANCH   1   7
TORSDOF 6
ENDMDL
