MODEL 1
REMARK VINA RESULT:     -10.2      0.000      0.000
REMARK  Name = 54693872
REMARK  4 active torsions:
REMARK  status: ('A' for Active; 'I' for Inactive)
REMARK    1  A    between atoms: C_3  and  C_14
REMARK    2  A    between atoms: C_4  and  O_12
REMARK    3  A    between atoms: C_14  and  C_16
REMARK    4  A    between atoms: C_14  and  C_22
REMARK                            x       y       z     vdW  Elec       q    Type
REMARK                         _______ _______ _______ _____ _____    ______ ____
ROOT
ATOM      1  O   UNL     1      36.683 -20.082 -20.445  0.00  0.00    -0.421 OA
ATOM      2  O   UNL     1      37.526 -18.494 -21.839  0.00  0.00    -0.245 OA
ATOM      3  C   UNL     1      35.155 -18.705 -21.798  0.00  0.00    +0.091 A 
ATOM      4  C   UNL     1      34.097 -19.349 -21.270  0.00  0.00    +0.139 A 
ATOM      5  C   UNL     1      36.542 -19.066 -21.381  0.00  0.00    +0.345 A 
ATOM      6  C   UNL     1      34.283 -20.417 -20.284  0.00  0.00    +0.068 A 
ATOM      7  C   UNL     1      35.576 -20.752 -19.901  0.00  0.00    +0.152 A 
ATOM      8  C   UNL     1      33.221 -21.124 -19.701  0.00  0.00    +0.006 C 
ATOM      9  C   UNL     1      35.840 -21.757 -18.968  0.00  0.00    +0.038 C 
ATOM     10  C   UNL     1      33.468 -22.135 -18.765  0.00  0.00    +0.000 C 
ATOM     11  C   UNL     1      34.776 -22.451 -18.399  0.00  0.00    +0.003 C 
ENDROOT
BRANCH   4  12
ATOM     12  O   UNL     1      32.782 -19.083 -21.584  0.00  0.00    -0.506 OA
ATOM     13  H   UNL     1      32.388 -18.279 -21.308  0.00  0.00    +0.292 HD
ENDBRANCH   4  12
BRANCH   3  14
ATOM     14  C   UNL     1      35.088 -17.604 -22.823  0.00  0.00    +0.054 C 
BRANCH  14  16
ATOM     15 BR   UNL     1      32.156 -12.693 -20.428  0.00  0.00    -0.049 Br
ATOM     16  C   UNL     1      34.370 -16.398 -22.235  0.00  0.00    -0.018 C 
ATOM     17  C   UNL     1      34.597 -16.028 -20.909  0.00  0.00    -0.003 C 
ATOM     18  C   UNL     1      33.481 -15.665 -23.022  0.00  0.00    -0.003 C 
ATOM     19  C   UNL     1      33.938 -14.924 -20.371  0.00  0.00    +0.006 C 
ATOM     20  C   UNL     1      32.822 -14.559 -22.483  0.00  0.00    +0.006 C 
ATOM     21  C   UNL     1      33.050 -14.189 -21.158  0.00  0.00    +0.035 C 
ENDBRANCH  14  16
BRANCH  14  22
ATOM     22  C   UNL     1      34.481 -18.085 -24.176  0.00  0.00    +0.008 C 
ATOM     23  C   UNL     1      34.921 -19.516 -24.521  0.00  0.00    +0.001 C 
ATOM     24  C   UNL     1      34.881 -17.161 -25.337  0.00  0.00    +0.001 C 
ENDBRANCH  14  22
ENDBRANCH   3  14
TORSDOF 4
ENDMDL
MODEL 2
REMARK VINA RESULT:      -8.1      0.685      2.076
REMARK  Name = 54693872
REMARK  4 active torsions:
REMARK  status: ('A' for Active; 'I' for Inactive)
REMARK    1  A    between atoms: C_3  and  C_14
REMARK    2  A    between atoms: C_4  and  O_12
REMARK    3  A    between atoms: C_14  and  C_16
REMARK    4  A    between atoms: C_14  and  C_22
REMARK                            x       y       z     vdW  Elec       q    Type
REMARK                         _______ _______ _______ _____ _____    ______ ____
ROOT
ATOM      1  O   UNL     1      33.411 -20.451 -20.457  0.00  0.00    -0.421 OA
ATOM      2  O   UNL     1      32.615 -19.045 -22.059  0.00  0.00    -0.245 OA
ATOM      3  C   UNL     1      34.957 -18.946 -21.643  0.00  0.00    +0.091 A 
ATOM      4  C   UNL     1      35.989 -19.434 -20.928  0.00  0.00    +0.139 A 
ATOM      5  C   UNL     1      33.575 -19.465 -21.421  0.00  0.00    +0.345 A 
ATOM      6  C   UNL     1      35.779 -20.475 -19.919  0.00  0.00    +0.068 A 
ATOM      7  C   UNL     1      34.491 -20.953 -19.713  0.00  0.00    +0.152 A 
ATOM      8  C   UNL     1      36.813 -21.020 -19.144  0.00  0.00    +0.006 C 
ATOM      9  C   UNL     1      34.205 -21.943 -18.770  0.00  0.00    +0.038 C 
ATOM     10  C   UNL     1      36.544 -22.013 -18.194  0.00  0.00    +0.000 C 
ATOM     11  C   UNL     1      35.241 -22.473 -18.008  0.00  0.00    +0.003 C 
ENDROOT
BRANCH   4  12
ATOM     12  O   UNL     1      37.298 -19.026 -21.067  0.00  0.00    -0.506 OA
ATOM     13  H   UNL     1      37.497 -18.239 -21.534  0.00  0.00    +0.292 HD
ENDBRANCH   4  12
BRANCH   3  14
ATOM     14  C   UNL     1      35.049 -17.873 -22.694  0.00  0.00    +0.054 C 
BRANCH  14  16
ATOM     15 BR   UNL     1      32.268 -12.714 -20.667  0.00  0.00    -0.049 Br
ATOM     16  C   UNL     1      34.367 -16.607 -22.197  0.00  0.00    -0.018 C 
ATOM     17  C   UNL     1      34.531 -16.200 -20.872  0.00  0.00    -0.003 C 
ATOM     18  C   UNL     1      33.577 -15.853 -23.065  0.00  0.00    -0.003 C 
ATOM     19  C   UNL     1      33.905 -15.040 -20.417  0.00  0.00    +0.006 C 
ATOM     20  C   UNL     1      32.952 -14.692 -22.610  0.00  0.00    +0.006 C 
ATOM     21  C   UNL     1      33.115 -14.286 -21.285  0.00  0.00    +0.035 C 
ENDBRANCH  14  16
BRANCH  14  22
ATOM     22  C   UNL     1      34.525 -18.352 -24.083  0.00  0.00    +0.008 C 
ATOM     23  C   UNL     1      35.100 -19.723 -24.467  0.00  0.00    +0.001 C 
ATOM     24  C   UNL     1      34.871 -17.350 -25.195  0.00  0.00    +0.001 C 
ENDBRANCH  14  22
ENDBRANCH   3  14
TORSDOF 4
ENDMDL
