MODEL 1
REMARK VINA RESULT:      -7.9      0.000      0.000
REMARK  Name = 5288544
REMARK  8 active torsions:
REMARK  status: ('A' for Active; 'I' for Inactive)
REMARK    1  A    between atoms: S_1  and  C_3
REMARK    2  A    between atoms: S_1  and  C_11
REMARK    3  A    between atoms: C_4  and  O_9
REMARK    4  A    between atoms: C_11  and  C_12
REMARK    5  A    between atoms: C_12  and  C_13
REMARK    6  A    between atoms: C_14  and  P_15
REMARK    7  A    between atoms: P_15  and  O_17
REMARK    8  A    between atoms: P_15  and  O_19
REMARK                            x       y       z     vdW  Elec       q    Type
REMARK                         _______ _______ _______ _____ _____    ______ ____
ROOT
ATOM      1  S   UNL     1      35.685 -18.232 -21.391  0.00  0.00    -0.110 S 
ENDROOT
BRANCH   1   3
ATOM      2  F   UNL     1      34.063 -15.935 -25.656  0.00  0.00    -0.204 F 
ATOM      3  C   UNL     1      35.008 -16.821 -22.258  0.00  0.00    +0.061 C 
ATOM      4  C   UNL     1      34.696 -15.640 -21.587  0.00  0.00    +0.139 C 
ATOM      5  C   UNL     1      34.795 -16.922 -23.632  0.00  0.00    +0.039 C 
ATOM      6  C   UNL     1      34.169 -14.557 -22.291  0.00  0.00    +0.039 C 
ATOM      7  C   UNL     1      34.268 -15.840 -24.337  0.00  0.00    +0.141 C 
ATOM      8  C   UNL     1      33.956 -14.657 -23.666  0.00  0.00    +0.033 C 
BRANCH   4   9
ATOM      9  O   UNL     1      34.891 -15.507 -20.244  0.00  0.00    -0.505 OA
ATOM     10  H   UNL     1      34.460 -14.820 -19.774  0.00  0.00    +0.292 HD
ENDBRANCH   4   9
ENDBRANCH   1   3
BRANCH   1  11
ATOM     11  C   UNL     1      34.516 -19.539 -21.862  0.00  0.00    +0.067 C 
BRANCH  11  12
ATOM     12  C   UNL     1      33.242 -19.448 -21.027  0.00  0.00    +0.038 C 
BRANCH  12  13
ATOM     13  C   UNL     1      33.118 -20.634 -20.114  0.00  0.00    -0.018 C 
ATOM     14  C   UNL     1      34.162 -21.292 -19.593  0.00  0.00    +0.083 C 
BRANCH  14  15
ATOM     15  P   UNL     1      33.951 -22.669 -18.540  0.00  0.00    +0.359 P 
ATOM     16  O   UNL     1      34.859 -22.908 -17.361  0.00  0.00    -0.253 OA
BRANCH  15  17
ATOM     17  O   UNL     1      33.926 -23.949 -19.542  0.00  0.00    -0.321 OA
ATOM     18  H   UNL     1      34.773 -24.010 -20.010  0.00  0.00    +0.220 HD
ENDBRANCH  15  17
BRANCH  15  19
ATOM     19  O   UNL     1      32.389 -22.601 -18.100  0.00  0.00    -0.321 OA
ATOM     20  H   UNL     1      32.283 -21.954 -17.384  0.00  0.00    +0.220 HD
ENDBRANCH  15  19
ENDBRANCH  14  15
ENDBRANCH  12  13
ENDBRANCH  11  12
ENDBRANCH   1  11
TORSDOF 8
ENDMDL
MODEL 2
REMARK VINA RESULT:      -7.9      1.798      2.139
REMARK  Name = 5288544
REMARK  8 active torsions:
REMARK  status: ('A' for Active; 'I' for Inactive)
REMARK    1  A    between atoms: S_1  and  C_3
REMARK    2  A    between atoms: S_1  and  C_11
REMARK    3  A    between atoms: C_4  and  O_9
REMARK    4  A    between atoms: C_11  and  C_12
REMARK    5  A    between atoms: C_12  and  C_13
REMARK    6  A    between atoms: C_14  and  P_15
REMARK    7  A    between atoms: P_15  and  O_17
REMARK    8  A    between atoms: P_15  and  O_19
REMARK                            x       y       z     vdW  Elec       q    Type
REMARK                         _______ _______ _______ _____ _____    ______ ____
ROOT
ATOM      1  S   UNL     1      35.747 -18.235 -21.359  0.00  0.00    -0.110 S 
ENDROOT
BRANCH   1   3
ATOM      2  F   UNL     1      33.141 -13.966 -20.318  0.00  0.00    -0.204 F 
ATOM      3  C   UNL     1      34.967 -16.705 -21.863  0.00  0.00    +0.061 C 
ATOM      4  C   UNL     1      34.969 -16.296 -23.194  0.00  0.00    +0.139 C 
ATOM      5  C   UNL     1      34.350 -15.921 -20.890  0.00  0.00    +0.039 C 
ATOM      6  C   UNL     1      34.353 -15.099 -23.556  0.00  0.00    +0.039 C 
ATOM      7  C   UNL     1      33.733 -14.722 -21.251  0.00  0.00    +0.141 C 
ATOM      8  C   UNL     1      33.734 -14.312 -22.584  0.00  0.00    +0.033 C 
BRANCH   4   9
ATOM      9  O   UNL     1      35.563 -17.040 -24.171  0.00  0.00    -0.505 OA
ATOM     10  H   UNL     1      35.054 -17.363 -24.889  0.00  0.00    +0.292 HD
ENDBRANCH   4   9
ENDBRANCH   1   3
BRANCH   1  11
ATOM     11  C   UNL     1      34.522 -19.460 -21.901  0.00  0.00    +0.067 C 
BRANCH  11  12
ATOM     12  C   UNL     1      33.267 -19.386 -21.036  0.00  0.00    +0.038 C 
BRANCH  12  13
ATOM     13  C   UNL     1      33.148 -20.603 -20.164  0.00  0.00    -0.018 C 
ATOM     14  C   UNL     1      34.190 -21.217 -19.588  0.00  0.00    +0.083 C 
BRANCH  14  15
ATOM     15  P   UNL     1      33.986 -22.634 -18.588  0.00  0.00    +0.359 P 
ATOM     16  O   UNL     1      34.902 -22.919 -17.426  0.00  0.00    -0.253 OA
BRANCH  15  17
ATOM     17  O   UNL     1      33.954 -23.874 -19.639  0.00  0.00    -0.321 OA
ATOM     18  H   UNL     1      33.042 -24.023 -19.936  0.00  0.00    +0.220 HD
ENDBRANCH  15  17
BRANCH  15  19
ATOM     19  O   UNL     1      32.427 -22.583 -18.134  0.00  0.00    -0.321 OA
ATOM     20  H   UNL     1      32.373 -22.403 -17.183  0.00  0.00    +0.220 HD
ENDBRANCH  15  19
ENDBRANCH  14  15
ENDBRANCH  12  13
ENDBRANCH  11  12
ENDBRANCH   1  11
TORSDOF 8
ENDMDL
MODEL 3
REMARK VINA RESULT:      -7.5      5.378      7.431
REMARK  Name = 5288544
REMARK  8 active torsions:
REMARK  status: ('A' for Active; 'I' for Inactive)
REMARK    1  A    between atoms: S_1  and  C_3
REMARK    2  A    between atoms: S_1  and  C_11
REMARK    3  A    between atoms: C_4  and  O_9
REMARK    4  A    between atoms: C_11  and  C_12
REMARK    5  A    between atoms: C_12  and  C_13
REMARK    6  A    between atoms: C_14  and  P_15
REMARK    7  A    between atoms: P_15  and  O_17
REMARK    8  A    between atoms: P_15  and  O_19
REMARK                            x       y       z     vdW  Elec       q    Type
REMARK                         _______ _______ _______ _____ _____    ______ ____
ROOT
ATOM      1  S   UNL     1      34.516 -15.151 -21.126  0.00  0.00    -0.110 S 
ENDROOT
BRANCH   1   3
ATOM      2  F   UNL     1      33.689 -20.190 -20.985  0.00  0.00    -0.204 F 
ATOM      3  C   UNL     1      34.617 -16.783 -21.853  0.00  0.00    +0.061 C 
ATOM      4  C   UNL     1      35.187 -16.982 -23.108  0.00  0.00    +0.139 C 
ATOM      5  C   UNL     1      34.111 -17.865 -21.133  0.00  0.00    +0.039 C 
ATOM      6  C   UNL     1      35.250 -18.267 -23.648  0.00  0.00    +0.039 C 
ATOM      7  C   UNL     1      34.175 -19.150 -21.673  0.00  0.00    +0.141 C 
ATOM      8  C   UNL     1      34.745 -19.351 -22.930  0.00  0.00    +0.033 C 
BRANCH   4   9
ATOM      9  O   UNL     1      35.691 -15.947 -23.838  0.00  0.00    -0.505 OA
ATOM     10  H   UNL     1      36.112 -16.114 -24.659  0.00  0.00    +0.292 HD
ENDBRANCH   4   9
ENDBRANCH   1   3
BRANCH   1  11
ATOM     11  C   UNL     1      32.782 -14.719 -21.447  0.00  0.00    +0.067 C 
BRANCH  11  12
ATOM     12  C   UNL     1      32.690 -13.577 -22.455  0.00  0.00    +0.038 C 
BRANCH  12  13
ATOM     13  C   UNL     1      32.706 -14.104 -23.861  0.00  0.00    -0.018 C 
ATOM     14  C   UNL     1      33.370 -13.527 -24.871  0.00  0.00    +0.083 C 
BRANCH  14  15
ATOM     15  P   UNL     1      33.345 -14.187 -26.487  0.00  0.00    +0.359 P 
ATOM     16  O   UNL     1      33.954 -13.449 -27.652  0.00  0.00    -0.253 OA
BRANCH  15  17
ATOM     17  O   UNL     1      31.783 -14.543 -26.758  0.00  0.00    -0.321 OA
ATOM     18  H   UNL     1      31.229 -14.087 -26.106  0.00  0.00    +0.220 HD
ENDBRANCH  15  17
BRANCH  15  19
ATOM     19  O   UNL     1      33.969 -15.678 -26.320  0.00  0.00    -0.321 OA
ATOM     20  H   UNL     1      34.923 -15.613 -26.157  0.00  0.00    +0.220 HD
ENDBRANCH  15  19
ENDBRANCH  14  15
ENDBRANCH  12  13
ENDBRANCH  11  12
ENDBRANCH   1  11
TORSDOF 8
ENDMDL
MODEL 4
REMARK VINA RESULT:      -7.5      4.205      5.811
REMARK  Name = 5288544
REMARK  8 active torsions:
REMARK  status: ('A' for Active; 'I' for Inactive)
REMARK    1  A    between atoms: S_1  and  C_3
REMARK    2  A    between atoms: S_1  and  C_11
REMARK    3  A    between atoms: C_4  and  O_9
REMARK    4  A    between atoms: C_11  and  C_12
REMARK    5  A    between atoms: C_12  and  C_13
REMARK    6  A    between atoms: C_14  and  P_15
REMARK    7  A    between atoms: P_15  and  O_17
REMARK    8  A    between atoms: P_15  and  O_19
REMARK                            x       y       z     vdW  Elec       q    Type
REMARK                         _______ _______ _______ _____ _____    ______ ____
ROOT
ATOM      1  S   UNL     1      35.294 -22.210 -18.482  0.00  0.00    -0.110 S 
ENDROOT
BRANCH   1   3
ATOM      2  F   UNL     1      36.915 -18.658 -21.778  0.00  0.00    -0.204 F 
ATOM      3  C   UNL     1      34.985 -20.934 -19.699  0.00  0.00    +0.061 C 
ATOM      4  C   UNL     1      33.688 -20.588 -20.073  0.00  0.00    +0.139 C 
ATOM      5  C   UNL     1      36.076 -20.283 -20.273  0.00  0.00    +0.039 C 
ATOM      6  C   UNL     1      33.480 -19.590 -21.024  0.00  0.00    +0.039 C 
ATOM      7  C   UNL     1      35.869 -19.284 -21.224  0.00  0.00    +0.141 C 
ATOM      8  C   UNL     1      34.570 -18.937 -21.599  0.00  0.00    +0.033 C 
BRANCH   4   9
ATOM      9  O   UNL     1      32.599 -21.205 -19.531  0.00  0.00    -0.505 OA
ATOM     10  H   UNL     1      32.369 -22.073 -19.801  0.00  0.00    +0.292 HD
ENDBRANCH   4   9
ENDBRANCH   1   3
BRANCH   1  11
ATOM     11  C   UNL     1      36.840 -21.624 -17.730  0.00  0.00    +0.067 C 
BRANCH  11  12
ATOM     12  C   UNL     1      36.860 -21.931 -16.235  0.00  0.00    +0.038 C 
BRANCH  12  13
ATOM     13  C   UNL     1      37.607 -23.205 -15.964  0.00  0.00    -0.018 C 
ATOM     14  C   UNL     1      37.293 -24.065 -14.985  0.00  0.00    +0.083 C 
BRANCH  14  15
ATOM     15  P   UNL     1      38.205 -25.529 -14.717  0.00  0.00    +0.359 P 
ATOM     16  O   UNL     1      38.386 -26.106 -13.336  0.00  0.00    -0.253 OA
BRANCH  15  17
ATOM     17  O   UNL     1      39.635 -25.258 -15.441  0.00  0.00    -0.321 OA
ATOM     18  H   UNL     1      39.582 -25.526 -16.372  0.00  0.00    +0.220 HD
ENDBRANCH  15  17
BRANCH  15  19
ATOM     19  O   UNL     1      37.548 -26.604 -15.742  0.00  0.00    -0.321 OA
ATOM     20  H   UNL     1      38.200 -26.847 -16.418  0.00  0.00    +0.220 HD
ENDBRANCH  15  19
ENDBRANCH  14  15
ENDBRANCH  12  13
ENDBRANCH  11  12
ENDBRANCH   1  11
TORSDOF 8
ENDMDL
MODEL 5
REMARK VINA RESULT:      -7.4      8.988     10.407
REMARK  Name = 5288544
REMARK  8 active torsions:
REMARK  status: ('A' for Active; 'I' for Inactive)
REMARK    1  A    between atoms: S_1  and  C_3
REMARK    2  A    between atoms: S_1  and  C_11
REMARK    3  A    between atoms: C_4  and  O_9
REMARK    4  A    between atoms: C_11  and  C_12
REMARK    5  A    between atoms: C_12  and  C_13
REMARK    6  A    between atoms: C_14  and  P_15
REMARK    7  A    between atoms: P_15  and  O_17
REMARK    8  A    between atoms: P_15  and  O_19
REMARK                            x       y       z     vdW  Elec       q    Type
REMARK                         _______ _______ _______ _____ _____    ______ ____
ROOT
ATOM      1  S   UNL     1      34.540 -23.200 -14.942  0.00  0.00    -0.110 S 
ENDROOT
BRANCH   1   3
ATOM      2  F   UNL     1      29.818 -23.263 -16.890  0.00  0.00    -0.204 F 
ATOM      3  C   UNL     1      32.827 -23.716 -14.899  0.00  0.00    +0.061 C 
ATOM      4  C   UNL     1      32.341 -24.527 -13.876  0.00  0.00    +0.139 C 
ATOM      5  C   UNL     1      31.977 -23.287 -15.917  0.00  0.00    +0.039 C 
ATOM      6  C   UNL     1      31.000 -24.913 -13.871  0.00  0.00    +0.039 C 
ATOM      7  C   UNL     1      30.636 -23.672 -15.913  0.00  0.00    +0.141 C 
ATOM      8  C   UNL     1      30.148 -24.485 -14.889  0.00  0.00    +0.033 C 
BRANCH   4   9
ATOM      9  O   UNL     1      33.144 -24.964 -12.865  0.00  0.00    -0.505 OA
ATOM     10  H   UNL     1      33.720 -24.364 -12.432  0.00  0.00    +0.292 HD
ENDBRANCH   4   9
ENDBRANCH   1   3
BRANCH   1  11
ATOM     11  C   UNL     1      35.384 -24.777 -15.258  0.00  0.00    +0.067 C 
BRANCH  11  12
ATOM     12  C   UNL     1      36.326 -25.123 -14.108  0.00  0.00    +0.038 C 
BRANCH  12  13
ATOM     13  C   UNL     1      37.743 -25.229 -14.595  0.00  0.00    -0.018 C 
ATOM     14  C   UNL     1      38.736 -25.797 -13.897  0.00  0.00    +0.083 C 
BRANCH  14  15
ATOM     15  P   UNL     1      40.365 -25.885 -14.517  0.00  0.00    +0.359 P 
ATOM     16  O   UNL     1      41.322 -26.963 -14.076  0.00  0.00    -0.253 OA
BRANCH  15  17
ATOM     17  O   UNL     1      40.980 -24.402 -14.261  0.00  0.00    -0.321 OA
ATOM     18  H   UNL     1      41.892 -24.368 -14.590  0.00  0.00    +0.220 HD
ENDBRANCH  15  17
BRANCH  15  19
ATOM     19  O   UNL     1      40.182 -25.860 -16.131  0.00  0.00    -0.321 OA
ATOM     20  H   UNL     1      40.107 -26.768 -16.462  0.00  0.00    +0.220 HD
ENDBRANCH  15  19
ENDBRANCH  14  15
ENDBRANCH  12  13
ENDBRANCH  11  12
ENDBRANCH   1  11
TORSDOF 8
ENDMDL
MODEL 6
REMARK VINA RESULT:      -7.4      2.057      2.697
REMARK  Name = 5288544
REMARK  8 active torsions:
REMARK  status: ('A' for Active; 'I' for Inactive)
REMARK    1  A    between atoms: S_1  and  C_3
REMARK    2  A    between atoms: S_1  and  C_11
REMARK    3  A    between atoms: C_4  and  O_9
REMARK    4  A    between atoms: C_11  and  C_12
REMARK    5  A    between atoms: C_12  and  C_13
REMARK    6  A    between atoms: C_14  and  P_15
REMARK    7  A    between atoms: P_15  and  O_17
REMARK    8  A    between atoms: P_15  and  O_19
REMARK                            x       y       z     vdW  Elec       q    Type
REMARK                         _______ _______ _______ _____ _____    ______ ____
ROOT
ATOM      1  S   UNL     1      35.664 -18.479 -22.913  0.00  0.00    -0.110 S 
ENDROOT
BRANCH   1   3
ATOM      2  F   UNL     1      33.705 -14.149 -21.038  0.00  0.00    -0.204 F 
ATOM      3  C   UNL     1      34.822 -16.915 -23.120  0.00  0.00    +0.061 C 
ATOM      4  C   UNL     1      34.404 -16.478 -24.375  0.00  0.00    +0.139 C 
ATOM      5  C   UNL     1      34.586 -16.130 -21.992  0.00  0.00    +0.039 C 
ATOM      6  C   UNL     1      33.749 -15.253 -24.504  0.00  0.00    +0.039 C 
ATOM      7  C   UNL     1      33.932 -14.905 -22.120  0.00  0.00    +0.141 C 
ATOM      8  C   UNL     1      33.513 -14.467 -23.377  0.00  0.00    +0.033 C 
BRANCH   4   9
ATOM      9  O   UNL     1      34.617 -17.220 -25.499  0.00  0.00    -0.505 OA
ATOM     10  H   UNL     1      34.448 -18.143 -25.490  0.00  0.00    +0.292 HD
ENDBRANCH   4   9
ENDBRANCH   1   3
BRANCH   1  11
ATOM     11  C   UNL     1      35.503 -18.742 -21.123  0.00  0.00    +0.067 C 
BRANCH  11  12
ATOM     12  C   UNL     1      36.532 -19.756 -20.633  0.00  0.00    +0.038 C 
BRANCH  12  13
ATOM     13  C   UNL     1      35.880 -20.808 -19.782  0.00  0.00    -0.018 C 
ATOM     14  C   UNL     1      34.615 -21.221 -19.937  0.00  0.00    +0.083 C 
BRANCH  14  15
ATOM     15  P   UNL     1      33.913 -22.445 -18.910  0.00  0.00    +0.359 P 
ATOM     16  O   UNL     1      32.520 -22.304 -18.352  0.00  0.00    -0.253 OA
BRANCH  15  17
ATOM     17  O   UNL     1      35.008 -22.666 -17.730  0.00  0.00    -0.321 OA
ATOM     18  H   UNL     1      34.600 -22.478 -16.870  0.00  0.00    +0.220 HD
ENDBRANCH  15  17
BRANCH  15  19
ATOM     19  O   UNL     1      34.093 -23.824 -19.750  0.00  0.00    -0.321 OA
ATOM     20  H   UNL     1      34.089 -23.627 -20.700  0.00  0.00    +0.220 HD
ENDBRANCH  15  19
ENDBRANCH  14  15
ENDBRANCH  12  13
ENDBRANCH  11  12
ENDBRANCH   1  11
TORSDOF 8
ENDMDL
MODEL 7
REMARK VINA RESULT:      -7.4      4.184      7.652
REMARK  Name = 5288544
REMARK  8 active torsions:
REMARK  status: ('A' for Active; 'I' for Inactive)
REMARK    1  A    between atoms: S_1  and  C_3
REMARK    2  A    between atoms: S_1  and  C_11
REMARK    3  A    between atoms: C_4  and  O_9
REMARK    4  A    between atoms: C_11  and  C_12
REMARK    5  A    between atoms: C_12  and  C_13
REMARK    6  A    between atoms: C_14  and  P_15
REMARK    7  A    between atoms: P_15  and  O_17
REMARK    8  A    between atoms: P_15  and  O_19
REMARK                            x       y       z     vdW  Elec       q    Type
REMARK                         _______ _______ _______ _____ _____    ______ ____
ROOT
ATOM      1  S   UNL     1      34.594 -19.037 -22.110  0.00  0.00    -0.110 S 
ENDROOT
BRANCH   1   3
ATOM      2  F   UNL     1      37.101 -21.903 -18.703  0.00  0.00    -0.204 F 
ATOM      3  C   UNL     1      34.625 -20.233 -20.779  0.00  0.00    +0.061 C 
ATOM      4  C   UNL     1      33.450 -20.784 -20.272  0.00  0.00    +0.139 C 
ATOM      5  C   UNL     1      35.859 -20.610 -20.251  0.00  0.00    +0.039 C 
ATOM      6  C   UNL     1      33.507 -21.713 -19.234  0.00  0.00    +0.039 C 
ATOM      7  C   UNL     1      35.917 -21.540 -19.213  0.00  0.00    +0.141 C 
ATOM      8  C   UNL     1      34.741 -22.092 -18.705  0.00  0.00    +0.033 C 
BRANCH   4   9
ATOM      9  O   UNL     1      32.227 -20.437 -20.765  0.00  0.00    -0.505 OA
ATOM     10  H   UNL     1      31.831 -20.953 -21.441  0.00  0.00    +0.292 HD
ENDBRANCH   4   9
ENDBRANCH   1   3
BRANCH   1  11
ATOM     11  C   UNL     1      35.685 -17.741 -21.456  0.00  0.00    +0.067 C 
BRANCH  11  12
ATOM     12  C   UNL     1      34.867 -16.558 -20.943  0.00  0.00    +0.038 C 
BRANCH  12  13
ATOM     13  C   UNL     1      34.170 -15.862 -22.076  0.00  0.00    -0.018 C 
ATOM     14  C   UNL     1      34.200 -14.537 -22.274  0.00  0.00    +0.083 C 
BRANCH  14  15
ATOM     15  P   UNL     1      33.364 -13.786 -23.610  0.00  0.00    +0.359 P 
ATOM     16  O   UNL     1      33.133 -14.516 -24.908  0.00  0.00    -0.253 OA
BRANCH  15  17
ATOM     17  O   UNL     1      34.149 -12.383 -23.847  0.00  0.00    -0.321 OA
ATOM     18  H   UNL     1      34.864 -12.517 -24.489  0.00  0.00    +0.220 HD
ENDBRANCH  15  17
BRANCH  15  19
ATOM     19  O   UNL     1      31.975 -13.248 -22.962  0.00  0.00    -0.321 OA
ATOM     20  H   UNL     1      31.346 -13.040 -23.670  0.00  0.00    +0.220 HD
ENDBRANCH  15  19
ENDBRANCH  14  15
ENDBRANCH  12  13
ENDBRANCH  11  12
ENDBRANCH   1  11
TORSDOF 8
ENDMDL
MODEL 8
REMARK VINA RESULT:      -7.4      8.145      9.934
REMARK  Name = 5288544
REMARK  8 active torsions:
REMARK  status: ('A' for Active; 'I' for Inactive)
REMARK    1  A    between atoms: S_1  and  C_3
REMARK    2  A    between atoms: S_1  and  C_11
REMARK    3  A    between atoms: C_4  and  O_9
REMARK    4  A    between atoms: C_11  and  C_12
REMARK    5  A    between atoms: C_12  and  C_13
REMARK    6  A    between atoms: C_14  and  P_15
REMARK    7  A    between atoms: P_15  and  O_17
REMARK    8  A    between atoms: P_15  and  O_19
REMARK                            x       y       z     vdW  Elec       q    Type
REMARK                         _______ _______ _______ _____ _____    ______ ____
ROOT
ATOM      1  S   UNL     1      34.847 -23.449 -16.082  0.00  0.00    -0.110 S 
ENDROOT
BRANCH   1   3
ATOM      2  F   UNL     1      30.871 -23.642 -12.879  0.00  0.00    -0.204 F 
ATOM      3  C   UNL     1      33.096 -23.313 -15.737  0.00  0.00    +0.061 C 
ATOM      4  C   UNL     1      32.183 -22.998 -16.741  0.00  0.00    +0.139 C 
ATOM      5  C   UNL     1      32.655 -23.532 -14.433  0.00  0.00    +0.039 C 
ATOM      6  C   UNL     1      30.824 -22.900 -16.440  0.00  0.00    +0.039 C 
ATOM      7  C   UNL     1      31.297 -23.433 -14.131  0.00  0.00    +0.141 C 
ATOM      8  C   UNL     1      30.381 -23.118 -15.136  0.00  0.00    +0.033 C 
BRANCH   4   9
ATOM      9  O   UNL     1      32.580 -22.779 -18.026  0.00  0.00    -0.505 OA
ATOM     10  H   UNL     1      32.719 -21.903 -18.331  0.00  0.00    +0.292 HD
ENDBRANCH   4   9
ENDBRANCH   1   3
BRANCH   1  11
ATOM     11  C   UNL     1      35.495 -23.952 -14.462  0.00  0.00    +0.067 C 
BRANCH  11  12
ATOM     12  C   UNL     1      36.174 -25.316 -14.555  0.00  0.00    +0.038 C 
BRANCH  12  13
ATOM     13  C   UNL     1      37.635 -25.164 -14.867  0.00  0.00    -0.018 C 
ATOM     14  C   UNL     1      38.612 -25.820 -14.225  0.00  0.00    +0.083 C 
BRANCH  14  15
ATOM     15  P   UNL     1      40.294 -25.595 -14.632  0.00  0.00    +0.359 P 
ATOM     16  O   UNL     1      41.030 -24.328 -14.279  0.00  0.00    -0.253 OA
BRANCH  15  17
ATOM     17  O   UNL     1      40.374 -25.905 -16.226  0.00  0.00    -0.321 OA
ATOM     18  H   UNL     1      39.871 -25.233 -16.712  0.00  0.00    +0.220 HD
ENDBRANCH  15  17
BRANCH  15  19
ATOM     19  O   UNL     1      41.031 -26.912 -14.032  0.00  0.00    -0.321 OA
ATOM     20  H   UNL     1      41.702 -27.221 -14.659  0.00  0.00    +0.220 HD
ENDBRANCH  15  19
ENDBRANCH  14  15
ENDBRANCH  12  13
ENDBRANCH  11  12
ENDBRANCH   1  11
TORSDOF 8
ENDMDL
MODEL 9
REMARK VINA RESULT:      -7.3      4.447      7.376
REMARK  Name = 5288544
REMARK  8 active torsions:
REMARK  status: ('A' for Active; 'I' for Inactive)
REMARK    1  A    between atoms: S_1  and  C_3
REMARK    2  A    between atoms: S_1  and  C_11
REMARK    3  A    between atoms: C_4  and  O_9
REMARK    4  A    between atoms: C_11  and  C_12
REMARK    5  A    between atoms: C_12  and  C_13
REMARK    6  A    between atoms: C_14  and  P_15
REMARK    7  A    between atoms: P_15  and  O_17
REMARK    8  A    between atoms: P_15  and  O_19
REMARK                            x       y       z     vdW  Elec       q    Type
REMARK                         _______ _______ _______ _____ _____    ______ ____
ROOT
ATOM      1  S   UNL     1      35.049 -17.818 -22.072  0.00  0.00    -0.110 S 
ENDROOT
BRANCH   1   3
ATOM      2  F   UNL     1      32.986 -21.702 -19.472  0.00  0.00    -0.204 F 
ATOM      3  C   UNL     1      35.192 -19.277 -21.045  0.00  0.00    +0.061 C 
ATOM      4  C   UNL     1      36.435 -19.758 -20.641  0.00  0.00    +0.139 C 
ATOM      5  C   UNL     1      34.026 -19.931 -20.651  0.00  0.00    +0.039 C 
ATOM      6  C   UNL     1      36.514 -20.898 -19.841  0.00  0.00    +0.039 C 
ATOM      7  C   UNL     1      34.104 -21.071 -19.851  0.00  0.00    +0.141 C 
ATOM      8  C   UNL     1      35.349 -21.554 -19.445  0.00  0.00    +0.033 C 
BRANCH   4   9
ATOM      9  O   UNL     1      37.595 -19.142 -21.008  0.00  0.00    -0.505 OA
ATOM     10  H   UNL     1      37.718 -18.866 -21.896  0.00  0.00    +0.292 HD
ENDBRANCH   4   9
ENDBRANCH   1   3
BRANCH   1  11
ATOM     11  C   UNL     1      35.173 -18.535 -23.736  0.00  0.00    +0.067 C 
BRANCH  11  12
ATOM     12  C   UNL     1      34.634 -17.563 -24.782  0.00  0.00    +0.038 C 
BRANCH  12  13
ATOM     13  C   UNL     1      34.552 -16.171 -24.223  0.00  0.00    -0.018 C 
ATOM     14  C   UNL     1      33.589 -15.293 -24.535  0.00  0.00    +0.083 C 
BRANCH  14  15
ATOM     15  P   UNL     1      33.551 -13.686 -23.855  0.00  0.00    +0.359 P 
ATOM     16  O   UNL     1      33.858 -12.468 -24.688  0.00  0.00    -0.253 OA
BRANCH  15  17
ATOM     17  O   UNL     1      34.515 -13.773 -22.549  0.00  0.00    -0.321 OA
ATOM     18  H   UNL     1      35.321 -13.256 -22.706  0.00  0.00    +0.220 HD
ENDBRANCH  15  17
BRANCH  15  19
ATOM     19  O   UNL     1      32.093 -13.585 -23.146  0.00  0.00    -0.321 OA
ATOM     20  H   UNL     1      32.110 -14.063 -22.302  0.00  0.00    +0.220 HD
ENDBRANCH  15  19
ENDBRANCH  14  15
ENDBRANCH  12  13
ENDBRANCH  11  12
ENDBRANCH   1  11
TORSDOF 8
ENDMDL
