MODEL 1
REMARK VINA RESULT:      -7.8      0.000      0.000
REMARK  Name = 4810
REMARK  2 active torsions:
REMARK  status: ('A' for Active; 'I' for Inactive)
REMARK    1  A    between atoms: C_4  and  N_10
REMARK    2  A    between atoms: C_5  and  O_17
REMARK                            x       y       z     vdW  Elec       q    Type
REMARK                         _______ _______ _______ _____ _____    ______ ____
ROOT
ATOM      1 CL   UNL     1      34.944 -19.460 -24.670  0.00  0.00    -0.049 Cl
ATOM      2  N   UNL     1      34.020 -15.166 -23.970  0.00  0.00    -0.309 NA
ATOM      3  N   UNL     1      34.088 -17.130 -25.365  0.00  0.00    -0.334 NA
ATOM      4  C   UNL     1      34.869 -17.241 -23.090  0.00  0.00    +0.227 C 
ATOM      5  C   UNL     1      34.548 -15.903 -22.971  0.00  0.00    +0.289 C 
ATOM      6  C   UNL     1      34.614 -17.806 -24.323  0.00  0.00    +0.206 C 
ATOM      7  C   UNL     1      33.818 -15.833 -25.123  0.00  0.00    +0.118 C 
ATOM      8  C   UNL     1      33.236 -15.052 -26.251  0.00  0.00    +0.143 C 
ENDROOT
BRANCH   4  10
ATOM      9  N   UNL     1      35.694 -19.916 -20.790  0.00  0.00    -0.284 N 
ATOM     10  N   UNL     1      35.417 -17.964 -22.022  0.00  0.00    -0.293 N 
ATOM     11  N   UNL     1      33.575 -19.152 -21.066  0.00  0.00    -0.215 NA
ATOM     12  C   UNL     1      34.956 -20.912 -20.074  0.00  0.00    +0.085 C 
ATOM     13  C   UNL     1      33.519 -20.403 -20.250  0.00  0.00    +0.117 C 
ATOM     14  C   UNL     1      34.853 -18.979 -21.309  0.00  0.00    +0.186 C 
ATOM     15  H   UNL     1      36.673 -19.910 -20.892  0.00  0.00    +0.155 HD
ATOM     16  H   UNL     1      36.328 -17.706 -21.753  0.00  0.00    +0.150 HD
ENDBRANCH   4  10
BRANCH   5  17
ATOM     17  O   UNL     1      34.762 -15.252 -21.784  0.00  0.00    -0.449 OA
ATOM     18  C   UNL     1      33.613 -14.976 -20.991  0.00  0.00    +0.255 C 
ENDBRANCH   5  17
TORSDOF 2
ENDMDL
MODEL 2
REMARK VINA RESULT:      -7.7      1.995      2.690
REMARK  Name = 4810
REMARK  2 active torsions:
REMARK  status: ('A' for Active; 'I' for Inactive)
REMARK    1  A    between atoms: C_4  and  N_10
REMARK    2  A    between atoms: C_5  and  O_17
REMARK                            x       y       z     vdW  Elec       q    Type
REMARK                         _______ _______ _______ _____ _____    ______ ____
ROOT
ATOM      1 CL   UNL     1      33.955 -14.860 -20.606  0.00  0.00    -0.049 Cl
ATOM      2  N   UNL     1      34.198 -16.247 -24.825  0.00  0.00    -0.309 NA
ATOM      3  N   UNL     1      33.512 -14.668 -23.138  0.00  0.00    -0.334 NA
ATOM      4  C   UNL     1      34.732 -16.648 -22.511  0.00  0.00    +0.227 C 
ATOM      5  C   UNL     1      34.754 -16.992 -23.848  0.00  0.00    +0.289 C 
ATOM      6  C   UNL     1      34.090 -15.463 -22.213  0.00  0.00    +0.206 C 
ATOM      7  C   UNL     1      33.603 -15.113 -24.406  0.00  0.00    +0.118 C 
ATOM      8  C   UNL     1      32.975 -14.263 -25.457  0.00  0.00    +0.143 C 
ENDROOT
BRANCH   4  10
ATOM      9  N   UNL     1      35.837 -19.529 -20.613  0.00  0.00    -0.284 N 
ATOM     10  N   UNL     1      35.324 -17.456 -21.532  0.00  0.00    -0.293 N 
ATOM     11  N   UNL     1      33.643 -19.050 -20.941  0.00  0.00    -0.215 NA
ATOM     12  C   UNL     1      35.227 -20.732 -20.132  0.00  0.00    +0.085 C 
ATOM     13  C   UNL     1      33.740 -20.418 -20.346  0.00  0.00    +0.117 C 
ATOM     14  C   UNL     1      34.889 -18.651 -21.042  0.00  0.00    +0.186 C 
ATOM     15  H   UNL     1      36.807 -19.361 -20.629  0.00  0.00    +0.155 HD
ATOM     16  H   UNL     1      36.165 -17.116 -21.148  0.00  0.00    +0.150 HD
ENDBRANCH   4  10
BRANCH   5  17
ATOM     17  O   UNL     1      35.371 -18.150 -24.245  0.00  0.00    -0.449 OA
ATOM     18  C   UNL     1      34.530 -19.183 -24.745  0.00  0.00    +0.255 C 
ENDBRANCH   5  17
TORSDOF 2
ENDMDL
MODEL 3
REMARK VINA RESULT:      -7.4      9.237     11.370
REMARK  Name = 4810
REMARK  2 active torsions:
REMARK  status: ('A' for Active; 'I' for Inactive)
REMARK    1  A    between atoms: C_4  and  N_10
REMARK    2  A    between atoms: C_5  and  O_17
REMARK                            x       y       z     vdW  Elec       q    Type
REMARK                         _______ _______ _______ _____ _____    ______ ____
ROOT
ATOM      1 CL   UNL     1      37.466 -21.991 -16.381  0.00  0.00    -0.049 Cl
ATOM      2  N   UNL     1      37.945 -25.367 -13.525  0.00  0.00    -0.309 NA
ATOM      3  N   UNL     1      38.768 -23.915 -15.264  0.00  0.00    -0.334 NA
ATOM      4  C   UNL     1      36.533 -23.631 -14.414  0.00  0.00    +0.227 C 
ATOM      5  C   UNL     1      36.779 -24.691 -13.565  0.00  0.00    +0.289 C 
ATOM      6  C   UNL     1      37.575 -23.285 -15.250  0.00  0.00    +0.206 C 
ATOM      7  C   UNL     1      38.883 -24.932 -14.388  0.00  0.00    +0.118 C 
ATOM      8  C   UNL     1      40.187 -25.654 -14.374  0.00  0.00    +0.143 C 
ENDROOT
BRANCH   4  10
ATOM      9  N   UNL     1      33.006 -22.881 -14.775  0.00  0.00    -0.284 N 
ATOM     10  N   UNL     1      35.302 -22.961 -14.418  0.00  0.00    -0.293 N 
ATOM     11  N   UNL     1      34.311 -23.493 -16.528  0.00  0.00    -0.215 NA
ATOM     12  C   UNL     1      32.014 -23.096 -15.783  0.00  0.00    +0.085 C 
ATOM     13  C   UNL     1      32.885 -23.508 -16.977  0.00  0.00    +0.117 C 
ATOM     14  C   UNL     1      34.251 -23.123 -15.270  0.00  0.00    +0.186 C 
ATOM     15  H   UNL     1      32.815 -22.596 -13.852  0.00  0.00    +0.155 HD
ATOM     16  H   UNL     1      35.182 -22.284 -13.714  0.00  0.00    +0.150 HD
ENDBRANCH   4  10
BRANCH   5  17
ATOM     17  O   UNL     1      35.805 -25.109 -12.694  0.00  0.00    -0.449 OA
ATOM     18  C   UNL     1      35.856 -24.576 -11.376  0.00  0.00    +0.255 C 
ENDBRANCH   5  17
TORSDOF 2
ENDMDL
MODEL 4
REMARK VINA RESULT:      -7.2      6.726      9.136
REMARK  Name = 4810
REMARK  2 active torsions:
REMARK  status: ('A' for Active; 'I' for Inactive)
REMARK    1  A    between atoms: C_4  and  N_10
REMARK    2  A    between atoms: C_5  and  O_17
REMARK                            x       y       z     vdW  Elec       q    Type
REMARK                         _______ _______ _______ _____ _____    ______ ____
ROOT
ATOM      1 CL   UNL     1      31.750 -23.888 -15.842  0.00  0.00    -0.049 Cl
ATOM      2  N   UNL     1      35.036 -22.212 -18.326  0.00  0.00    -0.309 NA
ATOM      3  N   UNL     1      32.709 -22.681 -17.907  0.00  0.00    -0.334 NA
ATOM      4  C   UNL     1      34.382 -23.359 -16.312  0.00  0.00    +0.227 C 
ATOM      5  C   UNL     1      35.329 -22.809 -17.152  0.00  0.00    +0.289 C 
ATOM      6  C   UNL     1      33.075 -23.264 -16.747  0.00  0.00    +0.206 C 
ATOM      7  C   UNL     1      33.726 -22.183 -18.637  0.00  0.00    +0.118 C 
ATOM      8  C   UNL     1      33.361 -21.531 -19.927  0.00  0.00    +0.143 C 
ENDROOT
BRANCH   4  10
ATOM      9  N   UNL     1      36.258 -25.040 -13.708  0.00  0.00    -0.284 N 
ATOM     10  N   UNL     1      34.736 -23.970 -15.102  0.00  0.00    -0.293 N 
ATOM     11  N   UNL     1      35.848 -25.991 -15.727  0.00  0.00    -0.215 NA
ATOM     12  C   UNL     1      37.117 -26.183 -13.643  0.00  0.00    +0.085 C 
ATOM     13  C   UNL     1      36.846 -26.838 -15.004  0.00  0.00    +0.117 C 
ATOM     14  C   UNL     1      35.593 -25.009 -14.896  0.00  0.00    +0.186 C 
ATOM     15  H   UNL     1      36.162 -24.370 -12.993  0.00  0.00    +0.155 HD
ATOM     16  H   UNL     1      34.310 -23.599 -14.295  0.00  0.00    +0.150 HD
ENDBRANCH   4  10
BRANCH   5  17
ATOM     17  O   UNL     1      36.655 -22.850 -16.807  0.00  0.00    -0.449 OA
ATOM     18  C   UNL     1      37.268 -21.610 -16.475  0.00  0.00    +0.255 C 
ENDBRANCH   5  17
TORSDOF 2
ENDMDL
MODEL 5
REMARK VINA RESULT:      -7.1      2.499      5.602
REMARK  Name = 4810
REMARK  2 active torsions:
REMARK  status: ('A' for Active; 'I' for Inactive)
REMARK    1  A    between atoms: C_4  and  N_10
REMARK    2  A    between atoms: C_5  and  O_17
REMARK                            x       y       z     vdW  Elec       q    Type
REMARK                         _______ _______ _______ _____ _____    ______ ____
ROOT
ATOM      1 CL   UNL     1      34.846 -15.118 -20.374  0.00  0.00    -0.049 Cl
ATOM      2  N   UNL     1      35.047 -18.878 -22.741  0.00  0.00    -0.309 NA
ATOM      3  N   UNL     1      35.034 -17.673 -20.654  0.00  0.00    -0.334 NA
ATOM      4  C   UNL     1      34.861 -16.477 -22.736  0.00  0.00    +0.227 C 
ATOM      5  C   UNL     1      34.931 -17.696 -23.381  0.00  0.00    +0.289 C 
ATOM      6  C   UNL     1      34.918 -16.528 -21.358  0.00  0.00    +0.206 C 
ATOM      7  C   UNL     1      35.092 -18.794 -21.397  0.00  0.00    +0.118 C 
ATOM      8  C   UNL     1      35.221 -20.080 -20.655  0.00  0.00    +0.143 C 
ENDROOT
BRANCH   4  10
ATOM      9  N   UNL     1      34.237 -13.008 -23.580  0.00  0.00    -0.284 N 
ATOM     10  N   UNL     1      34.741 -15.274 -23.446  0.00  0.00    -0.293 N 
ATOM     11  N   UNL     1      32.607 -14.394 -22.820  0.00  0.00    -0.215 NA
ATOM     12  C   UNL     1      33.182 -12.072 -23.337  0.00  0.00    +0.085 C 
ATOM     13  C   UNL     1      32.071 -12.999 -22.825  0.00  0.00    +0.117 C 
ATOM     14  C   UNL     1      33.835 -14.272 -23.267  0.00  0.00    +0.186 C 
ATOM     15  H   UNL     1      35.127 -12.772 -23.926  0.00  0.00    +0.155 HD
ATOM     16  H   UNL     1      35.396 -15.136 -24.168  0.00  0.00    +0.150 HD
ENDBRANCH   4  10
BRANCH   5  17
ATOM     17  O   UNL     1      34.879 -17.749 -24.750  0.00  0.00    -0.449 OA
ATOM     18  C   UNL     1      34.155 -18.833 -25.320  0.00  0.00    +0.255 C 
ENDBRANCH   5  17
TORSDOF 2
ENDMDL
MODEL 6
REMARK VINA RESULT:      -7.0      9.673     11.713
REMARK  Name = 4810
REMARK  2 active torsions:
REMARK  status: ('A' for Active; 'I' for Inactive)
REMARK    1  A    between atoms: C_4  and  N_10
REMARK    2  A    between atoms: C_5  and  O_17
REMARK                            x       y       z     vdW  Elec       q    Type
REMARK                         _______ _______ _______ _____ _____    ______ ____
ROOT
ATOM      1 CL   UNL     1      35.386 -24.415 -11.442  0.00  0.00    -0.049 Cl
ATOM      2  N   UNL     1      37.941 -24.324 -15.081  0.00  0.00    -0.309 NA
ATOM      3  N   UNL     1      37.520 -24.939 -12.789  0.00  0.00    -0.334 NA
ATOM      4  C   UNL     1      35.859 -23.718 -14.034  0.00  0.00    +0.227 C 
ATOM      5  C   UNL     1      36.724 -23.744 -15.109  0.00  0.00    +0.289 C 
ATOM      6  C   UNL     1      36.316 -24.339 -12.888  0.00  0.00    +0.206 C 
ATOM      7  C   UNL     1      38.270 -24.896 -13.906  0.00  0.00    +0.118 C 
ATOM      8  C   UNL     1      39.609 -25.548 -13.834  0.00  0.00    +0.143 C 
ENDROOT
BRANCH   4  10
ATOM      9  N   UNL     1      32.373 -22.892 -13.490  0.00  0.00    -0.284 N 
ATOM     10  N   UNL     1      34.603 -23.101 -14.113  0.00  0.00    -0.293 N 
ATOM     11  N   UNL     1      33.039 -24.897 -14.318  0.00  0.00    -0.215 NA
ATOM     12  C   UNL     1      31.147 -23.627 -13.426  0.00  0.00    +0.085 C 
ATOM     13  C   UNL     1      31.584 -24.987 -13.988  0.00  0.00    +0.117 C 
ATOM     14  C   UNL     1      33.371 -23.670 -13.995  0.00  0.00    +0.186 C 
ATOM     15  H   UNL     1      32.480 -21.955 -13.210  0.00  0.00    +0.155 HD
ATOM     16  H   UNL     1      34.614 -22.130 -14.274  0.00  0.00    +0.150 HD
ENDBRANCH   4  10
BRANCH   5  17
ATOM     17  O   UNL     1      36.360 -23.157 -16.294  0.00  0.00    -0.449 OA
ATOM     18  C   UNL     1      37.077 -21.988 -16.675  0.00  0.00    +0.255 C 
ENDBRANCH   5  17
TORSDOF 2
ENDMDL
MODEL 7
REMARK VINA RESULT:      -6.9      1.797      4.989
REMARK  Name = 4810
REMARK  2 active torsions:
REMARK  status: ('A' for Active; 'I' for Inactive)
REMARK    1  A    between atoms: C_4  and  N_10
REMARK    2  A    between atoms: C_5  and  O_17
REMARK                            x       y       z     vdW  Elec       q    Type
REMARK                         _______ _______ _______ _____ _____    ______ ____
ROOT
ATOM      1 CL   UNL     1      34.601 -17.863 -25.265  0.00  0.00    -0.049 Cl
ATOM      2  N   UNL     1      34.955 -17.751 -20.833  0.00  0.00    -0.309 NA
ATOM      3  N   UNL     1      34.764 -18.932 -22.925  0.00  0.00    -0.334 NA
ATOM      4  C   UNL     1      34.817 -16.524 -22.901  0.00  0.00    +0.227 C 
ATOM      5  C   UNL     1      34.925 -16.594 -21.526  0.00  0.00    +0.289 C 
ATOM      6  C   UNL     1      34.739 -17.738 -23.553  0.00  0.00    +0.206 C 
ATOM      7  C   UNL     1      34.872 -18.866 -21.584  0.00  0.00    +0.118 C 
ATOM      8  C   UNL     1      34.901 -20.165 -20.854  0.00  0.00    +0.143 C 
ENDROOT
BRANCH   4  10
ATOM      9  N   UNL     1      34.346 -13.017 -23.680  0.00  0.00    -0.284 N 
ATOM     10  N   UNL     1      34.790 -15.297 -23.576  0.00  0.00    -0.293 N 
ATOM     11  N   UNL     1      32.624 -14.389 -23.130  0.00  0.00    -0.215 NA
ATOM     12  C   UNL     1      33.291 -12.065 -23.507  0.00  0.00    +0.085 C 
ATOM     13  C   UNL     1      32.118 -12.983 -23.138  0.00  0.00    +0.117 C 
ATOM     14  C   UNL     1      33.891 -14.281 -23.451  0.00  0.00    +0.186 C 
ATOM     15  H   UNL     1      35.270 -12.790 -23.929  0.00  0.00    +0.155 HD
ATOM     16  H   UNL     1      35.515 -15.150 -24.226  0.00  0.00    +0.150 HD
ENDBRANCH   4  10
BRANCH   5  17
ATOM     17  O   UNL     1      35.011 -15.442 -20.788  0.00  0.00    -0.449 OA
ATOM     18  C   UNL     1      33.853 -15.067 -20.051  0.00  0.00    +0.255 C 
ENDBRANCH   5  17
TORSDOF 2
ENDMDL
MODEL 8
REMARK VINA RESULT:      -6.8      2.732      5.479
REMARK  Name = 4810
REMARK  2 active torsions:
REMARK  status: ('A' for Active; 'I' for Inactive)
REMARK    1  A    between atoms: C_4  and  N_10
REMARK    2  A    between atoms: C_5  and  O_17
REMARK                            x       y       z     vdW  Elec       q    Type
REMARK                         _______ _______ _______ _____ _____    ______ ____
ROOT
ATOM      1 CL   UNL     1      32.848 -15.050 -26.711  0.00  0.00    -0.049 Cl
ATOM      2  N   UNL     1      34.961 -16.500 -23.076  0.00  0.00    -0.309 NA
ATOM      3  N   UNL     1      33.994 -16.843 -25.257  0.00  0.00    -0.334 NA
ATOM      4  C   UNL     1      33.940 -14.658 -24.246  0.00  0.00    +0.227 C 
ATOM      5  C   UNL     1      34.599 -15.203 -23.161  0.00  0.00    +0.289 C 
ATOM      6  C   UNL     1      33.661 -15.536 -25.274  0.00  0.00    +0.206 C 
ATOM      7  C   UNL     1      34.633 -17.252 -24.145  0.00  0.00    +0.118 C 
ATOM      8  C   UNL     1      35.016 -18.692 -24.088  0.00  0.00    +0.143 C 
ENDROOT
BRANCH   4  10
ATOM      9  N   UNL     1      33.142 -11.263 -23.265  0.00  0.00    -0.284 N 
ATOM     10  N   UNL     1      33.584 -13.304 -24.287  0.00  0.00    -0.293 N 
ATOM     11  N   UNL     1      31.910 -13.049 -22.599  0.00  0.00    -0.215 NA
ATOM     12  C   UNL     1      32.303 -10.655 -22.276  0.00  0.00    +0.085 C 
ATOM     13  C   UNL     1      31.461 -11.854 -21.821  0.00  0.00    +0.117 C 
ATOM     14  C   UNL     1      32.859 -12.590 -23.380  0.00  0.00    +0.186 C 
ATOM     15  H   UNL     1      33.826 -10.787 -23.788  0.00  0.00    +0.155 HD
ATOM     16  H   UNL     1      33.900 -12.802 -25.073  0.00  0.00    +0.150 HD
ENDBRANCH   4  10
BRANCH   5  17
ATOM     17  O   UNL     1      34.923 -14.411 -22.090  0.00  0.00    -0.449 OA
ATOM     18  C   UNL     1      34.489 -14.858 -20.811  0.00  0.00    +0.255 C 
ENDBRANCH   5  17
TORSDOF 2
ENDMDL
MODEL 9
REMARK VINA RESULT:      -6.7      4.821      6.337
REMARK  Name = 4810
REMARK  2 active torsions:
REMARK  status: ('A' for Active; 'I' for Inactive)
REMARK    1  A    between atoms: C_4  and  N_10
REMARK    2  A    between atoms: C_5  and  O_17
REMARK                            x       y       z     vdW  Elec       q    Type
REMARK                         _______ _______ _______ _____ _____    ______ ____
ROOT
ATOM      1 CL   UNL     1      33.800 -11.965 -24.811  0.00  0.00    -0.049 Cl
ATOM      2  N   UNL     1      31.942  -9.478 -21.626  0.00  0.00    -0.309 NA
ATOM      3  N   UNL     1      33.283  -9.743 -23.612  0.00  0.00    -0.334 NA
ATOM      4  C   UNL     1      32.283 -11.668 -22.566  0.00  0.00    +0.227 C 
ATOM      5  C   UNL     1      31.750 -10.813 -21.623  0.00  0.00    +0.289 C 
ATOM      6  C   UNL     1      33.049 -11.070 -23.547  0.00  0.00    +0.206 C 
ATOM      7  C   UNL     1      32.707  -9.016 -22.635  0.00  0.00    +0.118 C 
ATOM      8  C   UNL     1      32.943  -7.545 -22.673  0.00  0.00    +0.143 C 
ENDROOT
BRANCH   4  10
ATOM      9  N   UNL     1      32.294 -15.141 -21.531  0.00  0.00    -0.284 N 
ATOM     10  N   UNL     1      32.055 -13.050 -22.520  0.00  0.00    -0.293 N 
ATOM     11  N   UNL     1      34.193 -14.019 -22.066  0.00  0.00    -0.215 NA
ATOM     12  C   UNL     1      33.288 -16.072 -21.090  0.00  0.00    +0.085 C 
ATOM     13  C   UNL     1      34.579 -15.325 -21.450  0.00  0.00    +0.117 C 
ATOM     14  C   UNL     1      32.882 -14.030 -22.058  0.00  0.00    +0.186 C 
ATOM     15  H   UNL     1      31.323 -15.284 -21.464  0.00  0.00    +0.155 HD
ATOM     16  H   UNL     1      31.184 -13.352 -22.866  0.00  0.00    +0.150 HD
ENDBRANCH   4  10
BRANCH   5  17
ATOM     17  O   UNL     1      30.972 -11.311 -20.611  0.00  0.00    -0.449 OA
ATOM     18  C   UNL     1      31.274 -10.864 -19.294  0.00  0.00    +0.255 C 
ENDBRANCH   5  17
TORSDOF 2
ENDMDL
