MODEL 1
REMARK VINA RESULT:      -9.9      0.000      0.000
REMARK  Name = 24360
REMARK  2 active torsions:
REMARK  status: ('A' for Active; 'I' for Inactive)
REMARK    1  A    between atoms: C_6  and  O_24
REMARK    2  A    between atoms: C_6  and  C_26
REMARK                            x       y       z     vdW  Elec       q    Type
REMARK                         _______ _______ _______ _____ _____    ______ ____
ROOT
ATOM      1  O   UNL     1      35.526 -19.770 -23.446  0.00  0.00    -0.442 OA
ATOM      2  O   UNL     1      34.398 -16.450 -25.816  0.00  0.00    -0.270 OA
ATOM      3  O   UNL     1      36.087 -20.412 -21.369  0.00  0.00    -0.247 OA
ATOM      4  N   UNL     1      33.715 -15.277 -23.944  0.00  0.00    -0.249 N 
ATOM      5  N   UNL     1      32.609 -13.482 -21.029  0.00  0.00    -0.405 NA
ATOM      6  C   UNL     1      34.339 -18.756 -21.548  0.00  0.00    +0.196 C 
ATOM      7  C   UNL     1      34.150 -17.536 -22.408  0.00  0.00    +0.017 C 
ATOM      8  C   UNL     1      33.455 -15.242 -22.584  0.00  0.00    +0.084 C 
ATOM      9  C   UNL     1      34.397 -17.601 -23.728  0.00  0.00    +0.074 C 
ATOM     10  C   UNL     1      33.418 -13.974 -24.574  0.00  0.00    +0.128 C 
ATOM     11  C   UNL     1      33.646 -16.311 -21.807  0.00  0.00    +0.016 C 
ATOM     12  C   UNL     1      32.946 -13.163 -23.414  0.00  0.00    +0.029 C 
ATOM     13  C   UNL     1      32.969 -13.911 -22.246  0.00  0.00    +0.142 C 
ATOM     14  C   UNL     1      34.177 -16.399 -24.608  0.00  0.00    +0.252 C 
ATOM     15  C   UNL     1      34.877 -18.861 -24.362  0.00  0.00    +0.239 C 
ATOM     16  C   UNL     1      35.399 -19.701 -22.100  0.00  0.00    +0.346 C 
ATOM     17  C   UNL     1      32.519 -11.858 -23.346  0.00  0.00    +0.002 C 
ATOM     18  C   UNL     1      32.128 -11.351 -22.096  0.00  0.00    +0.026 C 
ATOM     19  C   UNL     1      32.189 -12.202 -20.957  0.00  0.00    +0.113 C 
ATOM     20  C   UNL     1      31.682 -10.026 -21.962  0.00  0.00    +0.002 C 
ATOM     21  C   UNL     1      31.796 -11.679 -19.729  0.00  0.00    +0.085 C 
ATOM     22  C   UNL     1      31.296  -9.533 -20.718  0.00  0.00    -0.004 C 
ATOM     23  C   UNL     1      31.354 -10.360 -19.603  0.00  0.00    -0.019 C 
ENDROOT
BRANCH   6  24
ATOM     24  O   UNL     1      34.836 -18.371 -20.264  0.00  0.00    -0.373 OA
ATOM     25  H   UNL     1      34.523 -17.477 -20.052  0.00  0.00    +0.211 HD
ENDBRANCH   6  24
BRANCH   6  26
ATOM     26  C   UNL     1      33.027 -19.524 -21.362  0.00  0.00    +0.042 C 
ATOM     27  C   UNL     1      33.088 -20.432 -20.150  0.00  0.00    +0.003 C 
ENDBRANCH   6  26
TORSDOF 2
ENDMDL
MODEL 2
REMARK VINA RESULT:      -9.6      6.767     10.194
REMARK  Name = 24360
REMARK  2 active torsions:
REMARK  status: ('A' for Active; 'I' for Inactive)
REMARK    1  A    between atoms: C_6  and  O_24
REMARK    2  A    between atoms: C_6  and  C_26
REMARK                            x       y       z     vdW  Elec       q    Type
REMARK                         _______ _______ _______ _____ _____    ______ ____
ROOT
ATOM      1  O   UNL     1      31.775 -24.853 -12.981  0.00  0.00    -0.442 OA
ATOM      2  O   UNL     1      35.553 -24.431 -14.843  0.00  0.00    -0.270 OA
ATOM      3  O   UNL     1      29.718 -23.967 -12.826  0.00  0.00    -0.247 OA
ATOM      4  N   UNL     1      34.634 -23.160 -16.543  0.00  0.00    -0.249 N 
ATOM      5  N   UNL     1      33.184 -21.227 -19.207  0.00  0.00    -0.405 NA
ATOM      6  C   UNL     1      30.727 -23.967 -15.020  0.00  0.00    +0.196 C 
ATOM      7  C   UNL     1      32.114 -23.676 -15.524  0.00  0.00    +0.017 C 
ATOM      8  C   UNL     1      33.518 -22.641 -17.178  0.00  0.00    +0.084 C 
ATOM      9  C   UNL     1      33.179 -24.203 -14.896  0.00  0.00    +0.074 C 
ATOM     10  C   UNL     1      35.874 -22.768 -17.244  0.00  0.00    +0.128 C 
ATOM     11  C   UNL     1      32.283 -22.870 -16.723  0.00  0.00    +0.016 C 
ATOM     12  C   UNL     1      35.350 -21.953 -18.378  0.00  0.00    +0.029 C 
ATOM     13  C   UNL     1      33.964 -21.881 -18.337  0.00  0.00    +0.142 C 
ATOM     14  C   UNL     1      34.573 -23.952 -15.409  0.00  0.00    +0.252 C 
ATOM     15  C   UNL     1      33.018 -25.062 -13.688  0.00  0.00    +0.239 C 
ATOM     16  C   UNL     1      30.695 -24.241 -13.521  0.00  0.00    +0.346 C 
ATOM     17  C   UNL     1      36.007 -21.303 -19.396  0.00  0.00    +0.002 C 
ATOM     18  C   UNL     1      35.242 -20.599 -20.340  0.00  0.00    +0.026 C 
ATOM     19  C   UNL     1      33.824 -20.587 -20.208  0.00  0.00    +0.113 C 
ATOM     20  C   UNL     1      35.856 -19.916 -21.402  0.00  0.00    +0.002 C 
ATOM     21  C   UNL     1      33.086 -19.885 -21.155  0.00  0.00    +0.085 C 
ATOM     22  C   UNL     1      35.087 -19.222 -22.333  0.00  0.00    -0.004 C 
ATOM     23  C   UNL     1      33.703 -19.207 -22.209  0.00  0.00    -0.019 C 
ENDROOT
BRANCH   6  24
ATOM     24  O   UNL     1      29.899 -22.814 -15.190  0.00  0.00    -0.373 OA
ATOM     25  H   UNL     1      29.550 -22.537 -14.329  0.00  0.00    +0.211 HD
ENDBRANCH   6  24
BRANCH   6  26
ATOM     26  C   UNL     1      30.093 -25.147 -15.762  0.00  0.00    +0.042 C 
ATOM     27  C   UNL     1      28.749 -24.768 -16.351  0.00  0.00    +0.003 C 
ENDBRANCH   6  26
TORSDOF 2
ENDMDL
MODEL 3
REMARK VINA RESULT:      -9.1      1.194      1.452
REMARK  Name = 24360
REMARK  2 active torsions:
REMARK  status: ('A' for Active; 'I' for Inactive)
REMARK    1  A    between atoms: C_6  and  O_24
REMARK    2  A    between atoms: C_6  and  C_26
REMARK                            x       y       z     vdW  Elec       q    Type
REMARK                         _______ _______ _______ _____ _____    ______ ____
ROOT
ATOM      1  O   UNL     1      35.685 -18.829 -23.207  0.00  0.00    -0.442 OA
ATOM      2  O   UNL     1      34.378 -16.065 -26.134  0.00  0.00    -0.270 OA
ATOM      3  O   UNL     1      36.402 -19.027 -21.088  0.00  0.00    -0.247 OA
ATOM      4  N   UNL     1      33.838 -14.513 -24.507  0.00  0.00    -0.249 N 
ATOM      5  N   UNL     1      32.956 -12.128 -21.963  0.00  0.00    -0.405 NA
ATOM      6  C   UNL     1      34.644 -17.419 -21.483  0.00  0.00    +0.196 C 
ATOM      7  C   UNL     1      34.390 -16.405 -22.565  0.00  0.00    +0.017 C 
ATOM      8  C   UNL     1      33.683 -14.189 -23.169  0.00  0.00    +0.084 C 
ATOM      9  C   UNL     1      34.536 -16.751 -23.856  0.00  0.00    +0.074 C 
ATOM     10  C   UNL     1      33.494 -13.368 -25.375  0.00  0.00    +0.128 C 
ATOM     11  C   UNL     1      33.933 -15.073 -22.201  0.00  0.00    +0.016 C 
ATOM     12  C   UNL     1      33.111 -12.324 -24.380  0.00  0.00    +0.029 C 
ATOM     13  C   UNL     1      33.223 -12.810 -23.085  0.00  0.00    +0.142 C 
ATOM     14  C   UNL     1      34.250 -15.757 -24.952  0.00  0.00    +0.252 C 
ATOM     15  C   UNL     1      34.967 -18.123 -24.244  0.00  0.00    +0.239 C 
ATOM     16  C   UNL     1      35.660 -18.476 -21.900  0.00  0.00    +0.346 C 
ATOM     17  C   UNL     1      32.690 -11.027 -24.557  0.00  0.00    +0.002 C 
ATOM     18  C   UNL     1      32.394 -10.262 -23.417  0.00  0.00    +0.026 C 
ATOM     19  C   UNL     1      32.542 -10.855 -22.132  0.00  0.00    +0.113 C 
ATOM     20  C   UNL     1      31.959  -8.932 -23.534  0.00  0.00    +0.002 C 
ATOM     21  C   UNL     1      32.243 -10.079 -21.016  0.00  0.00    +0.085 C 
ATOM     22  C   UNL     1      31.668  -8.183 -22.396  0.00  0.00    -0.004 C 
ATOM     23  C   UNL     1      31.811  -8.756 -21.139  0.00  0.00    -0.019 C 
ENDROOT
BRANCH   6  24
ATOM     24  O   UNL     1      35.237 -16.780 -20.350  0.00  0.00    -0.373 OA
ATOM     25  H   UNL     1      35.114 -15.820 -20.420  0.00  0.00    +0.211 HD
ENDBRANCH   6  24
BRANCH   6  26
ATOM     26  C   UNL     1      33.351 -18.110 -21.042  0.00  0.00    +0.042 C 
ATOM     27  C   UNL     1      33.514 -19.616 -21.015  0.00  0.00    +0.003 C 
ENDBRANCH   6  26
TORSDOF 2
ENDMDL
MODEL 4
REMARK VINA RESULT:      -9.1      4.860      9.589
REMARK  Name = 24360
REMARK  2 active torsions:
REMARK  status: ('A' for Active; 'I' for Inactive)
REMARK    1  A    between atoms: C_6  and  O_24
REMARK    2  A    between atoms: C_6  and  C_26
REMARK                            x       y       z     vdW  Elec       q    Type
REMARK                         _______ _______ _______ _____ _____    ______ ____
ROOT
ATOM      1  O   UNL     1      36.183 -19.583 -22.043  0.00  0.00    -0.442 OA
ATOM      2  O   UNL     1      37.090 -21.771 -18.535  0.00  0.00    -0.270 OA
ATOM      3  O   UNL     1      34.601 -19.206 -23.590  0.00  0.00    -0.247 OA
ATOM      4  N   UNL     1      34.843 -22.106 -18.098  0.00  0.00    -0.249 N 
ATOM      5  N   UNL     1      31.345 -22.576 -17.403  0.00  0.00    -0.405 NA
ATOM      6  C   UNL     1      33.838 -19.486 -21.316  0.00  0.00    +0.196 C 
ATOM      7  C   UNL     1      34.216 -20.424 -20.203  0.00  0.00    +0.017 C 
ATOM      8  C   UNL     1      33.516 -21.843 -18.394  0.00  0.00    +0.084 C 
ATOM      9  C   UNL     1      35.512 -20.651 -19.929  0.00  0.00    +0.074 C 
ATOM     10  C   UNL     1      34.959 -23.022 -16.945  0.00  0.00    +0.128 C 
ATOM     11  C   UNL     1      33.169 -21.034 -19.397  0.00  0.00    +0.016 C 
ATOM     12  C   UNL     1      33.530 -23.267 -16.593  0.00  0.00    +0.029 C 
ATOM     13  C   UNL     1      32.684 -22.572 -17.447  0.00  0.00    +0.142 C 
ATOM     14  C   UNL     1      35.907 -21.560 -18.794  0.00  0.00    +0.252 C 
ATOM     15  C   UNL     1      36.595 -20.004 -20.723  0.00  0.00    +0.239 C 
ATOM     16  C   UNL     1      34.892 -19.429 -22.416  0.00  0.00    +0.346 C 
ATOM     17  C   UNL     1      32.968 -24.038 -15.603  0.00  0.00    +0.002 C 
ATOM     18  C   UNL     1      31.568 -24.082 -15.507  0.00  0.00    +0.026 C 
ATOM     19  C   UNL     1      30.790 -23.331 -16.433  0.00  0.00    +0.113 C 
ATOM     20  C   UNL     1      30.936 -24.851 -14.517  0.00  0.00    +0.002 C 
ATOM     21  C   UNL     1      29.405 -23.388 -16.319  0.00  0.00    +0.085 C 
ATOM     22  C   UNL     1      29.547 -24.887 -14.430  0.00  0.00    -0.004 C 
ATOM     23  C   UNL     1      28.782 -24.156 -15.331  0.00  0.00    -0.019 C 
ENDROOT
BRANCH   6  24
ATOM     24  O   UNL     1      32.661 -19.964 -21.973  0.00  0.00    -0.373 OA
ATOM     25  H   UNL     1      32.425 -20.835 -21.619  0.00  0.00    +0.211 HD
ENDBRANCH   6  24
BRANCH   6  26
ATOM     26  C   UNL     1      33.575 -18.070 -20.796  0.00  0.00    +0.042 C 
ATOM     27  C   UNL     1      34.606 -17.091 -21.320  0.00  0.00    +0.003 C 
ENDBRANCH   6  26
TORSDOF 2
ENDMDL
MODEL 5
REMARK VINA RESULT:      -9.1      9.810     12.088
REMARK  Name = 24360
REMARK  2 active torsions:
REMARK  status: ('A' for Active; 'I' for Inactive)
REMARK    1  A    between atoms: C_6  and  O_24
REMARK    2  A    between atoms: C_6  and  C_26
REMARK                            x       y       z     vdW  Elec       q    Type
REMARK                         _______ _______ _______ _____ _____    ______ ____
ROOT
ATOM      1  O   UNL     1      39.015 -24.234 -13.420  0.00  0.00    -0.442 OA
ATOM      2  O   UNL     1      37.112 -22.626 -16.842  0.00  0.00    -0.270 OA
ATOM      3  O   UNL     1      38.695 -24.849 -11.284  0.00  0.00    -0.247 OA
ATOM      4  N   UNL     1      35.031 -23.246 -16.043  0.00  0.00    -0.249 N 
ATOM      5  N   UNL     1      31.807 -24.261 -14.812  0.00  0.00    -0.405 NA
ATOM      6  C   UNL     1      36.903 -25.341 -12.826  0.00  0.00    +0.196 C 
ATOM      7  C   UNL     1      36.265 -24.576 -13.953  0.00  0.00    +0.017 C 
ATOM      8  C   UNL     1      34.262 -23.917 -15.107  0.00  0.00    +0.084 C 
ATOM      9  C   UNL     1      37.036 -23.944 -14.856  0.00  0.00    +0.074 C 
ATOM     10  C   UNL     1      34.182 -22.607 -17.069  0.00  0.00    +0.128 C 
ATOM     11  C   UNL     1      34.817 -24.576 -14.087  0.00  0.00    +0.016 C 
ATOM     12  C   UNL     1      32.810 -22.987 -16.623  0.00  0.00    +0.029 C 
ATOM     13  C   UNL     1      32.861 -23.758 -15.470  0.00  0.00    +0.142 C 
ATOM     14  C   UNL     1      36.414 -23.204 -16.011  0.00  0.00    +0.252 C 
ATOM     15  C   UNL     1      38.523 -23.967 -14.752  0.00  0.00    +0.239 C 
ATOM     16  C   UNL     1      38.264 -24.778 -12.435  0.00  0.00    +0.346 C 
ATOM     17  C   UNL     1      31.579 -22.698 -17.162  0.00  0.00    +0.002 C 
ATOM     18  C   UNL     1      30.436 -23.198 -16.516  0.00  0.00    +0.026 C 
ATOM     19  C   UNL     1      30.596 -23.980 -15.337  0.00  0.00    +0.113 C 
ATOM     20  C   UNL     1      29.151 -22.937 -17.019  0.00  0.00    +0.002 C 
ATOM     21  C   UNL     1      29.451 -24.466 -14.715  0.00  0.00    +0.085 C 
ATOM     22  C   UNL     1      28.025 -23.439 -16.371  0.00  0.00    -0.004 C 
ATOM     23  C   UNL     1      28.175 -24.202 -15.220  0.00  0.00    -0.019 C 
ENDROOT
BRANCH   6  24
ATOM     24  O   UNL     1      36.109 -25.211 -11.644  0.00  0.00    -0.373 OA
ATOM     25  H   UNL     1      35.351 -25.815 -11.697  0.00  0.00    +0.211 HD
ENDBRANCH   6  24
BRANCH   6  26
ATOM     26  C   UNL     1      37.050 -26.827 -13.165  0.00  0.00    +0.042 C 
ATOM     27  C   UNL     1      37.161 -27.041 -14.661  0.00  0.00    +0.003 C 
ENDBRANCH   6  26
TORSDOF 2
ENDMDL
MODEL 6
REMARK VINA RESULT:      -8.6      1.765      2.413
REMARK  Name = 24360
REMARK  2 active torsions:
REMARK  status: ('A' for Active; 'I' for Inactive)
REMARK    1  A    between atoms: C_6  and  O_24
REMARK    2  A    between atoms: C_6  and  C_26
REMARK                            x       y       z     vdW  Elec       q    Type
REMARK                         _______ _______ _______ _____ _____    ______ ____
ROOT
ATOM      1  O   UNL     1      35.301 -18.053 -22.995  0.00  0.00    -0.442 OA
ATOM      2  O   UNL     1      34.225 -15.360 -26.078  0.00  0.00    -0.270 OA
ATOM      3  O   UNL     1      35.951 -18.192 -20.850  0.00  0.00    -0.247 OA
ATOM      4  N   UNL     1      33.730 -13.708 -24.537  0.00  0.00    -0.249 N 
ATOM      5  N   UNL     1      32.918 -11.164 -22.128  0.00  0.00    -0.405 NA
ATOM      6  C   UNL     1      34.296 -16.511 -21.366  0.00  0.00    +0.196 C 
ATOM      7  C   UNL     1      34.126 -15.535 -22.498  0.00  0.00    +0.017 C 
ATOM      8  C   UNL     1      33.559 -13.314 -23.220  0.00  0.00    +0.084 C 
ATOM      9  C   UNL     1      34.286 -15.947 -23.768  0.00  0.00    +0.074 C 
ATOM     10  C   UNL     1      33.472 -12.587 -25.465  0.00  0.00    +0.128 C 
ATOM     11  C   UNL     1      33.735 -14.165 -22.207  0.00  0.00    +0.016 C 
ATOM     12  C   UNL     1      33.123 -11.478 -24.529  0.00  0.00    +0.029 C 
ATOM     13  C   UNL     1      33.175 -11.909 -23.211  0.00  0.00    +0.142 C 
ATOM     14  C   UNL     1      34.083 -14.992 -24.915  0.00  0.00    +0.252 C 
ATOM     15  C   UNL     1      34.650 -17.358 -24.082  0.00  0.00    +0.239 C 
ATOM     16  C   UNL     1      35.262 -17.639 -21.707  0.00  0.00    +0.346 C 
ATOM     17  C   UNL     1      32.779 -10.170 -24.776  0.00  0.00    +0.002 C 
ATOM     18  C   UNL     1      32.497  -9.339 -23.679  0.00  0.00    +0.026 C 
ATOM     19  C   UNL     1      32.579  -9.879 -22.365  0.00  0.00    +0.113 C 
ATOM     20  C   UNL     1      32.140  -7.994 -23.867  0.00  0.00    +0.002 C 
ATOM     21  C   UNL     1      32.295  -9.037 -21.294  0.00  0.00    +0.085 C 
ATOM     22  C   UNL     1      31.862  -7.178 -22.773  0.00  0.00    -0.004 C 
ATOM     23  C   UNL     1      31.940  -7.700 -21.488  0.00  0.00    -0.019 C 
ENDROOT
BRANCH   6  24
ATOM     24  O   UNL     1      34.895 -15.853 -20.246  0.00  0.00    -0.373 OA
ATOM     25  H   UNL     1      34.269 -15.842 -19.506  0.00  0.00    +0.211 HD
ENDBRANCH   6  24
BRANCH   6  26
ATOM     26  C   UNL     1      32.956 -17.109 -20.931  0.00  0.00    +0.042 C 
ATOM     27  C   UNL     1      32.016 -16.037 -20.416  0.00  0.00    +0.003 C 
ENDBRANCH   6  26
TORSDOF 2
ENDMDL
MODEL 7
REMARK VINA RESULT:      -8.5      3.508      7.846
REMARK  Name = 24360
REMARK  2 active torsions:
REMARK  status: ('A' for Active; 'I' for Inactive)
REMARK    1  A    between atoms: C_6  and  O_24
REMARK    2  A    between atoms: C_6  and  C_26
REMARK                            x       y       z     vdW  Elec       q    Type
REMARK                         _______ _______ _______ _____ _____    ______ ____
ROOT
ATOM      1  O   UNL     1      32.691  -8.823 -23.170  0.00  0.00    -0.442 OA
ATOM      2  O   UNL     1      30.888 -11.788 -20.747  0.00  0.00    -0.270 OA
ATOM      3  O   UNL     1      34.561  -8.282 -24.289  0.00  0.00    -0.247 OA
ATOM      4  N   UNL     1      32.361 -13.394 -21.522  0.00  0.00    -0.249 N 
ATOM      5  N   UNL     1      34.626 -15.893 -22.772  0.00  0.00    -0.405 NA
ATOM      6  C   UNL     1      33.894 -10.602 -24.366  0.00  0.00    +0.196 C 
ATOM      7  C   UNL     1      33.355 -11.561 -23.339  0.00  0.00    +0.017 C 
ATOM      8  C   UNL     1      33.369 -13.771 -22.394  0.00  0.00    +0.084 C 
ATOM      9  C   UNL     1      32.367 -11.173 -22.513  0.00  0.00    +0.074 C 
ATOM     10  C   UNL     1      31.977 -14.515 -20.639  0.00  0.00    +0.128 C 
ATOM     11  C   UNL     1      33.873 -12.919 -23.290  0.00  0.00    +0.016 C 
ATOM     12  C   UNL     1      32.884 -15.606 -21.102  0.00  0.00    +0.029 C 
ATOM     13  C   UNL     1      33.701 -15.165 -22.134  0.00  0.00    +0.142 C 
ATOM     14  C   UNL     1      31.792 -12.133 -21.504  0.00  0.00    +0.252 C 
ATOM     15  C   UNL     1      31.802  -9.796 -22.578  0.00  0.00    +0.239 C 
ATOM     16  C   UNL     1      33.762  -9.147 -23.932  0.00  0.00    +0.346 C 
ATOM     17  C   UNL     1      33.016 -16.906 -20.675  0.00  0.00    +0.002 C 
ATOM     18  C   UNL     1      33.970 -17.720 -21.306  0.00  0.00    +0.026 C 
ATOM     19  C   UNL     1      34.759 -17.170 -22.356  0.00  0.00    +0.113 C 
ATOM     20  C   UNL     1      34.151 -19.056 -20.915  0.00  0.00    +0.002 C 
ATOM     21  C   UNL     1      35.698 -17.995 -22.968  0.00  0.00    +0.085 C 
ATOM     22  C   UNL     1      35.101 -19.855 -21.548  0.00  0.00    -0.004 C 
ATOM     23  C   UNL     1      35.873 -19.323 -22.573  0.00  0.00    -0.019 C 
ENDROOT
BRANCH   6  24
ATOM     24  O   UNL     1      35.301 -10.802 -24.523  0.00  0.00    -0.373 OA
ATOM     25  H   UNL     1      35.536 -10.720 -25.460  0.00  0.00    +0.211 HD
ENDBRANCH   6  24
BRANCH   6  26
ATOM     26  C   UNL     1      33.211 -10.787 -25.724  0.00  0.00    +0.042 C 
ATOM     27  C   UNL     1      33.778 -11.981 -26.465  0.00  0.00    +0.003 C 
ENDBRANCH   6  26
TORSDOF 2
ENDMDL
MODEL 8
REMARK VINA RESULT:      -8.4      3.945      8.633
REMARK  Name = 24360
REMARK  2 active torsions:
REMARK  status: ('A' for Active; 'I' for Inactive)
REMARK    1  A    between atoms: C_6  and  O_24
REMARK    2  A    between atoms: C_6  and  C_26
REMARK                            x       y       z     vdW  Elec       q    Type
REMARK                         _______ _______ _______ _____ _____    ______ ____
ROOT
ATOM      1  O   UNL     1      31.777  -7.636 -20.516  0.00  0.00    -0.442 OA
ATOM      2  O   UNL     1      31.488 -11.497 -18.807  0.00  0.00    -0.270 OA
ATOM      3  O   UNL     1      32.792  -6.428 -22.114  0.00  0.00    -0.247 OA
ATOM      4  N   UNL     1      32.333 -12.470 -20.729  0.00  0.00    -0.249 N 
ATOM      5  N   UNL     1      33.601 -13.973 -23.740  0.00  0.00    -0.405 NA
ATOM      6  C   UNL     1      32.171  -8.686 -22.702  0.00  0.00    +0.196 C 
ATOM      7  C   UNL     1      32.243 -10.003 -21.979  0.00  0.00    +0.017 C 
ATOM      8  C   UNL     1      32.736 -12.355 -22.049  0.00  0.00    +0.084 C 
ATOM      9  C   UNL     1      31.832 -10.090 -20.701  0.00  0.00    +0.074 C 
ATOM     10  C   UNL     1      32.460 -13.863 -20.254  0.00  0.00    +0.128 C 
ATOM     11  C   UNL     1      32.703 -11.185 -22.691  0.00  0.00    +0.016 C 
ATOM     12  C   UNL     1      32.987 -14.561 -21.463  0.00  0.00    +0.029 C 
ATOM     13  C   UNL     1      33.148 -13.671 -22.516  0.00  0.00    +0.142 C 
ATOM     14  C   UNL     1      31.863 -11.409 -19.974  0.00  0.00    +0.252 C 
ATOM     15  C   UNL     1      31.323  -8.895 -19.971  0.00  0.00    +0.239 C 
ATOM     16  C   UNL     1      32.292  -7.495 -21.760  0.00  0.00    +0.346 C 
ATOM     17  C   UNL     1      33.315 -15.880 -21.667  0.00  0.00    +0.002 C 
ATOM     18  C   UNL     1      33.797 -16.258 -22.931  0.00  0.00    +0.026 C 
ATOM     19  C   UNL     1      33.925 -15.267 -23.945  0.00  0.00    +0.113 C 
ATOM     20  C   UNL     1      34.149 -17.591 -23.200  0.00  0.00    +0.002 C 
ATOM     21  C   UNL     1      34.403 -15.664 -25.189  0.00  0.00    +0.085 C 
ATOM     22  C   UNL     1      34.624 -17.955 -24.457  0.00  0.00    -0.004 C 
ATOM     23  C   UNL     1      34.752 -16.992 -25.450  0.00  0.00    -0.019 C 
ENDROOT
BRANCH   6  24
ATOM     24  O   UNL     1      33.289  -8.559 -23.585  0.00  0.00    -0.373 OA
ATOM     25  H   UNL     1      33.947  -7.966 -23.189  0.00  0.00    +0.211 HD
ENDBRANCH   6  24
BRANCH   6  26
ATOM     26  C   UNL     1      30.880  -8.558 -23.514  0.00  0.00    +0.042 C 
ATOM     27  C   UNL     1      30.899  -7.317 -24.385  0.00  0.00    +0.003 C 
ENDBRANCH   6  26
TORSDOF 2
ENDMDL
MODEL 9
REMARK VINA RESULT:      -7.5      6.824     10.174
REMARK  Name = 24360
REMARK  2 active torsions:
REMARK  status: ('A' for Active; 'I' for Inactive)
REMARK    1  A    between atoms: C_6  and  O_24
REMARK    2  A    between atoms: C_6  and  C_26
REMARK                            x       y       z     vdW  Elec       q    Type
REMARK                         _______ _______ _______ _____ _____    ______ ____
ROOT
ATOM      1  O   UNL     1      36.205 -24.344 -12.296  0.00  0.00    -0.442 OA
ATOM      2  O   UNL     1      38.713 -23.443 -15.584  0.00  0.00    -0.270 OA
ATOM      3  O   UNL     1      34.243 -23.854 -11.320  0.00  0.00    -0.247 OA
ATOM      4  N   UNL     1      36.928 -22.589 -16.781  0.00  0.00    -0.249 N 
ATOM      5  N   UNL     1      34.134 -21.310 -18.652  0.00  0.00    -0.405 NA
ATOM      6  C   UNL     1      34.255 -23.932 -13.734  0.00  0.00    +0.196 C 
ATOM      7  C   UNL     1      35.218 -23.446 -14.783  0.00  0.00    +0.017 C 
ATOM      8  C   UNL     1      35.565 -22.374 -16.906  0.00  0.00    +0.084 C 
ATOM      9  C   UNL     1      36.535 -23.680 -14.643  0.00  0.00    +0.074 C 
ATOM     10  C   UNL     1      37.658 -22.057 -17.950  0.00  0.00    +0.128 C 
ATOM     11  C   UNL     1      34.705 -22.776 -15.967  0.00  0.00    +0.016 C 
ATOM     12  C   UNL     1      36.553 -21.502 -18.786  0.00  0.00    +0.029 C 
ATOM     13  C   UNL     1      35.324 -21.691 -18.169  0.00  0.00    +0.142 C 
ATOM     14  C   UNL     1      37.508 -23.232 -15.702  0.00  0.00    +0.252 C 
ATOM     15  C   UNL     1      37.070 -24.398 -13.452  0.00  0.00    +0.239 C 
ATOM     16  C   UNL     1      34.892 -24.021 -12.352  0.00  0.00    +0.346 C 
ATOM     17  C   UNL     1      36.581 -20.869 -20.006  0.00  0.00    +0.002 C 
ATOM     18  C   UNL     1      35.364 -20.446 -20.564  0.00  0.00    +0.026 C 
ATOM     19  C   UNL     1      34.157 -20.688 -19.849  0.00  0.00    +0.113 C 
ATOM     20  C   UNL     1      35.328 -19.794 -21.807  0.00  0.00    +0.002 C 
ATOM     21  C   UNL     1      32.962 -20.262 -20.421  0.00  0.00    +0.085 C 
ATOM     22  C   UNL     1      34.115 -19.380 -22.352  0.00  0.00    -0.004 C 
ATOM     23  C   UNL     1      32.934 -19.613 -21.659  0.00  0.00    -0.019 C 
ENDROOT
BRANCH   6  24
ATOM     24  O   UNL     1      33.193 -22.987 -13.578  0.00  0.00    -0.373 OA
ATOM     25  H   UNL     1      32.482 -23.195 -14.204  0.00  0.00    +0.211 HD
ENDBRANCH   6  24
BRANCH   6  26
ATOM     26  C   UNL     1      33.658 -25.293 -14.103  0.00  0.00    +0.042 C 
ATOM     27  C   UNL     1      32.146 -25.274 -14.011  0.00  0.00    +0.003 C 
ENDBRANCH   6  26
TORSDOF 2
ENDMDL
