MODEL 1
REMARK VINA RESULT:      -8.7      0.000      0.000
REMARK  Name = 5288981
REMARK  4 active torsions:
REMARK  status: ('A' for Active; 'I' for Inactive)
REMARK    1  A    between atoms: C_1  and  C_2
REMARK    2  A    between atoms: C_1  and  C_12
REMARK    3  A    between atoms: C_12  and  C_15
REMARK    4  A    between atoms: C_12  and  N_18
REMARK                            x       y       z     vdW  Elec       q    Type
REMARK                         _______ _______ _______ _____ _____    ______ ____
ROOT
ATOM      1  C   UNL     1      34.866 -19.424 -20.888  0.00  0.00    +0.013 C 
ENDROOT
BRANCH   1   2
ATOM      2  C   UNL     1      34.769 -18.631 -22.155  0.00  0.00    -0.024 C 
ATOM      3  C   UNL     1      34.646 -17.232 -22.150  0.00  0.00    -0.004 C 
ATOM      4  C   UNL     1      34.557 -16.542 -23.383  0.00  0.00    -0.000 C 
ATOM      5  C   UNL     1      34.804 -19.339 -23.357  0.00  0.00    -0.004 C 
ATOM      6  C   UNL     1      34.608 -16.504 -20.951  0.00  0.00    -0.000 C 
ATOM      7  C   UNL     1      34.596 -17.271 -24.583  0.00  0.00    -0.000 C 
ATOM      8  C   UNL     1      34.718 -18.660 -24.569  0.00  0.00    -0.000 C 
ATOM      9  C   UNL     1      34.435 -15.143 -23.378  0.00  0.00    -0.000 C 
ATOM     10  C   UNL     1      34.485 -15.114 -20.965  0.00  0.00    -0.000 C 
ATOM     11  C   UNL     1      34.399 -14.435 -22.177  0.00  0.00    -0.000 C 
ENDBRANCH   1   2
BRANCH   1  12
ATOM     12  C   UNL     1      33.740 -20.464 -20.732  0.00  0.00    +0.017 C 
BRANCH  12  15
ATOM     13  O   UNL     1      35.173 -21.613 -19.145  0.00  0.00    -0.278 OA
ATOM     14  N   UNL     1      32.924 -22.080 -19.117  0.00  0.00    -0.330 N 
ATOM     15  C   UNL     1      34.042 -21.426 -19.589  0.00  0.00    +0.199 C 
ATOM     16  H   UNL     1      33.007 -22.725 -18.379  0.00  0.00    +0.145 HD
ATOM     17  H   UNL     1      32.043 -21.901 -19.518  0.00  0.00    +0.145 HD
ENDBRANCH  12  15
BRANCH  12  18
ATOM     18  N   UNL     1      32.469 -19.815 -20.407  0.00  0.00    +0.388 N 
ATOM     19  H   UNL     1      32.509 -18.833 -20.677  0.00  0.00    -0.089 HD
ATOM     20  H   UNL     1      32.298 -19.886 -19.403  0.00  0.00    -0.089 HD
ATOM     21  H   UNL     1      31.713 -20.276 -20.913  0.00  0.00    -0.089 HD
ENDBRANCH  12  18
ENDBRANCH   1  12
TORSDOF 4
ENDMDL
MODEL 2
REMARK VINA RESULT:      -8.4      3.071      4.549
REMARK  Name = 5288981
REMARK  4 active torsions:
REMARK  status: ('A' for Active; 'I' for Inactive)
REMARK    1  A    between atoms: C_1  and  C_2
REMARK    2  A    between atoms: C_1  and  C_12
REMARK    3  A    between atoms: C_12  and  C_15
REMARK    4  A    between atoms: C_12  and  N_18
REMARK                            x       y       z     vdW  Elec       q    Type
REMARK                         _______ _______ _______ _____ _____    ______ ____
ROOT
ATOM      1  C   UNL     1      36.462 -21.826 -18.732  0.00  0.00    +0.013 C 
ENDROOT
BRANCH   1   2
ATOM      2  C   UNL     1      35.276 -21.245 -19.438  0.00  0.00    -0.024 C 
ATOM      3  C   UNL     1      35.404 -20.216 -20.387  0.00  0.00    -0.004 C 
ATOM      4  C   UNL     1      34.243 -19.711 -21.019  0.00  0.00    -0.000 C 
ATOM      5  C   UNL     1      34.022 -21.766 -19.118  0.00  0.00    -0.004 C 
ATOM      6  C   UNL     1      36.657 -19.680 -20.721  0.00  0.00    -0.000 C 
ATOM      7  C   UNL     1      32.989 -20.248 -20.685  0.00  0.00    -0.000 C 
ATOM      8  C   UNL     1      32.880 -21.269 -19.741  0.00  0.00    -0.000 C 
ATOM      9  C   UNL     1      34.371 -18.683 -21.968  0.00  0.00    -0.000 C 
ATOM     10  C   UNL     1      36.765 -18.658 -21.666  0.00  0.00    -0.000 C 
ATOM     11  C   UNL     1      35.624 -18.161 -22.288  0.00  0.00    -0.000 C 
ENDBRANCH   1   2
BRANCH   1  12
ATOM     12  C   UNL     1      36.468 -21.542 -17.218  0.00  0.00    +0.017 C 
BRANCH  12  15
ATOM     13  O   UNL     1      35.728 -23.587 -16.139  0.00  0.00    -0.278 OA
ATOM     14  N   UNL     1      37.959 -23.048 -16.037  0.00  0.00    -0.330 N 
ATOM     15  C   UNL     1      36.654 -22.829 -16.423  0.00  0.00    +0.199 C 
ATOM     16  H   UNL     1      38.190 -23.851 -15.519  0.00  0.00    +0.145 HD
ATOM     17  H   UNL     1      38.659 -22.401 -16.281  0.00  0.00    +0.145 HD
ENDBRANCH  12  15
BRANCH  12  18
ATOM     18  N   UNL     1      37.579 -20.661 -16.853  0.00  0.00    +0.388 N 
ATOM     19  H   UNL     1      37.276 -20.016 -16.123  0.00  0.00    -0.089 HD
ATOM     20  H   UNL     1      37.876 -20.132 -17.674  0.00  0.00    -0.089 HD
ATOM     21  H   UNL     1      38.358 -21.222 -16.510  0.00  0.00    -0.089 HD
ENDBRANCH  12  18
ENDBRANCH   1  12
TORSDOF 4
ENDMDL
MODEL 3
REMARK VINA RESULT:      -8.4      3.302      5.573
REMARK  Name = 5288981
REMARK  4 active torsions:
REMARK  status: ('A' for Active; 'I' for Inactive)
REMARK    1  A    between atoms: C_1  and  C_2
REMARK    2  A    between atoms: C_1  and  C_12
REMARK    3  A    between atoms: C_12  and  C_15
REMARK    4  A    between atoms: C_12  and  N_18
REMARK                            x       y       z     vdW  Elec       q    Type
REMARK                         _______ _______ _______ _____ _____    ______ ____
ROOT
ATOM      1  C   UNL     1      34.322 -17.890 -22.375  0.00  0.00    +0.013 C 
ENDROOT
BRANCH   1   2
ATOM      2  C   UNL     1      35.160 -18.820 -21.553  0.00  0.00    -0.024 C 
ATOM      3  C   UNL     1      34.593 -19.836 -20.766  0.00  0.00    -0.004 C 
ATOM      4  C   UNL     1      35.441 -20.681 -20.012  0.00  0.00    -0.000 C 
ATOM      5  C   UNL     1      36.544 -18.639 -21.593  0.00  0.00    -0.004 C 
ATOM      6  C   UNL     1      33.204 -20.032 -20.713  0.00  0.00    -0.000 C 
ATOM      7  C   UNL     1      36.831 -20.485 -20.066  0.00  0.00    -0.000 C 
ATOM      8  C   UNL     1      37.378 -19.471 -20.852  0.00  0.00    -0.000 C 
ATOM      9  C   UNL     1      34.874 -21.698 -19.227  0.00  0.00    -0.000 C 
ATOM     10  C   UNL     1      32.658 -21.047 -19.926  0.00  0.00    -0.000 C 
ATOM     11  C   UNL     1      33.492 -21.878 -19.185  0.00  0.00    -0.000 C 
ENDBRANCH   1   2
BRANCH   1  12
ATOM     12  C   UNL     1      35.133 -17.102 -23.421  0.00  0.00    +0.017 C 
BRANCH  12  15
ATOM     13  O   UNL     1      34.824 -16.730 -25.799  0.00  0.00    -0.278 OA
ATOM     14  N   UNL     1      34.191 -18.757 -24.923  0.00  0.00    -0.330 N 
ATOM     15  C   UNL     1      34.717 -17.486 -24.835  0.00  0.00    +0.199 C 
ATOM     16  H   UNL     1      33.891 -19.106 -25.792  0.00  0.00    +0.145 HD
ATOM     17  H   UNL     1      34.117 -19.316 -24.116  0.00  0.00    +0.145 HD
ENDBRANCH  12  15
BRANCH  12  18
ATOM     18  N   UNL     1      34.897 -15.663 -23.292  0.00  0.00    +0.388 N 
ATOM     19  H   UNL     1      35.789 -15.178 -23.203  0.00  0.00    -0.089 HD
ATOM     20  H   UNL     1      34.328 -15.485 -22.463  0.00  0.00    -0.089 HD
ATOM     21  H   UNL     1      34.407 -15.324 -24.120  0.00  0.00    -0.089 HD
ENDBRANCH  12  18
ENDBRANCH   1  12
TORSDOF 4
ENDMDL
MODEL 4
REMARK VINA RESULT:      -8.1      4.748      6.926
REMARK  Name = 5288981
REMARK  4 active torsions:
REMARK  status: ('A' for Active; 'I' for Inactive)
REMARK    1  A    between atoms: C_1  and  C_2
REMARK    2  A    between atoms: C_1  and  C_12
REMARK    3  A    between atoms: C_12  and  C_15
REMARK    4  A    between atoms: C_12  and  N_18
REMARK                            x       y       z     vdW  Elec       q    Type
REMARK                         _______ _______ _______ _____ _____    ______ ____
ROOT
ATOM      1  C   UNL     1      33.650 -14.013 -24.092  0.00  0.00    +0.013 C 
ENDROOT
BRANCH   1   2
ATOM      2  C   UNL     1      34.092 -15.023 -23.078  0.00  0.00    -0.024 C 
ATOM      3  C   UNL     1      34.376 -16.354 -23.427  0.00  0.00    -0.004 C 
ATOM      4  C   UNL     1      34.790 -17.259 -22.421  0.00  0.00    -0.000 C 
ATOM      5  C   UNL     1      34.215 -14.592 -21.757  0.00  0.00    -0.004 C 
ATOM      6  C   UNL     1      34.259 -16.805 -24.751  0.00  0.00    -0.000 C 
ATOM      7  C   UNL     1      34.909 -16.807 -21.097  0.00  0.00    -0.000 C 
ATOM      8  C   UNL     1      34.622 -15.483 -20.768  0.00  0.00    -0.000 C 
ATOM      9  C   UNL     1      35.075 -18.589 -22.771  0.00  0.00    -0.000 C 
ATOM     10  C   UNL     1      34.545 -18.131 -25.080  0.00  0.00    -0.000 C 
ATOM     11  C   UNL     1      34.952 -19.021 -24.091  0.00  0.00    -0.000 C 
ENDBRANCH   1   2
BRANCH   1  12
ATOM     12  C   UNL     1      33.725 -12.562 -23.579  0.00  0.00    +0.017 C 
BRANCH  12  15
ATOM     13  O   UNL     1      33.761 -11.793 -25.881  0.00  0.00    -0.278 OA
ATOM     14  N   UNL     1      34.814 -10.514 -24.289  0.00  0.00    -0.330 N 
ATOM     15  C   UNL     1      34.080 -11.603 -24.709  0.00  0.00    +0.199 C 
ATOM     16  H   UNL     1      35.096  -9.832 -24.939  0.00  0.00    +0.145 HD
ATOM     17  H   UNL     1      35.053 -10.419 -23.339  0.00  0.00    +0.145 HD
ENDBRANCH  12  15
BRANCH  12  18
ATOM     18  N   UNL     1      32.431 -12.125 -23.052  0.00  0.00    +0.388 N 
ATOM     19  H   UNL     1      32.089 -11.336 -23.600  0.00  0.00    -0.089 HD
ATOM     20  H   UNL     1      32.541 -11.841 -22.077  0.00  0.00    -0.089 HD
ATOM     21  H   UNL     1      31.763 -12.893 -23.108  0.00  0.00    -0.089 HD
ENDBRANCH  12  18
ENDBRANCH   1  12
TORSDOF 4
ENDMDL
MODEL 5
REMARK VINA RESULT:      -7.9      5.526      7.610
REMARK  Name = 5288981
REMARK  4 active torsions:
REMARK  status: ('A' for Active; 'I' for Inactive)
REMARK    1  A    between atoms: C_1  and  C_2
REMARK    2  A    between atoms: C_1  and  C_12
REMARK    3  A    between atoms: C_12  and  C_15
REMARK    4  A    between atoms: C_12  and  N_18
REMARK                            x       y       z     vdW  Elec       q    Type
REMARK                         _______ _______ _______ _____ _____    ______ ____
ROOT
ATOM      1  C   UNL     1      36.409 -23.156 -15.408  0.00  0.00    +0.013 C 
ENDROOT
BRANCH   1   2
ATOM      2  C   UNL     1      35.226 -22.991 -16.313  0.00  0.00    -0.024 C 
ATOM      3  C   UNL     1      35.325 -22.349 -17.559  0.00  0.00    -0.004 C 
ATOM      4  C   UNL     1      34.170 -22.226 -18.367  0.00  0.00    -0.000 C 
ATOM      5  C   UNL     1      34.006 -23.503 -15.871  0.00  0.00    -0.004 C 
ATOM      6  C   UNL     1      36.544 -21.828 -18.020  0.00  0.00    -0.000 C 
ATOM      7  C   UNL     1      32.950 -22.748 -17.906  0.00  0.00    -0.000 C 
ATOM      8  C   UNL     1      32.869 -23.382 -16.667  0.00  0.00    -0.000 C 
ATOM      9  C   UNL     1      34.269 -21.585 -19.613  0.00  0.00    -0.000 C 
ATOM     10  C   UNL     1      36.624 -21.193 -19.260  0.00  0.00    -0.000 C 
ATOM     11  C   UNL     1      35.488 -21.073 -20.055  0.00  0.00    -0.000 C 
ENDBRANCH   1   2
BRANCH   1  12
ATOM     12  C   UNL     1      36.295 -24.376 -14.475  0.00  0.00    +0.017 C 
BRANCH  12  15
ATOM     13  O   UNL     1      36.114 -26.508 -15.618  0.00  0.00    -0.278 OA
ATOM     14  N   UNL     1      38.213 -25.693 -15.162  0.00  0.00    -0.330 N 
ATOM     15  C   UNL     1      36.836 -25.630 -15.149  0.00  0.00    +0.199 C 
ATOM     16  H   UNL     1      38.666 -26.462 -15.574  0.00  0.00    +0.145 HD
ATOM     17  H   UNL     1      38.742 -24.967 -14.760  0.00  0.00    +0.145 HD
ENDBRANCH  12  15
BRANCH  12  18
ATOM     18  N   UNL     1      37.087 -24.181 -13.259  0.00  0.00    +0.388 N 
ATOM     19  H   UNL     1      37.061 -25.031 -12.696  0.00  0.00    -0.089 HD
ATOM     20  H   UNL     1      36.698 -23.405 -12.721  0.00  0.00    -0.089 HD
ATOM     21  H   UNL     1      38.052 -23.969 -13.512  0.00  0.00    -0.089 HD
ENDBRANCH  12  18
ENDBRANCH   1  12
TORSDOF 4
ENDMDL
MODEL 6
REMARK VINA RESULT:      -7.8      4.212      5.704
REMARK  Name = 5288981
REMARK  4 active torsions:
REMARK  status: ('A' for Active; 'I' for Inactive)
REMARK    1  A    between atoms: C_1  and  C_2
REMARK    2  A    between atoms: C_1  and  C_12
REMARK    3  A    between atoms: C_12  and  C_15
REMARK    4  A    between atoms: C_12  and  N_18
REMARK                            x       y       z     vdW  Elec       q    Type
REMARK                         _______ _______ _______ _____ _____    ______ ____
ROOT
ATOM      1  C   UNL     1      34.152 -14.151 -22.670  0.00  0.00    +0.013 C 
ENDROOT
BRANCH   1   2
ATOM      2  C   UNL     1      34.235 -15.411 -23.476  0.00  0.00    -0.024 C 
ATOM      3  C   UNL     1      34.638 -16.633 -22.910  0.00  0.00    -0.004 C 
ATOM      4  C   UNL     1      34.696 -17.787 -23.726  0.00  0.00    -0.000 C 
ATOM      5  C   UNL     1      33.896 -15.331 -24.827  0.00  0.00    -0.004 C 
ATOM      6  C   UNL     1      34.983 -16.732 -21.553  0.00  0.00    -0.000 C 
ATOM      7  C   UNL     1      34.350 -17.687 -25.084  0.00  0.00    -0.000 C 
ATOM      8  C   UNL     1      33.953 -16.467 -25.630  0.00  0.00    -0.000 C 
ATOM      9  C   UNL     1      35.097 -19.008 -23.160  0.00  0.00    -0.000 C 
ATOM     10  C   UNL     1      35.381 -17.954 -21.007  0.00  0.00    -0.000 C 
ATOM     11  C   UNL     1      35.437 -19.089 -21.810  0.00  0.00    -0.000 C 
ENDBRANCH   1   2
BRANCH   1  12
ATOM     12  C   UNL     1      32.921 -13.291 -23.011  0.00  0.00    +0.017 C 
BRANCH  12  15
ATOM     13  O   UNL     1      32.358 -13.438 -20.655  0.00  0.00    -0.278 OA
ATOM     14  N   UNL     1      31.181 -11.963 -21.965  0.00  0.00    -0.330 N 
ATOM     15  C   UNL     1      32.149 -12.921 -21.751  0.00  0.00    +0.199 C 
ATOM     16  H   UNL     1      30.623 -11.652 -21.217  0.00  0.00    +0.145 HD
ATOM     17  H   UNL     1      31.048 -11.592 -22.867  0.00  0.00    +0.145 HD
ENDBRANCH  12  15
BRANCH  12  18
ATOM     18  N   UNL     1      33.319 -12.032 -23.642  0.00  0.00    +0.388 N 
ATOM     19  H   UNL     1      34.067 -11.601 -23.100  0.00  0.00    -0.089 HD
ATOM     20  H   UNL     1      32.517 -11.401 -23.678  0.00  0.00    -0.089 HD
ATOM     21  H   UNL     1      33.649 -12.215 -24.590  0.00  0.00    -0.089 HD
ENDBRANCH  12  18
ENDBRANCH   1  12
TORSDOF 4
ENDMDL
MODEL 7
REMARK VINA RESULT:      -7.8      4.491      6.630
REMARK  Name = 5288981
REMARK  4 active torsions:
REMARK  status: ('A' for Active; 'I' for Inactive)
REMARK    1  A    between atoms: C_1  and  C_2
REMARK    2  A    between atoms: C_1  and  C_12
REMARK    3  A    between atoms: C_12  and  C_15
REMARK    4  A    between atoms: C_12  and  N_18
REMARK                            x       y       z     vdW  Elec       q    Type
REMARK                         _______ _______ _______ _____ _____    ______ ____
ROOT
ATOM      1  C   UNL     1      34.292 -15.531 -25.355  0.00  0.00    +0.013 C 
ENDROOT
BRANCH   1   2
ATOM      2  C   UNL     1      34.388 -15.676 -23.868  0.00  0.00    -0.024 C 
ATOM      3  C   UNL     1      34.603 -16.921 -23.253  0.00  0.00    -0.004 C 
ATOM      4  C   UNL     1      34.683 -16.990 -21.842  0.00  0.00    -0.000 C 
ATOM      5  C   UNL     1      34.255 -14.517 -23.102  0.00  0.00    -0.004 C 
ATOM      6  C   UNL     1      34.738 -18.097 -24.007  0.00  0.00    -0.000 C 
ATOM      7  C   UNL     1      34.548 -15.813 -21.087  0.00  0.00    -0.000 C 
ATOM      8  C   UNL     1      34.336 -14.586 -21.713  0.00  0.00    -0.000 C 
ATOM      9  C   UNL     1      34.898 -18.235 -21.227  0.00  0.00    -0.000 C 
ATOM     10  C   UNL     1      34.951 -19.325 -23.380  0.00  0.00    -0.000 C 
ATOM     11  C   UNL     1      35.030 -19.393 -21.992  0.00  0.00    -0.000 C 
ENDBRANCH   1   2
BRANCH   1  12
ATOM     12  C   UNL     1      33.087 -14.686 -25.808  0.00  0.00    +0.017 C 
BRANCH  12  15
ATOM     13  O   UNL     1      33.848 -13.543 -27.808  0.00  0.00    -0.278 OA
ATOM     14  N   UNL     1      33.594 -12.315 -25.883  0.00  0.00    -0.330 N 
ATOM     15  C   UNL     1      33.541 -13.479 -26.620  0.00  0.00    +0.199 C 
ATOM     16  H   UNL     1      33.875 -11.475 -26.311  0.00  0.00    +0.145 HD
ATOM     17  H   UNL     1      33.349 -12.324 -24.930  0.00  0.00    +0.145 HD
ENDBRANCH  12  15
BRANCH  12  18
ATOM     18  N   UNL     1      32.198 -15.462 -26.675  0.00  0.00    +0.388 N 
ATOM     19  H   UNL     1      32.415 -16.454 -26.584  0.00  0.00    -0.089 HD
ATOM     20  H   UNL     1      32.333 -15.173 -27.645  0.00  0.00    -0.089 HD
ATOM     21  H   UNL     1      31.229 -15.299 -26.403  0.00  0.00    -0.089 HD
ENDBRANCH  12  18
ENDBRANCH   1  12
TORSDOF 4
ENDMDL
MODEL 8
REMARK VINA RESULT:      -7.8      1.406      2.936
REMARK  Name = 5288981
REMARK  4 active torsions:
REMARK  status: ('A' for Active; 'I' for Inactive)
REMARK    1  A    between atoms: C_1  and  C_2
REMARK    2  A    between atoms: C_1  and  C_12
REMARK    3  A    between atoms: C_12  and  C_15
REMARK    4  A    between atoms: C_12  and  N_18
REMARK                            x       y       z     vdW  Elec       q    Type
REMARK                         _______ _______ _______ _____ _____    ______ ____
ROOT
ATOM      1  C   UNL     1      35.826 -18.574 -21.648  0.00  0.00    +0.013 C 
ENDROOT
BRANCH   1   2
ATOM      2  C   UNL     1      35.129 -17.256 -21.798  0.00  0.00    -0.024 C 
ATOM      3  C   UNL     1      34.688 -16.784 -23.045  0.00  0.00    -0.004 C 
ATOM      4  C   UNL     1      34.036 -15.530 -23.119  0.00  0.00    -0.000 C 
ATOM      5  C   UNL     1      34.931 -16.502 -20.641  0.00  0.00    -0.004 C 
ATOM      6  C   UNL     1      34.879 -17.529 -24.220  0.00  0.00    -0.000 C 
ATOM      7  C   UNL     1      33.844 -14.786 -21.943  0.00  0.00    -0.000 C 
ATOM      8  C   UNL     1      34.289 -15.269 -20.713  0.00  0.00    -0.000 C 
ATOM      9  C   UNL     1      33.594 -15.059 -24.366  0.00  0.00    -0.000 C 
ATOM     10  C   UNL     1      34.434 -17.045 -25.451  0.00  0.00    -0.000 C 
ATOM     11  C   UNL     1      33.793 -15.812 -25.523  0.00  0.00    -0.000 C 
ENDBRANCH   1   2
BRANCH   1  12
ATOM     12  C   UNL     1      34.863 -19.744 -21.372  0.00  0.00    +0.017 C 
BRANCH  12  15
ATOM     13  O   UNL     1      34.747 -21.568 -19.775  0.00  0.00    -0.278 OA
ATOM     14  N   UNL     1      36.564 -20.165 -19.695  0.00  0.00    -0.330 N 
ATOM     15  C   UNL     1      35.363 -20.599 -20.214  0.00  0.00    +0.199 C 
ATOM     16  H   UNL     1      36.978 -20.647 -18.943  0.00  0.00    +0.145 HD
ATOM     17  H   UNL     1      37.009 -19.375 -20.077  0.00  0.00    +0.145 HD
ENDBRANCH  12  15
BRANCH  12  18
ATOM     18  N   UNL     1      33.538 -19.253 -20.986  0.00  0.00    +0.388 N 
ATOM     19  H   UNL     1      33.263 -18.493 -21.608  0.00  0.00    -0.089 HD
ATOM     20  H   UNL     1      33.570 -18.912 -20.024  0.00  0.00    -0.089 HD
ATOM     21  H   UNL     1      32.861 -20.012 -21.056  0.00  0.00    -0.089 HD
ENDBRANCH  12  18
ENDBRANCH   1  12
TORSDOF 4
ENDMDL
MODEL 9
REMARK VINA RESULT:      -7.8      5.150      7.002
REMARK  Name = 5288981
REMARK  4 active torsions:
REMARK  status: ('A' for Active; 'I' for Inactive)
REMARK    1  A    between atoms: C_1  and  C_2
REMARK    2  A    between atoms: C_1  and  C_12
REMARK    3  A    between atoms: C_12  and  C_15
REMARK    4  A    between atoms: C_12  and  N_18
REMARK                            x       y       z     vdW  Elec       q    Type
REMARK                         _______ _______ _______ _____ _____    ______ ____
ROOT
ATOM      1  C   UNL     1      32.419 -13.409 -23.199  0.00  0.00    +0.013 C 
ENDROOT
BRANCH   1   2
ATOM      2  C   UNL     1      33.242 -14.448 -22.502  0.00  0.00    -0.024 C 
ATOM      3  C   UNL     1      33.838 -15.515 -23.196  0.00  0.00    -0.004 C 
ATOM      4  C   UNL     1      34.603 -16.464 -22.478  0.00  0.00    -0.000 C 
ATOM      5  C   UNL     1      33.399 -14.320 -21.121  0.00  0.00    -0.004 C 
ATOM      6  C   UNL     1      33.690 -15.659 -24.584  0.00  0.00    -0.000 C 
ATOM      7  C   UNL     1      34.752 -16.319 -21.088  0.00  0.00    -0.000 C 
ATOM      8  C   UNL     1      34.153 -15.254 -20.416  0.00  0.00    -0.000 C 
ATOM      9  C   UNL     1      35.200 -17.530 -23.171  0.00  0.00    -0.000 C 
ATOM     10  C   UNL     1      34.289 -16.726 -25.256  0.00  0.00    -0.000 C 
ATOM     11  C   UNL     1      35.042 -17.659 -24.551  0.00  0.00    -0.000 C 
ENDBRANCH   1   2
BRANCH   1  12
ATOM     12  C   UNL     1      32.426 -12.045 -22.482  0.00  0.00    +0.017 C 
BRANCH  12  15
ATOM     13  O   UNL     1      32.472  -9.858 -23.532  0.00  0.00    -0.278 OA
ATOM     14  N   UNL     1      34.156 -11.340 -24.029  0.00  0.00    -0.330 N 
ATOM     15  C   UNL     1      32.999 -10.959 -23.383  0.00  0.00    +0.199 C 
ATOM     16  H   UNL     1      34.609 -10.713 -24.636  0.00  0.00    +0.145 HD
ATOM     17  H   UNL     1      34.528 -12.239 -23.883  0.00  0.00    +0.145 HD
ENDBRANCH  12  15
BRANCH  12  18
ATOM     18  N   UNL     1      31.066 -11.627 -22.137  0.00  0.00    +0.388 N 
ATOM     19  H   UNL     1      30.457 -12.445 -22.104  0.00  0.00    -0.089 HD
ATOM     20  H   UNL     1      30.722 -10.975 -22.843  0.00  0.00    -0.089 HD
ATOM     21  H   UNL     1      31.071 -11.170 -21.226  0.00  0.00    -0.089 HD
ENDBRANCH  12  18
ENDBRANCH   1  12
TORSDOF 4
ENDMDL
