MODEL 1
REMARK VINA RESULT:     -12.5      0.000      0.000
REMARK  Name = 5288607
REMARK  4 active torsions:
REMARK  status: ('A' for Active; 'I' for Inactive)
REMARK    1  A    between atoms: N_2  and  C_19
REMARK    2  A    between atoms: C_3  and  C_6
REMARK    3  A    between atoms: C_5  and  C_16
REMARK    4  A    between atoms: C_19  and  C_21
REMARK                            x       y       z     vdW  Elec       q    Type
REMARK                         _______ _______ _______ _____ _____    ______ ____
ROOT
ATOM      1  O   UNL     1      34.463 -16.542 -25.987  0.00  0.00    -0.270 OA
ATOM      2  N   UNL     1      33.359 -14.936 -24.721  0.00  0.00    -0.270 N 
ATOM      3  C   UNL     1      34.171 -16.060 -24.892  0.00  0.00    +0.249 C 
ATOM      4  C   UNL     1      32.806 -14.269 -25.893  0.00  0.00    +0.116 C 
ENDROOT
BRANCH   3   6
ATOM      5  C   UNL     1      34.682 -18.053 -23.525  0.00  0.00    +0.006 C 
ATOM      6  C   UNL     1      34.672 -16.704 -23.640  0.00  0.00    +0.058 C 
BRANCH   5  16
ATOM      7  O   UNL     1      36.170 -22.354 -17.310  0.00  0.00    -0.275 OA
ATOM      8  N   UNL     1      36.469 -20.824 -18.996  0.00  0.00    -0.270 N 
ATOM      9  N   UNL     1      36.861 -19.299 -20.761  0.00  0.00    -0.229 NA
ATOM     10  C   UNL     1      33.767 -21.212 -19.760  0.00  0.00    +0.039 C 
ATOM     11  C   UNL     1      34.694 -20.350 -20.563  0.00  0.00    +0.010 C 
ATOM     12  C   UNL     1      34.533 -22.326 -19.062  0.00  0.00    +0.090 C 
ATOM     13  C   UNL     1      36.006 -20.146 -20.140  0.00  0.00    +0.130 C 
ATOM     14  C   UNL     1      34.249 -19.649 -21.685  0.00  0.00    +0.000 C 
ATOM     15  C   UNL     1      35.773 -21.826 -18.349  0.00  0.00    +0.227 C 
ATOM     16  C   UNL     1      35.115 -18.791 -22.351  0.00  0.00    +0.019 C 
ATOM     17  C   UNL     1      36.398 -18.649 -21.852  0.00  0.00    +0.100 C 
ATOM     18  H   UNL     1      37.347 -20.567 -18.634  0.00  0.00    +0.156 HD
ENDBRANCH   5  16
ENDBRANCH   3   6
BRANCH   2  19
ATOM     19  C   UNL     1      32.972 -14.367 -23.432  0.00  0.00    +0.122 C 
BRANCH  19  21
ATOM     20  N   UNL     1      33.947 -10.891 -23.976  0.00  0.00    -0.284 N 
ATOM     21  C   UNL     1      33.172 -12.891 -23.455  0.00  0.00    +0.014 C 
ATOM     22  C   UNL     1      32.482 -11.943 -22.663  0.00  0.00    +0.013 C 
ATOM     23  C   UNL     1      32.987 -10.688 -23.010  0.00  0.00    +0.051 C 
ATOM     24  C   UNL     1      34.065 -12.226 -24.252  0.00  0.00    +0.063 C 
ATOM     25  C   UNL     1      31.473 -12.020 -21.683  0.00  0.00    +0.001 C 
ATOM     26  C   UNL     1      32.532  -9.502 -22.423  0.00  0.00    +0.015 C 
ATOM     27  C   UNL     1      34.725  -9.852 -24.618  0.00  0.00    +0.117 C 
ATOM     28  C   UNL     1      31.008 -10.843 -21.087  0.00  0.00    +0.000 C 
ATOM     29  C   UNL     1      31.531  -9.604 -21.452  0.00  0.00    +0.001 C 
ENDBRANCH  19  21
ENDBRANCH   2  19
TORSDOF 4
ENDMDL
MODEL 2
REMARK VINA RESULT:     -11.8      5.439     12.266
REMARK  Name = 5288607
REMARK  4 active torsions:
REMARK  status: ('A' for Active; 'I' for Inactive)
REMARK    1  A    between atoms: N_2  and  C_19
REMARK    2  A    between atoms: C_3  and  C_6
REMARK    3  A    between atoms: C_5  and  C_16
REMARK    4  A    between atoms: C_19  and  C_21
REMARK                            x       y       z     vdW  Elec       q    Type
REMARK                         _______ _______ _______ _____ _____    ______ ____
ROOT
ATOM      1  O   UNL     1      30.816 -24.513 -16.273  0.00  0.00    -0.270 OA
ATOM      2  N   UNL     1      32.360 -24.025 -14.606  0.00  0.00    -0.270 N 
ATOM      3  C   UNL     1      31.771 -23.853 -15.862  0.00  0.00    +0.249 C 
ATOM      4  C   UNL     1      31.835 -25.041 -13.703  0.00  0.00    +0.116 C 
ENDROOT
BRANCH   3   6
ATOM      5  C   UNL     1      33.327 -23.160 -17.651  0.00  0.00    +0.006 C 
ATOM      6  C   UNL     1      32.387 -22.813 -16.739  0.00  0.00    +0.058 C 
BRANCH   5  16
ATOM      7  O   UNL     1      36.180 -17.964 -22.569  0.00  0.00    -0.275 OA
ATOM      8  N   UNL     1      36.111 -19.672 -21.037  0.00  0.00    -0.270 N 
ATOM      9  N   UNL     1      36.103 -21.379 -19.398  0.00  0.00    -0.229 NA
ATOM     10  C   UNL     1      33.281 -19.621 -21.181  0.00  0.00    +0.039 C 
ATOM     11  C   UNL     1      34.001 -20.499 -20.203  0.00  0.00    +0.010 C 
ATOM     12  C   UNL     1      34.086 -18.363 -21.473  0.00  0.00    +0.090 C 
ATOM     13  C   UNL     1      35.395 -20.533 -20.182  0.00  0.00    +0.130 C 
ATOM     14  C   UNL     1      33.312 -21.378 -19.366  0.00  0.00    +0.000 C 
ATOM     15  C   UNL     1      35.540 -18.657 -21.778  0.00  0.00    +0.227 C 
ATOM     16  C   UNL     1      34.017 -22.240 -18.536  0.00  0.00    +0.019 C 
ATOM     17  C   UNL     1      35.400 -22.204 -18.592  0.00  0.00    +0.100 C 
ATOM     18  H   UNL     1      37.084 -19.804 -21.110  0.00  0.00    +0.156 HD
ENDBRANCH   5  16
ENDBRANCH   3   6
BRANCH   2  19
ATOM     19  C   UNL     1      33.514 -23.278 -14.110  0.00  0.00    +0.122 C 
BRANCH  19  21
ATOM     20  N   UNL     1      36.164 -25.703 -14.763  0.00  0.00    -0.284 N 
ATOM     21  C   UNL     1      34.728 -24.141 -14.158  0.00  0.00    +0.014 C 
ATOM     22  C   UNL     1      35.847 -24.053 -13.296  0.00  0.00    +0.013 C 
ATOM     23  C   UNL     1      36.740 -25.049 -13.698  0.00  0.00    +0.051 C 
ATOM     24  C   UNL     1      34.941 -25.158 -15.048  0.00  0.00    +0.063 C 
ATOM     25  C   UNL     1      36.198 -23.225 -12.211  0.00  0.00    +0.001 C 
ATOM     26  C   UNL     1      37.971 -25.259 -13.067  0.00  0.00    +0.015 C 
ATOM     27  C   UNL     1      36.753 -26.810 -15.488  0.00  0.00    +0.117 C 
ATOM     28  C   UNL     1      37.425 -23.424 -11.569  0.00  0.00    +0.000 C 
ATOM     29  C   UNL     1      38.297 -24.426 -11.992  0.00  0.00    +0.001 C 
ENDBRANCH  19  21
ENDBRANCH   2  19
TORSDOF 4
ENDMDL
MODEL 3
REMARK VINA RESULT:     -11.7      2.295      9.192
REMARK  Name = 5288607
REMARK  4 active torsions:
REMARK  status: ('A' for Active; 'I' for Inactive)
REMARK    1  A    between atoms: N_2  and  C_19
REMARK    2  A    between atoms: C_3  and  C_6
REMARK    3  A    between atoms: C_5  and  C_16
REMARK    4  A    between atoms: C_19  and  C_21
REMARK                            x       y       z     vdW  Elec       q    Type
REMARK                         _______ _______ _______ _____ _____    ______ ____
ROOT
ATOM      1  O   UNL     1      34.941 -16.787 -25.844  0.00  0.00    -0.270 OA
ATOM      2  N   UNL     1      34.424 -17.674 -23.760  0.00  0.00    -0.270 N 
ATOM      3  C   UNL     1      34.643 -16.628 -24.660  0.00  0.00    +0.249 C 
ATOM      4  C   UNL     1      34.550 -19.051 -24.220  0.00  0.00    +0.116 C 
ENDROOT
BRANCH   3   6
ATOM      5  C   UNL     1      33.389 -14.534 -24.283  0.00  0.00    +0.006 C 
ATOM      6  C   UNL     1      34.526 -15.247 -24.103  0.00  0.00    +0.058 C 
BRANCH   5  16
ATOM      7  O   UNL     1      31.720  -7.694 -21.159  0.00  0.00    -0.275 OA
ATOM      8  N   UNL     1      32.601  -9.249 -22.600  0.00  0.00    -0.270 N 
ATOM      9  N   UNL     1      33.601 -10.813 -24.066  0.00  0.00    -0.229 NA
ATOM     10  C   UNL     1      31.174 -11.268 -21.214  0.00  0.00    +0.039 C 
ATOM     11  C   UNL     1      32.140 -11.602 -22.310  0.00  0.00    +0.010 C 
ATOM     12  C   UNL     1      31.591  -9.994 -20.495  0.00  0.00    +0.090 C 
ATOM     13  C   UNL     1      32.798 -10.585 -23.000  0.00  0.00    +0.130 C 
ATOM     14  C   UNL     1      32.331 -12.916 -22.740  0.00  0.00    +0.000 C 
ATOM     15  C   UNL     1      31.938  -8.870 -21.450  0.00  0.00    +0.227 C 
ATOM     16  C   UNL     1      33.168 -13.177 -23.818  0.00  0.00    +0.019 C 
ATOM     17  C   UNL     1      33.771 -12.099 -24.443  0.00  0.00    +0.100 C 
ATOM     18  H   UNL     1      32.960  -8.539 -23.179  0.00  0.00    +0.156 HD
ENDBRANCH   5  16
ENDBRANCH   3   6
BRANCH   2  19
ATOM     19  C   UNL     1      34.103 -17.511 -22.343  0.00  0.00    +0.122 C 
BRANCH  19  21
ATOM     20  N   UNL     1      36.373 -19.779 -20.601  0.00  0.00    -0.284 N 
ATOM     21  C   UNL     1      34.790 -18.567 -21.549  0.00  0.00    +0.014 C 
ATOM     22  C   UNL     1      34.160 -19.611 -20.829  0.00  0.00    +0.013 C 
ATOM     23  C   UNL     1      35.179 -20.361 -20.240  0.00  0.00    +0.051 C 
ATOM     24  C   UNL     1      36.144 -18.689 -21.397  0.00  0.00    +0.063 C 
ATOM     25  C   UNL     1      32.822 -19.997 -20.614  0.00  0.00    +0.001 C 
ATOM     26  C   UNL     1      34.927 -21.484 -19.443  0.00  0.00    +0.015 C 
ATOM     27  C   UNL     1      37.687 -20.240 -20.206  0.00  0.00    +0.117 C 
ATOM     28  C   UNL     1      32.554 -21.118 -19.821  0.00  0.00    +0.000 C 
ATOM     29  C   UNL     1      33.591 -21.848 -19.245  0.00  0.00    +0.001 C 
ENDBRANCH  19  21
ENDBRANCH   2  19
TORSDOF 4
ENDMDL
MODEL 4
REMARK VINA RESULT:     -11.6      1.072      2.030
REMARK  Name = 5288607
REMARK  4 active torsions:
REMARK  status: ('A' for Active; 'I' for Inactive)
REMARK    1  A    between atoms: N_2  and  C_19
REMARK    2  A    between atoms: C_3  and  C_6
REMARK    3  A    between atoms: C_5  and  C_16
REMARK    4  A    between atoms: C_19  and  C_21
REMARK                            x       y       z     vdW  Elec       q    Type
REMARK                         _______ _______ _______ _____ _____    ______ ____
ROOT
ATOM      1  O   UNL     1      33.054 -16.022 -25.974  0.00  0.00    -0.270 OA
ATOM      2  N   UNL     1      33.795 -14.124 -24.854  0.00  0.00    -0.270 N 
ATOM      3  C   UNL     1      33.530 -15.491 -24.969  0.00  0.00    +0.249 C 
ATOM      4  C   UNL     1      33.502 -13.243 -25.977  0.00  0.00    +0.116 C 
ENDROOT
BRANCH   3   6
ATOM      5  C   UNL     1      34.787 -17.277 -23.815  0.00  0.00    +0.006 C 
ATOM      6  C   UNL     1      33.829 -16.321 -23.763  0.00  0.00    +0.058 C 
BRANCH   5  16
ATOM      7  O   UNL     1      35.832 -22.231 -18.009  0.00  0.00    -0.275 OA
ATOM      8  N   UNL     1      36.301 -20.643 -19.600  0.00  0.00    -0.270 N 
ATOM      9  N   UNL     1      36.857 -19.069 -21.277  0.00  0.00    -0.229 NA
ATOM     10  C   UNL     1      33.539 -20.529 -20.229  0.00  0.00    +0.039 C 
ATOM     11  C   UNL     1      34.557 -19.769 -21.024  0.00  0.00    +0.010 C 
ATOM     12  C   UNL     1      34.142 -21.803 -19.655  0.00  0.00    +0.090 C 
ATOM     13  C   UNL     1      35.904 -19.813 -20.666  0.00  0.00    +0.130 C 
ATOM     14  C   UNL     1      34.183 -18.920 -22.067  0.00  0.00    +0.000 C 
ATOM     15  C   UNL     1      35.479 -21.566 -18.984  0.00  0.00    +0.227 C 
ATOM     16  C   UNL     1      35.146 -18.164 -22.723  0.00  0.00    +0.019 C 
ATOM     17  C   UNL     1      36.457 -18.271 -22.291  0.00  0.00    +0.100 C 
ATOM     18  H   UNL     1      37.225 -20.560 -19.273  0.00  0.00    +0.156 HD
ENDBRANCH   5  16
ENDBRANCH   3   6
BRANCH   2  19
ATOM     19  C   UNL     1      34.327 -13.468 -23.662  0.00  0.00    +0.122 C 
BRANCH  19  21
ATOM     20  N   UNL     1      31.655 -11.395 -22.288  0.00  0.00    -0.284 N 
ATOM     21  C   UNL     1      33.385 -12.405 -23.213  0.00  0.00    +0.014 C 
ATOM     22  C   UNL     1      33.522 -11.016 -23.448  0.00  0.00    +0.013 C 
ATOM     23  C   UNL     1      32.418 -10.400 -22.855  0.00  0.00    +0.051 C 
ATOM     24  C   UNL     1      32.235 -12.616 -22.502  0.00  0.00    +0.063 C 
ATOM     25  C   UNL     1      34.474 -10.213 -24.106  0.00  0.00    +0.001 C 
ATOM     26  C   UNL     1      32.219  -9.015 -22.886  0.00  0.00    +0.015 C 
ATOM     27  C   UNL     1      30.415 -11.194 -21.566  0.00  0.00    +0.117 C 
ATOM     28  C   UNL     1      34.288  -8.827 -24.147  0.00  0.00    +0.000 C 
ATOM     29  C   UNL     1      33.178  -8.239 -23.546  0.00  0.00    +0.001 C 
ENDBRANCH  19  21
ENDBRANCH   2  19
TORSDOF 4
ENDMDL
MODEL 5
REMARK VINA RESULT:     -11.5      2.694      9.653
REMARK  Name = 5288607
REMARK  4 active torsions:
REMARK  status: ('A' for Active; 'I' for Inactive)
REMARK    1  A    between atoms: N_2  and  C_19
REMARK    2  A    between atoms: C_3  and  C_6
REMARK    3  A    between atoms: C_5  and  C_16
REMARK    4  A    between atoms: C_19  and  C_21
REMARK                            x       y       z     vdW  Elec       q    Type
REMARK                         _______ _______ _______ _____ _____    ______ ____
ROOT
ATOM      1  O   UNL     1      33.734 -15.517 -26.256  0.00  0.00    -0.270 OA
ATOM      2  N   UNL     1      34.005 -16.447 -24.143  0.00  0.00    -0.270 N 
ATOM      3  C   UNL     1      33.630 -15.436 -25.032  0.00  0.00    +0.249 C 
ATOM      4  C   UNL     1      34.558 -17.689 -24.667  0.00  0.00    +0.116 C 
ENDROOT
BRANCH   3   6
ATOM      5  C   UNL     1      33.844 -13.050 -24.430  0.00  0.00    +0.006 C 
ATOM      6  C   UNL     1      33.102 -14.182 -24.414  0.00  0.00    +0.058 C 
BRANCH   5  16
ATOM      7  O   UNL     1      32.384  -5.950 -21.824  0.00  0.00    -0.275 OA
ATOM      8  N   UNL     1      32.254  -8.230 -22.058  0.00  0.00    -0.270 N 
ATOM      9  N   UNL     1      32.020 -10.570 -22.318  0.00  0.00    -0.229 NA
ATOM     10  C   UNL     1      34.446  -8.120 -23.852  0.00  0.00    +0.039 C 
ATOM     11  C   UNL     1      33.707  -9.398 -23.592  0.00  0.00    +0.010 C 
ATOM     12  C   UNL     1      33.523  -6.921 -23.696  0.00  0.00    +0.090 C 
ATOM     13  C   UNL     1      32.658  -9.430 -22.674  0.00  0.00    +0.130 C 
ATOM     14  C   UNL     1      34.107 -10.603 -24.172  0.00  0.00    +0.000 C 
ATOM     15  C   UNL     1      32.701  -6.976 -22.425  0.00  0.00    +0.227 C 
ATOM     16  C   UNL     1      33.453 -11.782 -23.839  0.00  0.00    +0.019 C 
ATOM     17  C   UNL     1      32.427 -11.713 -22.912  0.00  0.00    +0.100 C 
ATOM     18  H   UNL     1      31.609  -8.290 -21.316  0.00  0.00    +0.156 HD
ENDBRANCH   5  16
ENDBRANCH   3   6
BRANCH   2  19
ATOM     19  C   UNL     1      33.922 -16.360 -22.687  0.00  0.00    +0.122 C 
BRANCH  19  21
ATOM     20  N   UNL     1      36.351 -18.778 -21.430  0.00  0.00    -0.284 N 
ATOM     21  C   UNL     1      34.684 -17.484 -22.073  0.00  0.00    +0.014 C 
ATOM     22  C   UNL     1      34.129 -18.583 -21.376  0.00  0.00    +0.013 C 
ATOM     23  C   UNL     1      35.201 -19.386 -20.979  0.00  0.00    +0.051 C 
ATOM     24  C   UNL     1      36.045 -17.623 -22.096  0.00  0.00    +0.063 C 
ATOM     25  C   UNL     1      32.821 -18.982 -21.036  0.00  0.00    +0.001 C 
ATOM     26  C   UNL     1      35.029 -20.572 -20.257  0.00  0.00    +0.015 C 
ATOM     27  C   UNL     1      37.696 -19.277 -21.235  0.00  0.00    +0.117 C 
ATOM     28  C   UNL     1      32.634 -20.166 -20.315  0.00  0.00    +0.000 C 
ATOM     29  C   UNL     1      33.721 -20.947 -19.932  0.00  0.00    +0.001 C 
ENDBRANCH  19  21
ENDBRANCH   2  19
TORSDOF 4
ENDMDL
MODEL 6
REMARK VINA RESULT:     -11.4      1.680      2.797
REMARK  Name = 5288607
REMARK  4 active torsions:
REMARK  status: ('A' for Active; 'I' for Inactive)
REMARK    1  A    between atoms: N_2  and  C_19
REMARK    2  A    between atoms: C_3  and  C_6
REMARK    3  A    between atoms: C_5  and  C_16
REMARK    4  A    between atoms: C_19  and  C_21
REMARK                            x       y       z     vdW  Elec       q    Type
REMARK                         _______ _______ _______ _____ _____    ______ ____
ROOT
ATOM      1  O   UNL     1      33.807 -18.539 -25.560  0.00  0.00    -0.270 OA
ATOM      2  N   UNL     1      34.538 -16.524 -24.660  0.00  0.00    -0.270 N 
ATOM      3  C   UNL     1      34.395 -17.914 -24.676  0.00  0.00    +0.249 C 
ATOM      4  C   UNL     1      33.965 -15.735 -25.743  0.00  0.00    +0.116 C 
ENDROOT
BRANCH   3   6
ATOM      5  C   UNL     1      34.175 -19.211 -22.586  0.00  0.00    +0.006 C 
ATOM      6  C   UNL     1      34.983 -18.648 -23.516  0.00  0.00    +0.058 C 
BRANCH   5  16
ATOM      7  O   UNL     1      35.731 -23.285 -16.236  0.00  0.00    -0.275 OA
ATOM      8  N   UNL     1      36.039 -21.883 -18.028  0.00  0.00    -0.270 N 
ATOM      9  N   UNL     1      36.433 -20.499 -19.906  0.00  0.00    -0.229 NA
ATOM     10  C   UNL     1      33.264 -22.063 -18.582  0.00  0.00    +0.039 C 
ATOM     11  C   UNL     1      34.202 -21.335 -19.497  0.00  0.00    +0.010 C 
ATOM     12  C   UNL     1      33.980 -23.202 -17.871  0.00  0.00    +0.090 C 
ATOM     13  C   UNL     1      35.555 -21.230 -19.178  0.00  0.00    +0.130 C 
ATOM     14  C   UNL     1      33.740 -20.658 -20.627  0.00  0.00    +0.000 C 
ATOM     15  C   UNL     1      35.307 -22.780 -17.276  0.00  0.00    +0.227 C 
ATOM     16  C   UNL     1      34.626 -19.921 -21.402  0.00  0.00    +0.019 C 
ATOM     17  C   UNL     1      35.950 -19.871 -21.000  0.00  0.00    +0.100 C 
ATOM     18  H   UNL     1      36.961 -21.688 -17.743  0.00  0.00    +0.156 HD
ENDBRANCH   5  16
ENDBRANCH   3   6
BRANCH   2  19
ATOM     19  C   UNL     1      35.201 -15.760 -23.606  0.00  0.00    +0.122 C 
BRANCH  19  21
ATOM     20  N   UNL     1      32.741 -14.926 -21.041  0.00  0.00    -0.284 N 
ATOM     21  C   UNL     1      34.180 -15.169 -22.697  0.00  0.00    +0.014 C 
ATOM     22  C   UNL     1      33.609 -13.879 -22.809  0.00  0.00    +0.013 C 
ATOM     23  C   UNL     1      32.705 -13.748 -21.753  0.00  0.00    +0.051 C 
ATOM     24  C   UNL     1      33.634 -15.794 -21.608  0.00  0.00    +0.063 C 
ATOM     25  C   UNL     1      33.769 -12.801 -23.703  0.00  0.00    +0.001 C 
ATOM     26  C   UNL     1      31.949 -12.589 -21.545  0.00  0.00    +0.015 C 
ATOM     27  C   UNL     1      31.955 -15.218 -19.861  0.00  0.00    +0.117 C 
ATOM     28  C   UNL     1      33.019 -11.636 -23.508  0.00  0.00    +0.000 C 
ATOM     29  C   UNL     1      32.124 -11.533 -22.446  0.00  0.00    +0.001 C 
ENDBRANCH  19  21
ENDBRANCH   2  19
TORSDOF 4
ENDMDL
MODEL 7
REMARK VINA RESULT:     -11.2      1.422      2.301
REMARK  Name = 5288607
REMARK  4 active torsions:
REMARK  status: ('A' for Active; 'I' for Inactive)
REMARK    1  A    between atoms: N_2  and  C_19
REMARK    2  A    between atoms: C_3  and  C_6
REMARK    3  A    between atoms: C_5  and  C_16
REMARK    4  A    between atoms: C_19  and  C_21
REMARK                            x       y       z     vdW  Elec       q    Type
REMARK                         _______ _______ _______ _____ _____    ______ ____
ROOT
ATOM      1  O   UNL     1      33.044 -16.858 -26.232  0.00  0.00    -0.270 OA
ATOM      2  N   UNL     1      33.731 -14.743 -25.554  0.00  0.00    -0.270 N 
ATOM      3  C   UNL     1      33.704 -16.138 -25.481  0.00  0.00    +0.249 C 
ATOM      4  C   UNL     1      32.938 -14.065 -26.572  0.00  0.00    +0.116 C 
ENDROOT
BRANCH   3   6
ATOM      5  C   UNL     1      34.072 -17.858 -23.746  0.00  0.00    +0.006 C 
ATOM      6  C   UNL     1      34.519 -16.754 -24.391  0.00  0.00    +0.058 C 
BRANCH   5  16
ATOM      7  O   UNL     1      36.945 -21.862 -17.827  0.00  0.00    -0.275 OA
ATOM      8  N   UNL     1      36.823 -20.352 -19.552  0.00  0.00    -0.270 N 
ATOM      9  N   UNL     1      36.779 -18.840 -21.371  0.00  0.00    -0.229 NA
ATOM     10  C   UNL     1      34.079 -20.996 -19.854  0.00  0.00    +0.039 C 
ATOM     11  C   UNL     1      34.779 -20.074 -20.807  0.00  0.00    +0.010 C 
ATOM     12  C   UNL     1      35.048 -22.020 -19.284  0.00  0.00    +0.090 C 
ATOM     13  C   UNL     1      36.119 -19.745 -20.610  0.00  0.00    +0.130 C 
ATOM     14  C   UNL     1      34.095 -19.442 -21.847  0.00  0.00    +0.000 C 
ATOM     15  C   UNL     1      36.337 -21.396 -18.790  0.00  0.00    +0.227 C 
ATOM     16  C   UNL     1      34.757 -18.527 -22.655  0.00  0.00    +0.019 C 
ATOM     17  C   UNL     1      36.086 -18.260 -22.376  0.00  0.00    +0.100 C 
ATOM     18  H   UNL     1      37.722 -20.009 -19.342  0.00  0.00    +0.156 HD
ENDBRANCH   5  16
ENDBRANCH   3   6
BRANCH   2  19
ATOM     19  C   UNL     1      34.479 -13.869 -24.654  0.00  0.00    +0.122 C 
BRANCH  19  21
ATOM     20  N   UNL     1      32.147 -12.103 -22.470  0.00  0.00    -0.284 N 
ATOM     21  C   UNL     1      33.577 -13.363 -23.581  0.00  0.00    +0.014 C 
ATOM     22  C   UNL     1      33.344 -13.980 -22.329  0.00  0.00    +0.013 C 
ATOM     23  C   UNL     1      32.438 -13.167 -21.646  0.00  0.00    +0.051 C 
ATOM     24  C   UNL     1      32.836 -12.215 -23.647  0.00  0.00    +0.063 C 
ATOM     25  C   UNL     1      33.809 -15.153 -21.702  0.00  0.00    +0.001 C 
ATOM     26  C   UNL     1      31.972 -13.468 -20.361  0.00  0.00    +0.015 C 
ATOM     27  C   UNL     1      31.246 -11.015 -22.151  0.00  0.00    +0.117 C 
ATOM     28  C   UNL     1      33.353 -15.467 -20.417  0.00  0.00    +0.000 C 
ATOM     29  C   UNL     1      32.448 -14.637 -19.759  0.00  0.00    +0.001 C 
ENDBRANCH  19  21
ENDBRANCH   2  19
TORSDOF 4
ENDMDL
MODEL 8
REMARK VINA RESULT:     -11.2      3.804      6.933
REMARK  Name = 5288607
REMARK  4 active torsions:
REMARK  status: ('A' for Active; 'I' for Inactive)
REMARK    1  A    between atoms: N_2  and  C_19
REMARK    2  A    between atoms: C_3  and  C_6
REMARK    3  A    between atoms: C_5  and  C_16
REMARK    4  A    between atoms: C_19  and  C_21
REMARK                            x       y       z     vdW  Elec       q    Type
REMARK                         _______ _______ _______ _____ _____    ______ ____
ROOT
ATOM      1  O   UNL     1      32.332 -21.765 -19.005  0.00  0.00    -0.270 OA
ATOM      2  N   UNL     1      33.696 -20.353 -20.249  0.00  0.00    -0.270 N 
ATOM      3  C   UNL     1      33.455 -21.371 -19.323  0.00  0.00    +0.249 C 
ATOM      4  C   UNL     1      32.569 -19.694 -20.896  0.00  0.00    +0.116 C 
ENDROOT
BRANCH   3   6
ATOM      5  C   UNL     1      34.611 -22.395 -17.395  0.00  0.00    +0.006 C 
ATOM      6  C   UNL     1      34.662 -21.974 -18.681  0.00  0.00    +0.058 C 
BRANCH   5  16
ATOM      7  O   UNL     1      39.946 -26.096 -13.251  0.00  0.00    -0.275 OA
ATOM      8  N   UNL     1      38.970 -24.485 -14.564  0.00  0.00    -0.270 N 
ATOM      9  N   UNL     1      38.039 -22.839 -15.986  0.00  0.00    -0.229 NA
ATOM     10  C   UNL     1      36.498 -25.851 -14.314  0.00  0.00    +0.039 C 
ATOM     11  C   UNL     1      36.649 -24.657 -15.208  0.00  0.00    +0.010 C 
ATOM     12  C   UNL     1      37.810 -26.614 -14.207  0.00  0.00    +0.090 C 
ATOM     13  C   UNL     1      37.866 -23.982 -15.280  0.00  0.00    +0.130 C 
ATOM     14  C   UNL     1      35.563 -24.126 -15.906  0.00  0.00    +0.000 C 
ATOM     15  C   UNL     1      38.992 -25.710 -13.928  0.00  0.00    +0.227 C 
ATOM     16  C   UNL     1      35.721 -22.967 -16.654  0.00  0.00    +0.019 C 
ATOM     17  C   UNL     1      36.968 -22.365 -16.659  0.00  0.00    +0.100 C 
ATOM     18  H   UNL     1      39.779 -23.926 -14.515  0.00  0.00    +0.156 HD
ENDBRANCH   5  16
ENDBRANCH   3   6
BRANCH   2  19
ATOM     19  C   UNL     1      35.017 -19.847 -20.616  0.00  0.00    +0.122 C 
BRANCH  19  21
ATOM     20  N   UNL     1      34.740 -18.071 -23.794  0.00  0.00    -0.284 N 
ATOM     21  C   UNL     1      34.889 -18.888 -21.749  0.00  0.00    +0.014 C 
ATOM     22  C   UNL     1      34.773 -17.482 -21.643  0.00  0.00    +0.013 C 
ATOM     23  C   UNL     1      34.679 -16.988 -22.946  0.00  0.00    +0.051 C 
ATOM     24  C   UNL     1      34.868 -19.228 -23.075  0.00  0.00    +0.063 C 
ATOM     25  C   UNL     1      34.735 -16.571 -20.568  0.00  0.00    +0.001 C 
ATOM     26  C   UNL     1      34.550 -15.624 -23.229  0.00  0.00    +0.015 C 
ATOM     27  C   UNL     1      34.678 -18.010 -25.239  0.00  0.00    +0.117 C 
ATOM     28  C   UNL     1      34.607 -15.204 -20.836  0.00  0.00    +0.000 C 
ATOM     29  C   UNL     1      34.515 -14.740 -22.147  0.00  0.00    +0.001 C 
ENDBRANCH  19  21
ENDBRANCH   2  19
TORSDOF 4
ENDMDL
MODEL 9
REMARK VINA RESULT:     -11.1      3.944      7.203
REMARK  Name = 5288607
REMARK  4 active torsions:
REMARK  status: ('A' for Active; 'I' for Inactive)
REMARK    1  A    between atoms: N_2  and  C_19
REMARK    2  A    between atoms: C_3  and  C_6
REMARK    3  A    between atoms: C_5  and  C_16
REMARK    4  A    between atoms: C_19  and  C_21
REMARK                            x       y       z     vdW  Elec       q    Type
REMARK                         _______ _______ _______ _____ _____    ______ ____
ROOT
ATOM      1  O   UNL     1      32.331 -21.763 -19.016  0.00  0.00    -0.270 OA
ATOM      2  N   UNL     1      33.721 -20.431 -20.318  0.00  0.00    -0.270 N 
ATOM      3  C   UNL     1      33.461 -21.410 -19.356  0.00  0.00    +0.249 C 
ATOM      4  C   UNL     1      32.605 -19.766 -20.981  0.00  0.00    +0.116 C 
ENDROOT
BRANCH   3   6
ATOM      5  C   UNL     1      34.605 -22.394 -17.401  0.00  0.00    +0.006 C 
ATOM      6  C   UNL     1      34.657 -22.020 -18.701  0.00  0.00    +0.058 C 
BRANCH   5  16
ATOM      7  O   UNL     1      39.901 -26.125 -13.234  0.00  0.00    -0.275 OA
ATOM      8  N   UNL     1      38.928 -24.491 -14.519  0.00  0.00    -0.270 N 
ATOM      9  N   UNL     1      38.002 -22.816 -15.910  0.00  0.00    -0.229 NA
ATOM     10  C   UNL     1      36.480 -25.915 -14.387  0.00  0.00    +0.039 C 
ATOM     11  C   UNL     1      36.630 -24.688 -15.235  0.00  0.00    +0.010 C 
ATOM     12  C   UNL     1      37.804 -26.654 -14.268  0.00  0.00    +0.090 C 
ATOM     13  C   UNL     1      37.834 -23.986 -15.249  0.00  0.00    +0.130 C 
ATOM     14  C   UNL     1      35.553 -24.156 -15.945  0.00  0.00    +0.000 C 
ATOM     15  C   UNL     1      38.959 -25.736 -13.924  0.00  0.00    +0.227 C 
ATOM     16  C   UNL     1      35.707 -22.968 -16.649  0.00  0.00    +0.019 C 
ATOM     17  C   UNL     1      36.939 -22.341 -16.597  0.00  0.00    +0.100 C 
ATOM     18  H   UNL     1      39.723 -23.917 -14.427  0.00  0.00    +0.156 HD
ENDBRANCH   5  16
ENDBRANCH   3   6
BRANCH   2  19
ATOM     19  C   UNL     1      35.051 -19.972 -20.712  0.00  0.00    +0.122 C 
BRANCH  19  21
ATOM     20  N   UNL     1      34.837 -16.446 -21.637  0.00  0.00    -0.284 N 
ATOM     21  C   UNL     1      34.948 -18.632 -21.357  0.00  0.00    +0.014 C 
ATOM     22  C   UNL     1      34.832 -18.382 -22.745  0.00  0.00    +0.013 C 
ATOM     23  C   UNL     1      34.763 -16.996 -22.897  0.00  0.00    +0.051 C 
ATOM     24  C   UNL     1      34.948 -17.434 -20.696  0.00  0.00    +0.063 C 
ATOM     25  C   UNL     1      34.778 -19.194 -23.896  0.00  0.00    +0.001 C 
ATOM     26  C   UNL     1      34.644 -16.378 -24.147  0.00  0.00    +0.015 C 
ATOM     27  C   UNL     1      34.802 -15.031 -21.335  0.00  0.00    +0.117 C 
ATOM     28  C   UNL     1      34.658 -18.591 -25.152  0.00  0.00    +0.000 C 
ATOM     29  C   UNL     1      34.592 -17.204 -25.274  0.00  0.00    +0.001 C 
ENDBRANCH  19  21
ENDBRANCH   2  19
TORSDOF 4
ENDMDL
