MODEL 1
REMARK VINA RESULT:      -9.9      0.000      0.000
REMARK  Name = 6323416
REMARK  6 active torsions:
REMARK  status: ('A' for Active; 'I' for Inactive)
REMARK    1  A    between atoms: N_1  and  C_6
REMARK    2  A    between atoms: C_2  and  C_19
REMARK    3  A    between atoms: C_7  and  C_13
REMARK    4  A    between atoms: C_13  and  N_14
REMARK    5  A    between atoms: C_18  and  C_20
REMARK    6  A    between atoms: C_18  and  C_26
REMARK                            x       y       z     vdW  Elec       q    Type
REMARK                         _______ _______ _______ _____ _____    ______ ____
ROOT
ATOM      1  N   UNL     1      32.736 -12.480 -24.293  0.00  0.00    -0.243 NA
ATOM      2  C   UNL     1      33.504 -11.540 -23.838  0.00  0.00    +0.099 C 
ENDROOT
BRANCH   1   6
ATOM      3  N   UNL     1      33.918 -15.904 -24.772  0.00  0.00    -0.153 NA
ATOM      4  N   UNL     1      33.919 -16.382 -23.489  0.00  0.00    -0.153 NA
ATOM      5  C   UNL     1      33.129 -14.276 -22.682  0.00  0.00    +0.017 A 
ATOM      6  C   UNL     1      33.128 -13.793 -23.990  0.00  0.00    +0.092 A 
ATOM      7  C   UNL     1      33.529 -14.638 -25.002  0.00  0.00    +0.076 A 
ATOM      8  C   UNL     1      33.538 -15.602 -22.463  0.00  0.00    +0.083 A 
ATOM      9  C   UNL     1      32.733 -13.471 -21.600  0.00  0.00    +0.055 C 
ATOM     10  C   UNL     1      33.540 -16.089 -21.159  0.00  0.00    +0.073 C 
ATOM     11  C   UNL     1      32.743 -13.979 -20.303  0.00  0.00    -0.025 C 
ATOM     12  C   UNL     1      33.147 -15.290 -20.082  0.00  0.00    -0.024 C 
BRANCH   7  13
ATOM     13  C   UNL     1      33.554 -14.189 -26.424  0.00  0.00    -0.035 C 
BRANCH  13  14
ATOM     14  N   UNL     1      32.234 -14.122 -27.000  0.00  0.00    +0.384 N 
ATOM     15  H   UNL     1      31.549 -14.445 -26.317  0.00  0.00    -0.089 HD
ATOM     16  H   UNL     1      32.195 -14.715 -27.828  0.00  0.00    -0.089 HD
ATOM     17  H   UNL     1      32.026 -13.159 -27.262  0.00  0.00    -0.089 HD
ENDBRANCH  13  14
ENDBRANCH   7  13
ENDBRANCH   1   6
BRANCH   2  19
ATOM     18  C   UNL     1      32.491  -9.316 -23.254  0.00  0.00    +0.002 C 
ATOM     19  C   UNL     1      33.209 -10.107 -24.079  0.00  0.00    +0.021 C 
BRANCH  18  20
ATOM     20  C   UNL     1      31.928  -9.835 -21.986  0.00  0.00    +0.000 C 
ATOM     21  C   UNL     1      32.471  -9.412 -20.787  0.00  0.00    +0.000 C 
ATOM     22  C   UNL     1      30.874 -10.726 -22.036  0.00  0.00    +0.000 C 
ATOM     23  C   UNL     1      31.938  -9.899 -19.594  0.00  0.00    +0.000 C 
ATOM     24  C   UNL     1      30.342 -11.215 -20.842  0.00  0.00    +0.000 C 
ATOM     25  C   UNL     1      30.874 -10.800 -19.621  0.00  0.00    +0.000 C 
ENDBRANCH  18  20
BRANCH  18  26
ATOM     26  C   UNL     1      32.305  -7.901 -23.670  0.00  0.00    +0.000 C 
ATOM     27  C   UNL     1      33.356  -7.239 -24.269  0.00  0.00    +0.000 C 
ATOM     28  C   UNL     1      31.085  -7.298 -23.445  0.00  0.00    +0.000 C 
ATOM     29  C   UNL     1      33.179  -5.912 -24.662  0.00  0.00    +0.000 C 
ATOM     30  C   UNL     1      30.909  -5.971 -23.838  0.00  0.00    +0.000 C 
ATOM     31  C   UNL     1      31.956  -5.279 -24.446  0.00  0.00    +0.000 C 
ENDBRANCH  18  26
ENDBRANCH   2  19
TORSDOF 6
ENDMDL
MODEL 2
REMARK VINA RESULT:      -9.4      1.816      3.668
REMARK  Name = 6323416
REMARK  6 active torsions:
REMARK  status: ('A' for Active; 'I' for Inactive)
REMARK    1  A    between atoms: N_1  and  C_6
REMARK    2  A    between atoms: C_2  and  C_19
REMARK    3  A    between atoms: C_7  and  C_13
REMARK    4  A    between atoms: C_13  and  N_14
REMARK    5  A    between atoms: C_18  and  C_20
REMARK    6  A    between atoms: C_18  and  C_26
REMARK                            x       y       z     vdW  Elec       q    Type
REMARK                         _______ _______ _______ _____ _____    ______ ____
ROOT
ATOM      1  N   UNL     1      33.042 -14.146 -23.885  0.00  0.00    -0.243 NA
ATOM      2  C   UNL     1      33.692 -13.248 -23.212  0.00  0.00    +0.099 C 
ENDROOT
BRANCH   1   6
ATOM      3  N   UNL     1      34.591 -16.909 -25.705  0.00  0.00    -0.153 NA
ATOM      4  N   UNL     1      35.060 -17.690 -24.683  0.00  0.00    -0.153 NA
ATOM      5  C   UNL     1      34.202 -16.140 -23.078  0.00  0.00    +0.017 A 
ATOM      6  C   UNL     1      33.726 -15.348 -24.122  0.00  0.00    +0.092 A 
ATOM      7  C   UNL     1      33.941 -15.768 -25.417  0.00  0.00    +0.076 A 
ATOM      8  C   UNL     1      34.879 -17.329 -23.401  0.00  0.00    +0.083 A 
ATOM      9  C   UNL     1      34.020 -15.774 -21.734  0.00  0.00    +0.055 C 
ATOM     10  C   UNL     1      35.356 -18.124 -22.363  0.00  0.00    +0.073 C 
ATOM     11  C   UNL     1      34.506 -16.585 -20.711  0.00  0.00    -0.025 C 
ATOM     12  C   UNL     1      35.176 -17.761 -21.026  0.00  0.00    -0.024 C 
BRANCH   7  13
ATOM     13  C   UNL     1      33.459 -14.972 -26.582  0.00  0.00    -0.035 C 
BRANCH  13  14
ATOM     14  N   UNL     1      32.038 -14.737 -26.535  0.00  0.00    +0.384 N 
ATOM     15  H   UNL     1      31.805 -13.948 -27.138  0.00  0.00    -0.089 HD
ATOM     16  H   UNL     1      31.761 -14.528 -25.577  0.00  0.00    -0.089 HD
ATOM     17  H   UNL     1      31.545 -15.569 -26.858  0.00  0.00    -0.089 HD
ENDBRANCH  13  14
ENDBRANCH   7  13
ENDBRANCH   1   6
BRANCH   2  19
ATOM     18  C   UNL     1      33.288 -10.797 -23.588  0.00  0.00    +0.002 C 
ATOM     19  C   UNL     1      33.092 -11.932 -22.885  0.00  0.00    +0.021 C 
BRANCH  18  20
ATOM     20  C   UNL     1      34.142 -10.778 -24.798  0.00  0.00    +0.000 C 
ATOM     21  C   UNL     1      35.231  -9.927 -24.838  0.00  0.00    +0.000 C 
ATOM     22  C   UNL     1      33.829 -11.612 -25.853  0.00  0.00    +0.000 C 
ATOM     23  C   UNL     1      36.036  -9.911 -25.977  0.00  0.00    +0.000 C 
ATOM     24  C   UNL     1      34.634 -11.596 -26.993  0.00  0.00    +0.000 C 
ATOM     25  C   UNL     1      35.738 -10.745 -27.054  0.00  0.00    +0.000 C 
ENDBRANCH  18  20
BRANCH  18  26
ATOM     26  C   UNL     1      32.598  -9.574 -23.100  0.00  0.00    +0.000 C 
ATOM     27  C   UNL     1      32.623  -9.288 -21.751  0.00  0.00    +0.000 C 
ATOM     28  C   UNL     1      31.956  -8.765 -24.014  0.00  0.00    +0.000 C 
ATOM     29  C   UNL     1      31.977  -8.140 -21.294  0.00  0.00    +0.000 C 
ATOM     30  C   UNL     1      31.310  -7.616 -23.557  0.00  0.00    +0.000 C 
ATOM     31  C   UNL     1      31.320  -7.304 -22.197  0.00  0.00    +0.000 C 
ENDBRANCH  18  26
ENDBRANCH   2  19
TORSDOF 6
ENDMDL
MODEL 3
REMARK VINA RESULT:      -9.1      8.899     14.447
REMARK  Name = 6323416
REMARK  6 active torsions:
REMARK  status: ('A' for Active; 'I' for Inactive)
REMARK    1  A    between atoms: N_1  and  C_6
REMARK    2  A    between atoms: C_2  and  C_19
REMARK    3  A    between atoms: C_7  and  C_13
REMARK    4  A    between atoms: C_13  and  N_14
REMARK    5  A    between atoms: C_18  and  C_20
REMARK    6  A    between atoms: C_18  and  C_26
REMARK                            x       y       z     vdW  Elec       q    Type
REMARK                         _______ _______ _______ _____ _____    ______ ____
ROOT
ATOM      1  N   UNL     1      35.861 -22.310 -18.608  0.00  0.00    -0.243 NA
ATOM      2  C   UNL     1      36.200 -21.923 -17.418  0.00  0.00    +0.099 C 
ENDROOT
BRANCH   1   6
ATOM      3  N   UNL     1      32.635 -20.983 -19.693  0.00  0.00    -0.153 NA
ATOM      4  N   UNL     1      33.016 -19.968 -20.528  0.00  0.00    -0.153 NA
ATOM      5  C   UNL     1      35.317 -20.470 -20.122  0.00  0.00    +0.017 A 
ATOM      6  C   UNL     1      34.925 -21.503 -19.272  0.00  0.00    +0.092 A 
ATOM      7  C   UNL     1      33.578 -21.724 -19.086  0.00  0.00    +0.076 A 
ATOM      8  C   UNL     1      34.316 -19.706 -20.747  0.00  0.00    +0.083 A 
ATOM      9  C   UNL     1      36.673 -20.186 -20.359  0.00  0.00    +0.055 C 
ATOM     10  C   UNL     1      34.703 -18.674 -21.597  0.00  0.00    +0.073 C 
ATOM     11  C   UNL     1      37.037 -19.148 -21.214  0.00  0.00    -0.025 C 
ATOM     12  C   UNL     1      36.050 -18.391 -21.833  0.00  0.00    -0.024 C 
BRANCH   7  13
ATOM     13  C   UNL     1      33.086 -22.811 -18.191  0.00  0.00    -0.035 C 
BRANCH  13  14
ATOM     14  N   UNL     1      31.774 -22.534 -17.663  0.00  0.00    +0.384 N 
ATOM     15  H   UNL     1      31.860 -21.938 -16.840  0.00  0.00    -0.089 HD
ATOM     16  H   UNL     1      31.322 -23.410 -17.403  0.00  0.00    -0.089 HD
ATOM     17  H   UNL     1      31.215 -22.060 -18.371  0.00  0.00    -0.089 HD
ENDBRANCH  13  14
ENDBRANCH   7  13
ENDBRANCH   1   6
BRANCH   2  19
ATOM     18  C   UNL     1      36.868 -23.498 -15.578  0.00  0.00    +0.002 C 
ATOM     19  C   UNL     1      37.182 -22.677 -16.602  0.00  0.00    +0.021 C 
BRANCH  18  20
ATOM     20  C   UNL     1      35.460 -23.730 -15.181  0.00  0.00    +0.000 C 
ATOM     21  C   UNL     1      34.966 -25.021 -15.182  0.00  0.00    +0.000 C 
ATOM     22  C   UNL     1      34.680 -22.650 -14.816  0.00  0.00    +0.000 C 
ATOM     23  C   UNL     1      33.641 -25.239 -14.805  0.00  0.00    +0.000 C 
ATOM     24  C   UNL     1      33.354 -22.868 -14.440  0.00  0.00    +0.000 C 
ATOM     25  C   UNL     1      32.835 -24.163 -14.434  0.00  0.00    +0.000 C 
ENDBRANCH  18  20
BRANCH  18  26
ATOM     26  C   UNL     1      37.998 -24.167 -14.880  0.00  0.00    +0.000 C 
ATOM     27  C   UNL     1      37.892 -24.414 -13.528  0.00  0.00    +0.000 C 
ATOM     28  C   UNL     1      39.113 -24.519 -15.610  0.00  0.00    +0.000 C 
ATOM     29  C   UNL     1      38.952 -25.044 -12.874  0.00  0.00    +0.000 C 
ATOM     30  C   UNL     1      40.173 -25.149 -14.957  0.00  0.00    +0.000 C 
ATOM     31  C   UNL     1      40.092 -25.411 -13.589  0.00  0.00    +0.000 C 
ENDBRANCH  18  26
ENDBRANCH   2  19
TORSDOF 6
ENDMDL
MODEL 4
REMARK VINA RESULT:      -9.1      8.902     14.412
REMARK  Name = 6323416
REMARK  6 active torsions:
REMARK  status: ('A' for Active; 'I' for Inactive)
REMARK    1  A    between atoms: N_1  and  C_6
REMARK    2  A    between atoms: C_2  and  C_19
REMARK    3  A    between atoms: C_7  and  C_13
REMARK    4  A    between atoms: C_13  and  N_14
REMARK    5  A    between atoms: C_18  and  C_20
REMARK    6  A    between atoms: C_18  and  C_26
REMARK                            x       y       z     vdW  Elec       q    Type
REMARK                         _______ _______ _______ _____ _____    ______ ____
ROOT
ATOM      1  N   UNL     1      35.860 -22.314 -18.607  0.00  0.00    -0.243 NA
ATOM      2  C   UNL     1      36.199 -21.928 -17.417  0.00  0.00    +0.099 C 
ENDROOT
BRANCH   1   6
ATOM      3  N   UNL     1      32.632 -20.986 -19.688  0.00  0.00    -0.153 NA
ATOM      4  N   UNL     1      33.012 -19.971 -20.523  0.00  0.00    -0.153 NA
ATOM      5  C   UNL     1      35.314 -20.473 -20.119  0.00  0.00    +0.017 A 
ATOM      6  C   UNL     1      34.923 -21.506 -19.269  0.00  0.00    +0.092 A 
ATOM      7  C   UNL     1      33.576 -21.728 -19.082  0.00  0.00    +0.076 A 
ATOM      8  C   UNL     1      34.312 -19.709 -20.743  0.00  0.00    +0.083 A 
ATOM      9  C   UNL     1      36.670 -20.189 -20.357  0.00  0.00    +0.055 C 
ATOM     10  C   UNL     1      34.698 -18.677 -21.593  0.00  0.00    +0.073 C 
ATOM     11  C   UNL     1      37.032 -19.150 -21.211  0.00  0.00    -0.025 C 
ATOM     12  C   UNL     1      36.045 -18.393 -21.829  0.00  0.00    -0.024 C 
BRANCH   7  13
ATOM     13  C   UNL     1      33.085 -22.816 -18.188  0.00  0.00    -0.035 C 
BRANCH  13  14
ATOM     14  N   UNL     1      31.771 -22.542 -17.662  0.00  0.00    +0.384 N 
ATOM     15  H   UNL     1      31.207 -23.391 -17.700  0.00  0.00    -0.089 HD
ATOM     16  H   UNL     1      31.328 -21.813 -18.220  0.00  0.00    -0.089 HD
ATOM     17  H   UNL     1      31.850 -22.229 -16.695  0.00  0.00    -0.089 HD
ENDBRANCH  13  14
ENDBRANCH   7  13
ENDBRANCH   1   6
BRANCH   2  19
ATOM     18  C   UNL     1      36.869 -23.502 -15.577  0.00  0.00    +0.002 C 
ATOM     19  C   UNL     1      37.182 -22.682 -16.602  0.00  0.00    +0.021 C 
BRANCH  18  20
ATOM     20  C   UNL     1      35.462 -23.733 -15.177  0.00  0.00    +0.000 C 
ATOM     21  C   UNL     1      34.682 -22.651 -14.814  0.00  0.00    +0.000 C 
ATOM     22  C   UNL     1      34.967 -25.022 -15.178  0.00  0.00    +0.000 C 
ATOM     23  C   UNL     1      33.356 -22.869 -14.439  0.00  0.00    +0.000 C 
ATOM     24  C   UNL     1      33.641 -25.240 -14.802  0.00  0.00    +0.000 C 
ATOM     25  C   UNL     1      32.836 -24.162 -14.433  0.00  0.00    +0.000 C 
ENDBRANCH  18  20
BRANCH  18  26
ATOM     26  C   UNL     1      38.000 -24.171 -14.880  0.00  0.00    +0.000 C 
ATOM     27  C   UNL     1      39.117 -24.522 -15.608  0.00  0.00    +0.000 C 
ATOM     28  C   UNL     1      37.893 -24.416 -13.527  0.00  0.00    +0.000 C 
ATOM     29  C   UNL     1      40.178 -25.147 -14.953  0.00  0.00    +0.000 C 
ATOM     30  C   UNL     1      38.954 -25.042 -12.872  0.00  0.00    +0.000 C 
ATOM     31  C   UNL     1      40.096 -25.407 -13.585  0.00  0.00    +0.000 C 
ENDBRANCH  18  26
ENDBRANCH   2  19
TORSDOF 6
ENDMDL
MODEL 5
REMARK VINA RESULT:      -8.8      2.742      8.718
REMARK  Name = 6323416
REMARK  6 active torsions:
REMARK  status: ('A' for Active; 'I' for Inactive)
REMARK    1  A    between atoms: N_1  and  C_6
REMARK    2  A    between atoms: C_2  and  C_19
REMARK    3  A    between atoms: C_7  and  C_13
REMARK    4  A    between atoms: C_13  and  N_14
REMARK    5  A    between atoms: C_18  and  C_20
REMARK    6  A    between atoms: C_18  and  C_26
REMARK                            x       y       z     vdW  Elec       q    Type
REMARK                         _______ _______ _______ _____ _____    ______ ____
ROOT
ATOM      1  N   UNL     1      32.413 -14.899 -21.753  0.00  0.00    -0.243 NA
ATOM      2  C   UNL     1      33.562 -15.380 -21.394  0.00  0.00    +0.099 C 
ENDROOT
BRANCH   1   6
ATOM      3  N   UNL     1      32.748 -12.131 -24.114  0.00  0.00    -0.153 NA
ATOM      4  N   UNL     1      32.469 -11.051 -23.321  0.00  0.00    -0.153 NA
ATOM      5  C   UNL     1      32.140 -12.490 -21.441  0.00  0.00    +0.017 A 
ATOM      6  C   UNL     1      32.425 -13.587 -22.252  0.00  0.00    +0.092 A 
ATOM      7  C   UNL     1      32.724 -13.364 -23.579  0.00  0.00    +0.076 A 
ATOM      8  C   UNL     1      32.172 -11.209 -22.020  0.00  0.00    +0.083 A 
ATOM      9  C   UNL     1      31.828 -12.642 -20.080  0.00  0.00    +0.055 C 
ATOM     10  C   UNL     1      31.889 -10.111 -21.214  0.00  0.00    +0.073 C 
ATOM     11  C   UNL     1      31.547 -11.528 -19.293  0.00  0.00    -0.025 C 
ATOM     12  C   UNL     1      31.577 -10.261 -19.861  0.00  0.00    -0.024 C 
BRANCH   7  13
ATOM     13  C   UNL     1      33.038 -14.490 -24.504  0.00  0.00    -0.035 C 
BRANCH  13  14
ATOM     14  N   UNL     1      32.539 -14.260 -25.836  0.00  0.00    +0.384 N 
ATOM     15  H   UNL     1      31.788 -14.921 -26.035  0.00  0.00    -0.089 HD
ATOM     16  H   UNL     1      33.294 -14.390 -26.509  0.00  0.00    -0.089 HD
ATOM     17  H   UNL     1      32.182 -13.308 -25.906  0.00  0.00    -0.089 HD
ENDBRANCH  13  14
ENDBRANCH   7  13
ENDBRANCH   1   6
BRANCH   2  19
ATOM     18  C   UNL     1      34.069 -17.834 -21.572  0.00  0.00    +0.002 C 
ATOM     19  C   UNL     1      33.699 -16.753 -20.852  0.00  0.00    +0.021 C 
BRANCH  18  20
ATOM     20  C   UNL     1      34.391 -17.727 -23.013  0.00  0.00    +0.000 C 
ATOM     21  C   UNL     1      33.983 -18.733 -23.868  0.00  0.00    +0.000 C 
ATOM     22  C   UNL     1      35.090 -16.624 -23.464  0.00  0.00    +0.000 C 
ATOM     23  C   UNL     1      34.285 -18.631 -25.226  0.00  0.00    +0.000 C 
ATOM     24  C   UNL     1      35.393 -16.522 -24.822  0.00  0.00    +0.000 C 
ATOM     25  C   UNL     1      34.989 -17.526 -25.703  0.00  0.00    +0.000 C 
ENDBRANCH  18  20
BRANCH  18  26
ATOM     26  C   UNL     1      34.149 -19.130 -20.846  0.00  0.00    +0.000 C 
ATOM     27  C   UNL     1      32.982 -19.740 -20.441  0.00  0.00    +0.000 C 
ATOM     28  C   UNL     1      35.391 -19.679 -20.606  0.00  0.00    +0.000 C 
ATOM     29  C   UNL     1      33.058 -20.957 -19.763  0.00  0.00    +0.000 C 
ATOM     30  C   UNL     1      35.468 -20.895 -19.928  0.00  0.00    +0.000 C 
ATOM     31  C   UNL     1      34.302 -21.534 -19.507  0.00  0.00    +0.000 C 
ENDBRANCH  18  26
ENDBRANCH   2  19
TORSDOF 6
ENDMDL
MODEL 6
REMARK VINA RESULT:      -8.4      1.939      3.921
REMARK  Name = 6323416
REMARK  6 active torsions:
REMARK  status: ('A' for Active; 'I' for Inactive)
REMARK    1  A    between atoms: N_1  and  C_6
REMARK    2  A    between atoms: C_2  and  C_19
REMARK    3  A    between atoms: C_7  and  C_13
REMARK    4  A    between atoms: C_13  and  N_14
REMARK    5  A    between atoms: C_18  and  C_20
REMARK    6  A    between atoms: C_18  and  C_26
REMARK                            x       y       z     vdW  Elec       q    Type
REMARK                         _______ _______ _______ _____ _____    ______ ____
ROOT
ATOM      1  N   UNL     1      32.857 -10.154 -23.980  0.00  0.00    -0.243 NA
ATOM      2  C   UNL     1      33.778  -9.281 -23.714  0.00  0.00    +0.099 C 
ENDROOT
BRANCH   1   6
ATOM      3  N   UNL     1      32.781 -13.481 -22.473  0.00  0.00    -0.153 NA
ATOM      4  N   UNL     1      32.340 -13.205 -21.207  0.00  0.00    -0.153 NA
ATOM      5  C   UNL     1      32.222 -10.876 -21.734  0.00  0.00    +0.017 A 
ATOM      6  C   UNL     1      32.671 -11.162 -23.022  0.00  0.00    +0.092 A 
ATOM      7  C   UNL     1      32.938 -12.474 -23.349  0.00  0.00    +0.076 A 
ATOM      8  C   UNL     1      32.064 -11.944 -20.833  0.00  0.00    +0.083 A 
ATOM      9  C   UNL     1      31.931  -9.562 -21.330  0.00  0.00    +0.055 C 
ATOM     10  C   UNL     1      31.616 -11.664 -19.545  0.00  0.00    +0.073 C 
ATOM     11  C   UNL     1      31.484  -9.306 -20.036  0.00  0.00    -0.025 C 
ATOM     12  C   UNL     1      31.327 -10.358 -19.142  0.00  0.00    -0.024 C 
BRANCH   7  13
ATOM     13  C   UNL     1      33.421 -12.852 -24.708  0.00  0.00    -0.035 C 
BRANCH  13  14
ATOM     14  N   UNL     1      33.033 -14.191 -25.074  0.00  0.00    +0.384 N 
ATOM     15  H   UNL     1      32.951 -14.762 -24.232  0.00  0.00    -0.089 HD
ATOM     16  H   UNL     1      33.740 -14.592 -25.690  0.00  0.00    -0.089 HD
ATOM     17  H   UNL     1      32.136 -14.166 -25.557  0.00  0.00    -0.089 HD
ENDBRANCH  13  14
ENDBRANCH   7  13
ENDBRANCH   1   6
BRANCH   2  19
ATOM     18  C   UNL     1      33.510  -6.937 -24.576  0.00  0.00    +0.002 C 
ATOM     19  C   UNL     1      34.081  -8.159 -24.634  0.00  0.00    +0.021 C 
BRANCH  18  20
ATOM     20  C   UNL     1      32.506  -6.603 -23.541  0.00  0.00    +0.000 C 
ATOM     21  C   UNL     1      31.163  -6.665 -23.863  0.00  0.00    +0.000 C 
ATOM     22  C   UNL     1      32.938  -6.240 -22.280  0.00  0.00    +0.000 C 
ATOM     23  C   UNL     1      30.218  -6.353 -22.886  0.00  0.00    +0.000 C 
ATOM     24  C   UNL     1      31.992  -5.927 -21.303  0.00  0.00    +0.000 C 
ATOM     25  C   UNL     1      30.632  -5.984 -21.607  0.00  0.00    +0.000 C 
ENDBRANCH  18  20
BRANCH  18  26
ATOM     26  C   UNL     1      33.948  -5.941 -25.591  0.00  0.00    +0.000 C 
ATOM     27  C   UNL     1      35.229  -6.022 -26.094  0.00  0.00    +0.000 C 
ATOM     28  C   UNL     1      33.055  -4.971 -25.996  0.00  0.00    +0.000 C 
ATOM     29  C   UNL     1      35.637  -5.089 -27.048  0.00  0.00    +0.000 C 
ATOM     30  C   UNL     1      33.463  -4.038 -26.949  0.00  0.00    +0.000 C 
ATOM     31  C   UNL     1      34.754  -4.098 -27.475  0.00  0.00    +0.000 C 
ENDBRANCH  18  26
ENDBRANCH   2  19
TORSDOF 6
ENDMDL
MODEL 7
REMARK VINA RESULT:      -8.3      1.235      1.584
REMARK  Name = 6323416
REMARK  6 active torsions:
REMARK  status: ('A' for Active; 'I' for Inactive)
REMARK    1  A    between atoms: N_1  and  C_6
REMARK    2  A    between atoms: C_2  and  C_19
REMARK    3  A    between atoms: C_7  and  C_13
REMARK    4  A    between atoms: C_13  and  N_14
REMARK    5  A    between atoms: C_18  and  C_20
REMARK    6  A    between atoms: C_18  and  C_26
REMARK                            x       y       z     vdW  Elec       q    Type
REMARK                         _______ _______ _______ _____ _____    ______ ____
ROOT
ATOM      1  N   UNL     1      33.712 -11.943 -24.335  0.00  0.00    -0.243 NA
ATOM      2  C   UNL     1      32.558 -11.427 -24.048  0.00  0.00    +0.099 C 
ENDROOT
BRANCH   1   6
ATOM      3  N   UNL     1      33.573 -15.296 -25.778  0.00  0.00    -0.153 NA
ATOM      4  N   UNL     1      33.823 -16.082 -24.686  0.00  0.00    -0.153 NA
ATOM      5  C   UNL     1      34.010 -14.139 -23.306  0.00  0.00    +0.017 A 
ATOM      6  C   UNL     1      33.754 -13.343 -24.421  0.00  0.00    +0.092 A 
ATOM      7  C   UNL     1      33.542 -13.960 -25.634  0.00  0.00    +0.076 A 
ATOM      8  C   UNL     1      34.038 -15.534 -23.477  0.00  0.00    +0.083 A 
ATOM      9  C   UNL     1      34.236 -13.579 -22.037  0.00  0.00    +0.055 C 
ATOM     10  C   UNL     1      34.292 -16.334 -22.367  0.00  0.00    +0.073 C 
ATOM     11  C   UNL     1      34.489 -14.399 -20.940  0.00  0.00    -0.025 C 
ATOM     12  C   UNL     1      34.517 -15.779 -21.105  0.00  0.00    -0.024 C 
BRANCH   7  13
ATOM     13  C   UNL     1      33.263 -13.171 -26.869  0.00  0.00    -0.035 C 
BRANCH  13  14
ATOM     14  N   UNL     1      34.300 -12.212 -27.152  0.00  0.00    +0.384 N 
ATOM     15  H   UNL     1      33.901 -11.273 -27.161  0.00  0.00    -0.089 HD
ATOM     16  H   UNL     1      34.712 -12.416 -28.062  0.00  0.00    -0.089 HD
ATOM     17  H   UNL     1      35.021 -12.268 -26.432  0.00  0.00    -0.089 HD
ENDBRANCH  13  14
ENDBRANCH   7  13
ENDBRANCH   1   6
BRANCH   2  19
ATOM     18  C   UNL     1      32.019  -9.318 -22.794  0.00  0.00    +0.002 C 
ATOM     19  C   UNL     1      32.365  -9.962 -23.929  0.00  0.00    +0.021 C 
BRANCH  18  20
ATOM     20  C   UNL     1      31.807 -10.051 -21.525  0.00  0.00    +0.000 C 
ATOM     21  C   UNL     1      31.465 -11.390 -21.573  0.00  0.00    +0.000 C 
ATOM     22  C   UNL     1      31.959  -9.379 -20.328  0.00  0.00    +0.000 C 
ATOM     23  C   UNL     1      31.268 -12.080 -20.377  0.00  0.00    +0.000 C 
ATOM     24  C   UNL     1      31.761 -10.069 -19.133  0.00  0.00    +0.000 C 
ATOM     25  C   UNL     1      31.416 -11.421 -19.157  0.00  0.00    +0.000 C 
ENDBRANCH  18  20
BRANCH  18  26
ATOM     26  C   UNL     1      31.874  -7.840 -22.876  0.00  0.00    +0.000 C 
ATOM     27  C   UNL     1      32.725  -7.045 -22.139  0.00  0.00    +0.000 C 
ATOM     28  C   UNL     1      30.892  -7.314 -23.690  0.00  0.00    +0.000 C 
ATOM     29  C   UNL     1      32.590  -5.659 -22.219  0.00  0.00    +0.000 C 
ATOM     30  C   UNL     1      30.756  -5.928 -23.769  0.00  0.00    +0.000 C 
ATOM     31  C   UNL     1      31.605  -5.101 -23.034  0.00  0.00    +0.000 C 
ENDBRANCH  18  26
ENDBRANCH   2  19
TORSDOF 6
ENDMDL
MODEL 8
REMARK VINA RESULT:      -8.2     11.315     14.745
REMARK  Name = 6323416
REMARK  6 active torsions:
REMARK  status: ('A' for Active; 'I' for Inactive)
REMARK    1  A    between atoms: N_1  and  C_6
REMARK    2  A    between atoms: C_2  and  C_19
REMARK    3  A    between atoms: C_7  and  C_13
REMARK    4  A    between atoms: C_13  and  N_14
REMARK    5  A    between atoms: C_18  and  C_20
REMARK    6  A    between atoms: C_18  and  C_26
REMARK                            x       y       z     vdW  Elec       q    Type
REMARK                         _______ _______ _______ _____ _____    ______ ____
ROOT
ATOM      1  N   UNL     1      34.955 -23.022 -14.979  0.00  0.00    -0.243 NA
ATOM      2  C   UNL     1      34.136 -23.957 -15.347  0.00  0.00    +0.099 C 
ENDROOT
BRANCH   1   6
ATOM      3  N   UNL     1      38.436 -23.057 -16.089  0.00  0.00    -0.153 NA
ATOM      4  N   UNL     1      39.006 -23.923 -15.196  0.00  0.00    -0.153 NA
ATOM      5  C   UNL     1      36.896 -24.230 -14.115  0.00  0.00    +0.017 A 
ATOM      6  C   UNL     1      36.319 -23.348 -15.027  0.00  0.00    +0.092 A 
ATOM      7  C   UNL     1      37.123 -22.785 -15.995  0.00  0.00    +0.076 A 
ATOM      8  C   UNL     1      38.271 -24.502 -14.231  0.00  0.00    +0.083 A 
ATOM      9  C   UNL     1      36.138 -24.841 -13.102  0.00  0.00    +0.055 C 
ATOM     10  C   UNL     1      38.851 -25.383 -13.323  0.00  0.00    +0.073 C 
ATOM     11  C   UNL     1      36.741 -25.720 -12.204  0.00  0.00    -0.025 C 
ATOM     12  C   UNL     1      38.099 -25.990 -12.315  0.00  0.00    -0.024 C 
BRANCH   7  13
ATOM     13  C   UNL     1      36.573 -21.833 -17.003  0.00  0.00    -0.035 C 
BRANCH  13  14
ATOM     14  N   UNL     1      37.343 -20.618 -17.085  0.00  0.00    +0.384 N 
ATOM     15  H   UNL     1      37.805 -20.448 -16.191  0.00  0.00    -0.089 HD
ATOM     16  H   UNL     1      36.724 -19.838 -17.302  0.00  0.00    -0.089 HD
ATOM     17  H   UNL     1      38.046 -20.709 -17.819  0.00  0.00    -0.089 HD
ENDBRANCH  13  14
ENDBRANCH   7  13
ENDBRANCH   1   6
BRANCH   2  19
ATOM     18  C   UNL     1      31.965 -23.217 -16.370  0.00  0.00    +0.002 C 
ATOM     19  C   UNL     1      32.667 -23.752 -15.350  0.00  0.00    +0.021 C 
BRANCH  18  20
ATOM     20  C   UNL     1      32.629 -22.785 -17.621  0.00  0.00    +0.000 C 
ATOM     21  C   UNL     1      32.241 -21.597 -18.211  0.00  0.00    +0.000 C 
ATOM     22  C   UNL     1      33.620 -23.580 -18.163  0.00  0.00    +0.000 C 
ATOM     23  C   UNL     1      32.870 -21.189 -19.388  0.00  0.00    +0.000 C 
ATOM     24  C   UNL     1      34.247 -23.173 -19.341  0.00  0.00    +0.000 C 
ATOM     25  C   UNL     1      33.872 -21.977 -19.953  0.00  0.00    +0.000 C 
ENDBRANCH  18  20
BRANCH  18  26
ATOM     26  C   UNL     1      30.494 -23.094 -16.183  0.00  0.00    +0.000 C 
ATOM     27  C   UNL     1      30.015 -22.219 -15.231  0.00  0.00    +0.000 C 
ATOM     28  C   UNL     1      29.659 -23.858 -16.971  0.00  0.00    +0.000 C 
ATOM     29  C   UNL     1      28.635 -22.103 -15.059  0.00  0.00    +0.000 C 
ATOM     30  C   UNL     1      28.280 -23.742 -16.798  0.00  0.00    +0.000 C 
ATOM     31  C   UNL     1      27.769 -22.864 -15.842  0.00  0.00    +0.000 C 
ENDBRANCH  18  26
ENDBRANCH   2  19
TORSDOF 6
ENDMDL
MODEL 9
REMARK VINA RESULT:      -8.2      2.216      3.923
REMARK  Name = 6323416
REMARK  6 active torsions:
REMARK  status: ('A' for Active; 'I' for Inactive)
REMARK    1  A    between atoms: N_1  and  C_6
REMARK    2  A    between atoms: C_2  and  C_19
REMARK    3  A    between atoms: C_7  and  C_13
REMARK    4  A    between atoms: C_13  and  N_14
REMARK    5  A    between atoms: C_18  and  C_20
REMARK    6  A    between atoms: C_18  and  C_26
REMARK                            x       y       z     vdW  Elec       q    Type
REMARK                         _______ _______ _______ _____ _____    ______ ____
ROOT
ATOM      1  N   UNL     1      32.345 -10.614 -23.385  0.00  0.00    -0.243 NA
ATOM      2  C   UNL     1      33.422  -9.892 -23.406  0.00  0.00    +0.099 C 
ENDROOT
BRANCH   1   6
ATOM      3  N   UNL     1      31.840 -12.547 -20.326  0.00  0.00    -0.153 NA
ATOM      4  N   UNL     1      32.322 -13.776 -20.689  0.00  0.00    -0.153 NA
ATOM      5  C   UNL     1      32.844 -12.950 -22.870  0.00  0.00    +0.017 A 
ATOM      6  C   UNL     1      32.353 -11.701 -22.497  0.00  0.00    +0.092 A 
ATOM      7  C   UNL     1      31.861 -11.543 -21.219  0.00  0.00    +0.076 A 
ATOM      8  C   UNL     1      32.813 -13.988 -21.922  0.00  0.00    +0.083 A 
ATOM      9  C   UNL     1      33.360 -13.185 -24.156  0.00  0.00    +0.055 C 
ATOM     10  C   UNL     1      33.303 -15.237 -22.290  0.00  0.00    +0.073 C 
ATOM     11  C   UNL     1      33.845 -14.444 -24.502  0.00  0.00    -0.025 C 
ATOM     12  C   UNL     1      33.816 -15.472 -23.568  0.00  0.00    -0.024 C 
BRANCH   7  13
ATOM     13  C   UNL     1      31.320 -10.234 -20.752  0.00  0.00    -0.035 C 
BRANCH  13  14
ATOM     14  N   UNL     1      31.114 -10.205 -19.326  0.00  0.00    +0.384 N 
ATOM     15  H   UNL     1      31.365 -11.110 -18.928  0.00  0.00    -0.089 HD
ATOM     16  H   UNL     1      30.134 -10.007 -19.129  0.00  0.00    -0.089 HD
ATOM     17  H   UNL     1      31.697  -9.478 -18.912  0.00  0.00    -0.089 HD
ENDBRANCH  13  14
ENDBRANCH   7  13
ENDBRANCH   1   6
BRANCH   2  19
ATOM     18  C   UNL     1      33.272  -7.441 -23.934  0.00  0.00    +0.002 C 
ATOM     19  C   UNL     1      33.553  -8.711 -24.293  0.00  0.00    +0.021 C 
BRANCH  18  20
ATOM     20  C   UNL     1      32.802  -7.111 -22.569  0.00  0.00    +0.000 C 
ATOM     21  C   UNL     1      33.551  -7.526 -21.483  0.00  0.00    +0.000 C 
ATOM     22  C   UNL     1      31.630  -6.397 -22.417  0.00  0.00    +0.000 C 
ATOM     23  C   UNL     1      33.109  -7.213 -20.198  0.00  0.00    +0.000 C 
ATOM     24  C   UNL     1      31.188  -6.085 -21.131  0.00  0.00    +0.000 C 
ATOM     25  C   UNL     1      31.928  -6.493 -20.021  0.00  0.00    +0.000 C 
ENDBRANCH  18  20
BRANCH  18  26
ATOM     26  C   UNL     1      33.468  -6.390 -24.968  0.00  0.00    +0.000 C 
ATOM     27  C   UNL     1      32.431  -5.524 -25.242  0.00  0.00    +0.000 C 
ATOM     28  C   UNL     1      34.683  -6.316 -25.616  0.00  0.00    +0.000 C 
ATOM     29  C   UNL     1      32.617  -4.537 -26.211  0.00  0.00    +0.000 C 
ATOM     30  C   UNL     1      34.869  -5.329 -26.584  0.00  0.00    +0.000 C 
ATOM     31  C   UNL     1      33.836  -4.440 -26.881  0.00  0.00    +0.000 C 
ENDBRANCH  18  26
ENDBRANCH   2  19
TORSDOF 6
ENDMDL
