MODEL 1
REMARK VINA RESULT:      -5.6      0.000      0.000
REMARK  Name = 785
REMARK  2 active torsions:
REMARK  status: ('A' for Active; 'I' for Inactive)
REMARK    1  A    between atoms: C_1  and  O_7
REMARK    2  A    between atoms: C_2  and  O_9
REMARK                            x       y       z     vdW  Elec       q    Type
REMARK                         _______ _______ _______ _____ _____    ______ ____
ROOT
ATOM      1  C   UNL     1      33.527 -21.358 -19.574  0.00  0.00    +0.134 C 
ATOM      2  C   UNL     1      35.271 -19.650 -20.925  0.00  0.00    +0.134 C 
ATOM      3  C   UNL     1      33.021 -20.300 -20.329  0.00  0.00    +0.040 C 
ATOM      4  C   UNL     1      33.893 -19.446 -21.005  0.00  0.00    +0.040 C 
ATOM      5  C   UNL     1      34.905 -21.562 -19.495  0.00  0.00    +0.040 C 
ATOM      6  C   UNL     1      35.777 -20.708 -20.170  0.00  0.00    +0.040 C 
ENDROOT
BRANCH   1   7
ATOM      7  O   UNL     1      32.676 -22.191 -18.915  0.00  0.00    -0.506 OA
ATOM      8  H   UNL     1      31.869 -22.447 -19.314  0.00  0.00    +0.292 HD
ENDBRANCH   1   7
BRANCH   2   9
ATOM      9  O   UNL     1      36.121 -18.817 -21.585  0.00  0.00    -0.506 OA
ATOM     10  H   UNL     1      35.918 -17.905 -21.663  0.00  0.00    +0.292 HD
ENDBRANCH   2   9
TORSDOF 2
ENDMDL
MODEL 2
REMARK VINA RESULT:      -5.6      0.013      1.708
REMARK  Name = 785
REMARK  2 active torsions:
REMARK  status: ('A' for Active; 'I' for Inactive)
REMARK    1  A    between atoms: C_1  and  O_7
REMARK    2  A    between atoms: C_2  and  O_9
REMARK                            x       y       z     vdW  Elec       q    Type
REMARK                         _______ _______ _______ _____ _____    ______ ____
ROOT
ATOM      1  C   UNL     1      33.535 -21.363 -19.571  0.00  0.00    +0.134 C 
ATOM      2  C   UNL     1      35.283 -19.655 -20.917  0.00  0.00    +0.134 C 
ATOM      3  C   UNL     1      34.912 -21.570 -19.490  0.00  0.00    +0.040 C 
ATOM      4  C   UNL     1      35.786 -20.716 -20.163  0.00  0.00    +0.040 C 
ATOM      5  C   UNL     1      33.032 -20.303 -20.326  0.00  0.00    +0.040 C 
ATOM      6  C   UNL     1      33.906 -19.449 -20.999  0.00  0.00    +0.040 C 
ENDROOT
BRANCH   1   7
ATOM      7  O   UNL     1      32.682 -22.196 -18.915  0.00  0.00    -0.506 OA
ATOM      8  H   UNL     1      32.906 -22.520 -18.065  0.00  0.00    +0.292 HD
ENDBRANCH   1   7
BRANCH   2   9
ATOM      9  O   UNL     1      36.136 -18.822 -21.574  0.00  0.00    -0.506 OA
ATOM     10  H   UNL     1      36.097 -18.753 -22.508  0.00  0.00    +0.292 HD
ENDBRANCH   2   9
TORSDOF 2
ENDMDL
MODEL 3
REMARK VINA RESULT:      -5.6      0.067      3.242
REMARK  Name = 785
REMARK  2 active torsions:
REMARK  status: ('A' for Active; 'I' for Inactive)
REMARK    1  A    between atoms: C_1  and  O_7
REMARK    2  A    between atoms: C_2  and  O_9
REMARK                            x       y       z     vdW  Elec       q    Type
REMARK                         _______ _______ _______ _____ _____    ______ ____
ROOT
ATOM      1  C   UNL     1      35.225 -19.641 -20.966  0.00  0.00    +0.134 C 
ATOM      2  C   UNL     1      33.558 -21.386 -19.566  0.00  0.00    +0.134 C 
ATOM      3  C   UNL     1      33.841 -19.474 -21.016  0.00  0.00    +0.040 C 
ATOM      4  C   UNL     1      33.008 -20.346 -20.316  0.00  0.00    +0.040 C 
ATOM      5  C   UNL     1      35.775 -20.681 -20.216  0.00  0.00    +0.040 C 
ATOM      6  C   UNL     1      34.941 -21.554 -19.516  0.00  0.00    +0.040 C 
ENDROOT
BRANCH   1   7
ATOM      7  O   UNL     1      36.038 -18.790 -21.649  0.00  0.00    -0.506 OA
ATOM      8  H   UNL     1      35.826 -18.543 -22.527  0.00  0.00    +0.292 HD
ENDBRANCH   1   7
BRANCH   2   9
ATOM      9  O   UNL     1      32.744 -22.238 -18.884  0.00  0.00    -0.506 OA
ATOM     10  H   UNL     1      32.409 -23.005 -19.305  0.00  0.00    +0.292 HD
ENDBRANCH   2   9
TORSDOF 2
ENDMDL
MODEL 4
REMARK VINA RESULT:      -5.6      0.083      3.665
REMARK  Name = 785
REMARK  2 active torsions:
REMARK  status: ('A' for Active; 'I' for Inactive)
REMARK    1  A    between atoms: C_1  and  O_7
REMARK    2  A    between atoms: C_2  and  O_9
REMARK                            x       y       z     vdW  Elec       q    Type
REMARK                         _______ _______ _______ _____ _____    ______ ____
ROOT
ATOM      1  C   UNL     1      35.201 -19.637 -20.997  0.00  0.00    +0.134 C 
ATOM      2  C   UNL     1      33.528 -21.354 -19.570  0.00  0.00    +0.134 C 
ATOM      3  C   UNL     1      35.746 -20.685 -20.256  0.00  0.00    +0.040 C 
ATOM      4  C   UNL     1      34.910 -21.544 -19.543  0.00  0.00    +0.040 C 
ATOM      5  C   UNL     1      33.819 -19.447 -21.024  0.00  0.00    +0.040 C 
ATOM      6  C   UNL     1      32.983 -20.306 -20.311  0.00  0.00    +0.040 C 
ENDROOT
BRANCH   1   7
ATOM      7  O   UNL     1      36.018 -18.799 -21.692  0.00  0.00    -0.506 OA
ATOM      8  H   UNL     1      35.697 -17.970 -21.986  0.00  0.00    +0.292 HD
ENDBRANCH   1   7
BRANCH   2   9
ATOM      9  O   UNL     1      32.711 -22.192 -18.875  0.00  0.00    -0.506 OA
ATOM     10  H   UNL     1      32.823 -22.295 -17.949  0.00  0.00    +0.292 HD
ENDBRANCH   2   9
TORSDOF 2
ENDMDL
MODEL 5
REMARK VINA RESULT:      -5.3      1.106      2.009
REMARK  Name = 785
REMARK  2 active torsions:
REMARK  status: ('A' for Active; 'I' for Inactive)
REMARK    1  A    between atoms: C_1  and  O_7
REMARK    2  A    between atoms: C_2  and  O_9
REMARK                            x       y       z     vdW  Elec       q    Type
REMARK                         _______ _______ _______ _____ _____    ______ ____
ROOT
ATOM      1  C   UNL     1      34.659 -21.703 -19.355  0.00  0.00    +0.134 C 
ATOM      2  C   UNL     1      34.376 -19.508 -21.053  0.00  0.00    +0.134 C 
ATOM      3  C   UNL     1      35.789 -21.090 -19.895  0.00  0.00    +0.040 C 
ATOM      4  C   UNL     1      35.648 -19.992 -20.744  0.00  0.00    +0.040 C 
ATOM      5  C   UNL     1      33.388 -21.219 -19.663  0.00  0.00    +0.040 C 
ATOM      6  C   UNL     1      33.246 -20.121 -20.512  0.00  0.00    +0.040 C 
ENDROOT
BRANCH   1   7
ATOM      7  O   UNL     1      34.797 -22.774 -18.526  0.00  0.00    -0.506 OA
ATOM      8  H   UNL     1      34.150 -23.450 -18.524  0.00  0.00    +0.292 HD
ENDBRANCH   1   7
BRANCH   2   9
ATOM      9  O   UNL     1      34.238 -18.437 -21.882  0.00  0.00    -0.506 OA
ATOM     10  H   UNL     1      34.502 -17.584 -21.594  0.00  0.00    +0.292 HD
ENDBRANCH   2   9
TORSDOF 2
ENDMDL
MODEL 6
REMARK VINA RESULT:      -5.2      3.628      5.289
REMARK  Name = 785
REMARK  2 active torsions:
REMARK  status: ('A' for Active; 'I' for Inactive)
REMARK    1  A    between atoms: C_1  and  O_7
REMARK    2  A    between atoms: C_2  and  O_9
REMARK                            x       y       z     vdW  Elec       q    Type
REMARK                         _______ _______ _______ _____ _____    ______ ____
ROOT
ATOM      1  C   UNL     1      34.751 -17.077 -24.650  0.00  0.00    +0.134 C 
ATOM      2  C   UNL     1      35.221 -17.809 -21.999  0.00  0.00    +0.134 C 
ATOM      3  C   UNL     1      34.845 -16.096 -23.662  0.00  0.00    +0.040 C 
ATOM      4  C   UNL     1      35.080 -16.462 -22.337  0.00  0.00    +0.040 C 
ATOM      5  C   UNL     1      34.892 -18.423 -24.312  0.00  0.00    +0.040 C 
ATOM      6  C   UNL     1      35.127 -18.789 -22.986  0.00  0.00    +0.040 C 
ENDROOT
BRANCH   1   7
ATOM      7  O   UNL     1      34.522 -16.719 -25.943  0.00  0.00    -0.506 OA
ATOM      8  H   UNL     1      34.248 -15.847 -26.146  0.00  0.00    +0.292 HD
ENDBRANCH   1   7
BRANCH   2   9
ATOM      9  O   UNL     1      35.450 -18.166 -20.706  0.00  0.00    -0.506 OA
ATOM     10  H   UNL     1      34.937 -18.843 -20.308  0.00  0.00    +0.292 HD
ENDBRANCH   2   9
TORSDOF 2
ENDMDL
MODEL 7
REMARK VINA RESULT:      -5.2      3.447      4.593
REMARK  Name = 785
REMARK  2 active torsions:
REMARK  status: ('A' for Active; 'I' for Inactive)
REMARK    1  A    between atoms: C_1  and  O_7
REMARK    2  A    between atoms: C_2  and  O_9
REMARK                            x       y       z     vdW  Elec       q    Type
REMARK                         _______ _______ _______ _____ _____    ______ ____
ROOT
ATOM      1  C   UNL     1      35.126 -18.073 -21.992  0.00  0.00    +0.134 C 
ATOM      2  C   UNL     1      34.776 -17.209 -24.622  0.00  0.00    +0.134 C 
ATOM      3  C   UNL     1      35.127 -16.709 -22.284  0.00  0.00    +0.040 C 
ATOM      4  C   UNL     1      34.952 -16.277 -23.598  0.00  0.00    +0.040 C 
ATOM      5  C   UNL     1      34.950 -19.005 -23.015  0.00  0.00    +0.040 C 
ATOM      6  C   UNL     1      34.775 -18.573 -24.330  0.00  0.00    +0.040 C 
ENDROOT
BRANCH   1   7
ATOM      7  O   UNL     1      35.297 -18.494 -20.709  0.00  0.00    -0.506 OA
ATOM      8  H   UNL     1      35.151 -17.901 -19.998  0.00  0.00    +0.292 HD
ENDBRANCH   1   7
BRANCH   2   9
ATOM      9  O   UNL     1      34.605 -16.788 -25.904  0.00  0.00    -0.506 OA
ATOM     10  H   UNL     1      33.979 -16.118 -26.099  0.00  0.00    +0.292 HD
ENDBRANCH   2   9
TORSDOF 2
ENDMDL
MODEL 8
REMARK VINA RESULT:      -5.2      3.634      4.884
REMARK  Name = 785
REMARK  2 active torsions:
REMARK  status: ('A' for Active; 'I' for Inactive)
REMARK    1  A    between atoms: C_1  and  O_7
REMARK    2  A    between atoms: C_2  and  O_9
REMARK                            x       y       z     vdW  Elec       q    Type
REMARK                         _______ _______ _______ _____ _____    ______ ____
ROOT
ATOM      1  C   UNL     1      35.236 -17.771 -21.974  0.00  0.00    +0.134 C 
ATOM      2  C   UNL     1      34.763 -17.083 -24.636  0.00  0.00    +0.134 C 
ATOM      3  C   UNL     1      35.153 -18.767 -22.947  0.00  0.00    +0.040 C 
ATOM      4  C   UNL     1      34.916 -18.423 -24.278  0.00  0.00    +0.040 C 
ATOM      5  C   UNL     1      35.083 -16.431 -22.332  0.00  0.00    +0.040 C 
ATOM      6  C   UNL     1      34.846 -16.087 -23.663  0.00  0.00    +0.040 C 
ENDROOT
BRANCH   1   7
ATOM      7  O   UNL     1      35.467 -18.107 -20.675  0.00  0.00    -0.506 OA
ATOM      8  H   UNL     1      35.800 -18.956 -20.463  0.00  0.00    +0.292 HD
ENDBRANCH   1   7
BRANCH   2   9
ATOM      9  O   UNL     1      34.532 -16.748 -25.935  0.00  0.00    -0.506 OA
ATOM     10  H   UNL     1      34.139 -15.922 -26.143  0.00  0.00    +0.292 HD
ENDBRANCH   2   9
TORSDOF 2
ENDMDL
MODEL 9
REMARK VINA RESULT:      -5.2      3.690      5.445
REMARK  Name = 785
REMARK  2 active torsions:
REMARK  status: ('A' for Active; 'I' for Inactive)
REMARK    1  A    between atoms: C_1  and  O_7
REMARK    2  A    between atoms: C_2  and  O_9
REMARK                            x       y       z     vdW  Elec       q    Type
REMARK                         _______ _______ _______ _____ _____    ______ ____
ROOT
ATOM      1  C   UNL     1      34.745 -16.992 -24.620  0.00  0.00    +0.134 C 
ATOM      2  C   UNL     1      35.236 -17.697 -21.966  0.00  0.00    +0.134 C 
ATOM      3  C   UNL     1      34.957 -18.328 -24.282  0.00  0.00    +0.040 C 
ATOM      4  C   UNL     1      35.202 -18.681 -22.955  0.00  0.00    +0.040 C 
ATOM      5  C   UNL     1      34.779 -16.008 -23.631  0.00  0.00    +0.040 C 
ATOM      6  C   UNL     1      35.024 -16.361 -22.304  0.00  0.00    +0.040 C 
ENDROOT
BRANCH   1   7
ATOM      7  O   UNL     1      34.506 -16.647 -25.915  0.00  0.00    -0.506 OA
ATOM      8  H   UNL     1      33.655 -16.353 -26.171  0.00  0.00    +0.292 HD
ENDBRANCH   1   7
BRANCH   2   9
ATOM      9  O   UNL     1      35.475 -18.041 -20.671  0.00  0.00    -0.506 OA
ATOM     10  H   UNL     1      34.975 -18.724 -20.267  0.00  0.00    +0.292 HD
ENDBRANCH   2   9
TORSDOF 2
ENDMDL
