MODEL 1
REMARK VINA RESULT:      -7.9      0.000      0.000
REMARK  Name = 6854
REMARK  0 active torsions:
REMARK  status: ('A' for Active; 'I' for Inactive)
REMARK                            x       y       z     vdW  Elec       q    Type
REMARK                         _______ _______ _______ _____ _____    ______ ____
ROOT
ATOM      1  N   UNL     1      34.207 -17.304 -25.096  0.00  0.00    -0.353 N 
ATOM      2  C   UNL     1      34.598 -16.566 -23.028  0.00  0.00    +0.017 A 
ATOM      3  C   UNL     1      34.107 -15.478 -23.820  0.00  0.00    +0.017 A 
ATOM      4  C   UNL     1      34.648 -17.690 -23.853  0.00  0.00    +0.057 A 
ATOM      5  C   UNL     1      33.873 -15.970 -25.105  0.00  0.00    +0.057 A 
ATOM      6  C   UNL     1      35.003 -16.696 -21.684  0.00  0.00    +0.001 C 
ATOM      7  C   UNL     1      33.841 -14.118 -23.561  0.00  0.00    +0.001 C 
ATOM      8  C   UNL     1      35.085 -18.940 -23.401  0.00  0.00    +0.017 C 
ATOM      9  C   UNL     1      33.386 -15.171 -26.144  0.00  0.00    +0.017 C 
ATOM     10  C   UNL     1      35.442 -17.939 -21.217  0.00  0.00    +0.000 C 
ATOM     11  C   UNL     1      33.353 -13.305 -24.590  0.00  0.00    +0.000 C 
ATOM     12  C   UNL     1      35.483 -19.044 -22.065  0.00  0.00    +0.001 C 
ATOM     13  C   UNL     1      33.130 -13.826 -25.863  0.00  0.00    +0.001 C 
ATOM     14  H   UNL     1      34.138 -17.902 -25.876  0.00  0.00    +0.166 HD
ENDROOT
TORSDOF 0
ENDMDL
MODEL 2
REMARK VINA RESULT:      -7.9      0.006      4.433
REMARK  Name = 6854
REMARK  0 active torsions:
REMARK  status: ('A' for Active; 'I' for Inactive)
REMARK                            x       y       z     vdW  Elec       q    Type
REMARK                         _______ _______ _______ _____ _____    ______ ____
ROOT
ATOM      1  N   UNL     1      34.208 -17.299 -25.100  0.00  0.00    -0.353 N 
ATOM      2  C   UNL     1      34.107 -15.474 -23.824  0.00  0.00    +0.017 A 
ATOM      3  C   UNL     1      34.597 -16.562 -23.032  0.00  0.00    +0.017 A 
ATOM      4  C   UNL     1      33.873 -15.966 -25.108  0.00  0.00    +0.057 A 
ATOM      5  C   UNL     1      34.648 -17.686 -23.857  0.00  0.00    +0.057 A 
ATOM      6  C   UNL     1      33.840 -14.114 -23.564  0.00  0.00    +0.001 C 
ATOM      7  C   UNL     1      35.002 -16.692 -21.688  0.00  0.00    +0.001 C 
ATOM      8  C   UNL     1      33.386 -15.166 -26.148  0.00  0.00    +0.017 C 
ATOM      9  C   UNL     1      35.085 -18.936 -23.405  0.00  0.00    +0.017 C 
ATOM     10  C   UNL     1      33.352 -13.301 -24.593  0.00  0.00    +0.000 C 
ATOM     11  C   UNL     1      35.441 -17.936 -21.221  0.00  0.00    +0.000 C 
ATOM     12  C   UNL     1      33.128 -13.821 -25.866  0.00  0.00    +0.001 C 
ATOM     13  C   UNL     1      35.480 -19.041 -22.068  0.00  0.00    +0.001 C 
ATOM     14  H   UNL     1      34.141 -17.897 -25.881  0.00  0.00    +0.166 HD
ENDROOT
TORSDOF 0
ENDMDL
MODEL 3
REMARK VINA RESULT:      -7.8      3.815      7.177
REMARK  Name = 6854
REMARK  0 active torsions:
REMARK  status: ('A' for Active; 'I' for Inactive)
REMARK                            x       y       z     vdW  Elec       q    Type
REMARK                         _______ _______ _______ _____ _____    ______ ____
ROOT
ATOM      1  N   UNL     1      36.692 -20.343 -19.750  0.00  0.00    -0.353 N 
ATOM      2  C   UNL     1      34.821 -19.997 -20.914  0.00  0.00    +0.017 A 
ATOM      3  C   UNL     1      34.553 -20.958 -19.887  0.00  0.00    +0.017 A 
ATOM      4  C   UNL     1      36.164 -19.633 -20.802  0.00  0.00    +0.057 A 
ATOM      5  C   UNL     1      35.739 -21.153 -19.179  0.00  0.00    +0.057 A 
ATOM      6  C   UNL     1      34.044 -19.403 -21.930  0.00  0.00    +0.001 C 
ATOM      7  C   UNL     1      33.407 -21.681 -19.496  0.00  0.00    +0.001 C 
ATOM      8  C   UNL     1      36.769 -18.704 -21.655  0.00  0.00    +0.017 C 
ATOM      9  C   UNL     1      35.838 -22.035 -18.097  0.00  0.00    +0.017 C 
ATOM     10  C   UNL     1      34.635 -18.472 -22.790  0.00  0.00    +0.000 C 
ATOM     11  C   UNL     1      33.490 -22.567 -18.417  0.00  0.00    +0.000 C 
ATOM     12  C   UNL     1      35.979 -18.129 -22.655  0.00  0.00    +0.001 C 
ATOM     13  C   UNL     1      34.689 -22.741 -17.729  0.00  0.00    +0.001 C 
ATOM     14  H   UNL     1      37.627 -20.280 -19.446  0.00  0.00    +0.166 HD
ENDROOT
TORSDOF 0
ENDMDL
MODEL 4
REMARK VINA RESULT:      -7.8      3.794      5.883
REMARK  Name = 6854
REMARK  0 active torsions:
REMARK  status: ('A' for Active; 'I' for Inactive)
REMARK                            x       y       z     vdW  Elec       q    Type
REMARK                         _______ _______ _______ _____ _____    ______ ____
ROOT
ATOM      1  N   UNL     1      36.704 -20.327 -19.786  0.00  0.00    -0.353 N 
ATOM      2  C   UNL     1      34.561 -20.934 -19.900  0.00  0.00    +0.017 A 
ATOM      3  C   UNL     1      34.822 -19.973 -20.930  0.00  0.00    +0.017 A 
ATOM      4  C   UNL     1      35.754 -21.133 -19.205  0.00  0.00    +0.057 A 
ATOM      5  C   UNL     1      36.167 -19.614 -20.832  0.00  0.00    +0.057 A 
ATOM      6  C   UNL     1      33.417 -21.653 -19.497  0.00  0.00    +0.001 C 
ATOM      7  C   UNL     1      34.036 -19.376 -21.936  0.00  0.00    +0.001 C 
ATOM      8  C   UNL     1      35.862 -22.016 -18.125  0.00  0.00    +0.017 C 
ATOM      9  C   UNL     1      36.766 -18.687 -21.692  0.00  0.00    +0.017 C 
ATOM     10  C   UNL     1      33.508 -22.539 -18.418  0.00  0.00    +0.000 C 
ATOM     11  C   UNL     1      34.621 -18.447 -22.803  0.00  0.00    +0.000 C 
ATOM     12  C   UNL     1      34.714 -22.716 -17.742  0.00  0.00    +0.001 C 
ATOM     13  C   UNL     1      35.966 -18.108 -22.681  0.00  0.00    +0.001 C 
ATOM     14  H   UNL     1      37.642 -20.269 -19.494  0.00  0.00    +0.166 HD
ENDROOT
TORSDOF 0
ENDMDL
MODEL 5
REMARK VINA RESULT:      -7.8      1.841      2.539
REMARK  Name = 6854
REMARK  0 active torsions:
REMARK  status: ('A' for Active; 'I' for Inactive)
REMARK                            x       y       z     vdW  Elec       q    Type
REMARK                         _______ _______ _______ _____ _____    ______ ____
ROOT
ATOM      1  N   UNL     1      33.714 -15.344 -24.034  0.00  0.00    -0.353 N 
ATOM      2  C   UNL     1      34.225 -16.423 -22.151  0.00  0.00    +0.017 A 
ATOM      3  C   UNL     1      33.500 -15.234 -21.817  0.00  0.00    +0.017 A 
ATOM      4  C   UNL     1      34.342 -16.463 -23.541  0.00  0.00    +0.057 A 
ATOM      5  C   UNL     1      33.196 -14.583 -23.014  0.00  0.00    +0.057 A 
ATOM      6  C   UNL     1      34.793 -17.470 -21.396  0.00  0.00    +0.001 C 
ATOM      7  C   UNL     1      33.075 -14.652 -20.605  0.00  0.00    +0.001 C 
ATOM      8  C   UNL     1      34.999 -17.498 -24.215  0.00  0.00    +0.017 C 
ATOM      9  C   UNL     1      32.487 -13.378 -23.059  0.00  0.00    +0.017 C 
ATOM     10  C   UNL     1      35.453 -18.512 -22.056  0.00  0.00    +0.000 C 
ATOM     11  C   UNL     1      32.365 -13.448 -20.635  0.00  0.00    +0.000 C 
ATOM     12  C   UNL     1      35.555 -18.524 -23.446  0.00  0.00    +0.001 C 
ATOM     13  C   UNL     1      32.076 -12.820 -21.845  0.00  0.00    +0.001 C 
ATOM     14  H   UNL     1      33.644 -15.118 -24.991  0.00  0.00    +0.166 HD
ENDROOT
TORSDOF 0
ENDMDL
MODEL 6
REMARK VINA RESULT:      -7.8      1.850      4.430
REMARK  Name = 6854
REMARK  0 active torsions:
REMARK  status: ('A' for Active; 'I' for Inactive)
REMARK                            x       y       z     vdW  Elec       q    Type
REMARK                         _______ _______ _______ _____ _____    ______ ____
ROOT
ATOM      1  N   UNL     1      33.691 -15.337 -24.033  0.00  0.00    -0.353 N 
ATOM      2  C   UNL     1      33.497 -15.247 -21.813  0.00  0.00    +0.017 A 
ATOM      3  C   UNL     1      34.227 -16.428 -22.163  0.00  0.00    +0.017 A 
ATOM      4  C   UNL     1      33.177 -14.588 -23.001  0.00  0.00    +0.057 A 
ATOM      5  C   UNL     1      34.332 -16.455 -23.555  0.00  0.00    +0.057 A 
ATOM      6  C   UNL     1      33.078 -14.678 -20.593  0.00  0.00    +0.001 C 
ATOM      7  C   UNL     1      34.809 -17.477 -21.422  0.00  0.00    +0.001 C 
ATOM      8  C   UNL     1      32.459 -13.387 -23.031  0.00  0.00    +0.017 C 
ATOM      9  C   UNL     1      34.990 -17.480 -24.243  0.00  0.00    +0.017 C 
ATOM     10  C   UNL     1      32.359 -13.478 -20.606  0.00  0.00    +0.000 C 
ATOM     11  C   UNL     1      35.470 -18.509 -22.097  0.00  0.00    +0.000 C 
ATOM     12  C   UNL     1      32.054 -12.843 -21.808  0.00  0.00    +0.001 C 
ATOM     13  C   UNL     1      35.558 -18.509 -23.487  0.00  0.00    +0.001 C 
ATOM     14  H   UNL     1      33.613 -15.103 -24.987  0.00  0.00    +0.166 HD
ENDROOT
TORSDOF 0
ENDMDL
MODEL 7
REMARK VINA RESULT:      -7.7      1.091      4.896
REMARK  Name = 6854
REMARK  0 active torsions:
REMARK  status: ('A' for Active; 'I' for Inactive)
REMARK                            x       y       z     vdW  Elec       q    Type
REMARK                         _______ _______ _______ _____ _____    ______ ____
ROOT
ATOM      1  N   UNL     1      34.700 -15.347 -22.586  0.00  0.00    -0.353 N 
ATOM      2  C   UNL     1      33.973 -15.688 -24.667  0.00  0.00    +0.017 A 
ATOM      3  C   UNL     1      34.417 -16.937 -24.125  0.00  0.00    +0.017 A 
ATOM      4  C   UNL     1      34.163 -14.716 -23.683  0.00  0.00    +0.057 A 
ATOM      5  C   UNL     1      34.865 -16.691 -22.826  0.00  0.00    +0.057 A 
ATOM      6  C   UNL     1      33.427 -15.295 -25.906  0.00  0.00    +0.001 C 
ATOM      7  C   UNL     1      34.480 -18.255 -24.621  0.00  0.00    +0.001 C 
ATOM      8  C   UNL     1      33.833 -13.370 -23.876  0.00  0.00    +0.017 C 
ATOM      9  C   UNL     1      35.372 -17.698 -21.997  0.00  0.00    +0.017 C 
ATOM     10  C   UNL     1      33.092 -13.953 -26.114  0.00  0.00    +0.000 C 
ATOM     11  C   UNL     1      34.984 -19.273 -23.805  0.00  0.00    +0.000 C 
ATOM     12  C   UNL     1      33.294 -13.005 -25.113  0.00  0.00    +0.001 C 
ATOM     13  C   UNL     1      35.424 -18.996 -22.512  0.00  0.00    +0.001 C 
ATOM     14  H   UNL     1      34.934 -14.897 -21.742  0.00  0.00    +0.166 HD
ENDROOT
TORSDOF 0
ENDMDL
MODEL 8
REMARK VINA RESULT:      -7.7      1.087      2.178
REMARK  Name = 6854
REMARK  0 active torsions:
REMARK  status: ('A' for Active; 'I' for Inactive)
REMARK                            x       y       z     vdW  Elec       q    Type
REMARK                         _______ _______ _______ _____ _____    ______ ____
ROOT
ATOM      1  N   UNL     1      34.657 -15.383 -22.539  0.00  0.00    -0.353 N 
ATOM      2  C   UNL     1      34.425 -16.961 -24.098  0.00  0.00    +0.017 A 
ATOM      3  C   UNL     1      33.983 -15.711 -24.639  0.00  0.00    +0.017 A 
ATOM      4  C   UNL     1      34.839 -16.723 -22.787  0.00  0.00    +0.057 A 
ATOM      5  C   UNL     1      34.141 -14.747 -23.643  0.00  0.00    +0.057 A 
ATOM      6  C   UNL     1      34.510 -18.274 -24.604  0.00  0.00    +0.001 C 
ATOM      7  C   UNL     1      33.463 -15.311 -25.888  0.00  0.00    +0.001 C 
ATOM      8  C   UNL     1      35.335 -17.733 -21.955  0.00  0.00    +0.017 C 
ATOM      9  C   UNL     1      33.805 -13.402 -23.832  0.00  0.00    +0.017 C 
ATOM     10  C   UNL     1      35.003 -19.295 -23.785  0.00  0.00    +0.000 C 
ATOM     11  C   UNL     1      33.122 -13.970 -26.092  0.00  0.00    +0.000 C 
ATOM     12  C   UNL     1      35.408 -19.027 -22.479  0.00  0.00    +0.001 C 
ATOM     13  C   UNL     1      33.290 -13.030 -25.077  0.00  0.00    +0.001 C 
ATOM     14  H   UNL     1      34.870 -14.939 -21.686  0.00  0.00    +0.166 HD
ENDROOT
TORSDOF 0
ENDMDL
MODEL 9
REMARK VINA RESULT:      -7.6      6.860      8.705
REMARK  Name = 6854
REMARK  0 active torsions:
REMARK  status: ('A' for Active; 'I' for Inactive)
REMARK                            x       y       z     vdW  Elec       q    Type
REMARK                         _______ _______ _______ _____ _____    ______ ____
ROOT
ATOM      1  N   UNL     1      32.136  -7.882 -20.059  0.00  0.00    -0.353 N 
ATOM      2  C   UNL     1      31.640  -9.513 -21.498  0.00  0.00    +0.017 A 
ATOM      3  C   UNL     1      31.680  -8.270 -22.208  0.00  0.00    +0.017 A 
ATOM      4  C   UNL     1      31.928  -9.237 -20.160  0.00  0.00    +0.057 A 
ATOM      5  C   UNL     1      31.992  -7.272 -21.283  0.00  0.00    +0.057 A 
ATOM      6  C   UNL     1      31.384 -10.848 -21.871  0.00  0.00    +0.001 C 
ATOM      7  C   UNL     1      31.479  -7.902 -23.554  0.00  0.00    +0.001 C 
ATOM      8  C   UNL     1      31.974 -10.231 -19.176  0.00  0.00    +0.017 C 
ATOM      9  C   UNL     1      32.114  -5.924 -21.637  0.00  0.00    +0.017 C 
ATOM     10  C   UNL     1      31.425 -11.853 -20.899  0.00  0.00    +0.000 C 
ATOM     11  C   UNL     1      31.598  -6.558 -23.924  0.00  0.00    +0.000 C 
ATOM     12  C   UNL     1      31.716 -11.547 -19.571  0.00  0.00    +0.001 C 
ATOM     13  C   UNL     1      31.909  -5.584 -22.978  0.00  0.00    +0.001 C 
ATOM     14  H   UNL     1      32.359  -7.411 -19.223  0.00  0.00    +0.166 HD
ENDROOT
TORSDOF 0
ENDMDL
