MODEL 1
REMARK VINA RESULT:      -9.7      0.000      0.000
REMARK  Name = 17753791
REMARK  8 active torsions:
REMARK  status: ('A' for Active; 'I' for Inactive)
REMARK    1  A    between atoms: C_2  and  O_18
REMARK    2  A    between atoms: C_3  and  O_20
REMARK    3  A    between atoms: C_4  and  N_6
REMARK    4  A    between atoms: C_5  and  C_22
REMARK    5  A    between atoms: C_22  and  O_23
REMARK    6  A    between atoms: O_23  and  S_24
REMARK    7  A    between atoms: S_24  and  N_27
REMARK    8  A    between atoms: N_27  and  C_29
REMARK                            x       y       z     vdW  Elec       q    Type
REMARK                         _______ _______ _______ _____ _____    ______ ____
ROOT
ATOM      1  O   UNL     1      31.969 -25.522 -14.515  0.00  0.00    -0.333 OA
ATOM      2  C   UNL     1      31.701 -23.349 -13.613  0.00  0.00    +0.187 C 
ATOM      3  C   UNL     1      30.401 -24.104 -13.421  0.00  0.00    +0.171 C 
ATOM      4  C   UNL     1      32.687 -24.490 -13.812  0.00  0.00    +0.225 C 
ATOM      5  C   UNL     1      30.552 -25.263 -14.402  0.00  0.00    +0.178 C 
ENDROOT
BRANCH   4   6
ATOM      6  N   UNL     1      33.882 -24.119 -14.566  0.00  0.00    -0.247 N 
ATOM      7  N   UNL     1      35.139 -23.432 -16.274  0.00  0.00    -0.242 NA
ATOM      8  N   UNL     1      35.610 -24.477 -12.895  0.00  0.00    -0.228 NA
ATOM      9  N   UNL     1      37.822 -23.954 -13.783  0.00  0.00    -0.229 NA
ATOM     10  C   UNL     1      35.171 -24.128 -14.115  0.00  0.00    +0.152 C 
ATOM     11  C   UNL     1      33.915 -23.694 -15.868  0.00  0.00    +0.223 C 
ATOM     12  C   UNL     1      35.935 -23.699 -15.189  0.00  0.00    +0.140 C 
ATOM     13  C   UNL     1      37.310 -23.617 -14.990  0.00  0.00    +0.143 C 
ATOM     14  C   UNL     1      36.954 -24.357 -12.825  0.00  0.00    +0.253 C 
ATOM     15  N   UNL     1      38.160 -23.189 -16.025  0.00  0.00    -0.342 N 
ATOM     16  H   UNL     1      39.131 -23.134 -15.873  0.00  0.00    +0.144 HD
ATOM     17  H   UNL     1      37.784 -22.944 -16.901  0.00  0.00    +0.144 HD
ENDBRANCH   4   6
BRANCH   2  18
ATOM     18  O   UNL     1      32.042 -22.546 -12.501  0.00  0.00    -0.378 OA
ATOM     19  H   UNL     1      32.348 -21.678 -12.810  0.00  0.00    +0.211 HD
ENDBRANCH   2  18
BRANCH   3  20
ATOM     20  O   UNL     1      30.345 -24.628 -12.095  0.00  0.00    -0.379 OA
ATOM     21  H   UNL     1      29.797 -25.429 -12.086  0.00  0.00    +0.211 HD
ENDBRANCH   3  20
BRANCH   5  22
ATOM     22  C   UNL     1      30.009 -24.942 -15.788  0.00  0.00    +0.206 C 
BRANCH  22  23
ATOM     23  O   UNL     1      28.818 -24.188 -15.645  0.00  0.00    -0.227 OA
BRANCH  23  24
ATOM     24  S   UNL     1      28.412 -23.081 -16.782  0.00  0.00    +0.049 S 
ATOM     25  O   UNL     1      27.595 -23.738 -17.787  0.00  0.00    -0.056 OA
ATOM     26  O   UNL     1      29.630 -22.400 -17.181  0.00  0.00    -0.056 OA
BRANCH  24  27
ATOM     27  N   UNL     1      27.412 -21.957 -15.945  0.00  0.00    -0.180 NA
ATOM     28  H   UNL     1      27.851 -21.040 -16.023  0.00  0.00    +0.149 HD
BRANCH  27  29
ATOM     29  C   UNL     1      26.015 -21.818 -16.403  0.00  0.00    +0.092 C 
ATOM     30  C   UNL     1      25.973 -20.998 -17.676  0.00  0.00    +0.020 C 
ENDBRANCH  27  29
ENDBRANCH  24  27
ENDBRANCH  23  24
ENDBRANCH  22  23
ENDBRANCH   5  22
TORSDOF 8
ENDMDL
MODEL 2
REMARK VINA RESULT:      -9.4      8.962     10.593
REMARK  Name = 17753791
REMARK  8 active torsions:
REMARK  status: ('A' for Active; 'I' for Inactive)
REMARK    1  A    between atoms: C_2  and  O_18
REMARK    2  A    between atoms: C_3  and  O_20
REMARK    3  A    between atoms: C_4  and  N_6
REMARK    4  A    between atoms: C_5  and  C_22
REMARK    5  A    between atoms: C_22  and  O_23
REMARK    6  A    between atoms: O_23  and  S_24
REMARK    7  A    between atoms: S_24  and  N_27
REMARK    8  A    between atoms: N_27  and  C_29
REMARK                            x       y       z     vdW  Elec       q    Type
REMARK                         _______ _______ _______ _____ _____    ______ ____
ROOT
ATOM      1  O   UNL     1      34.855 -17.168 -20.781  0.00  0.00    -0.333 OA
ATOM      2  C   UNL     1      34.236 -17.999 -22.911  0.00  0.00    +0.187 C 
ATOM      3  C   UNL     1      34.631 -16.543 -23.067  0.00  0.00    +0.171 C 
ATOM      4  C   UNL     1      34.910 -18.356 -21.595  0.00  0.00    +0.225 C 
ATOM      5  C   UNL     1      34.568 -16.034 -21.630  0.00  0.00    +0.178 C 
ENDROOT
BRANCH   4   6
ATOM      6  N   UNL     1      34.283 -19.469 -20.888  0.00  0.00    -0.247 N 
ATOM      7  N   UNL     1      32.684 -20.849 -20.174  0.00  0.00    -0.242 NA
ATOM      8  N   UNL     1      36.207 -20.449 -19.773  0.00  0.00    -0.228 NA
ATOM      9  N   UNL     1      35.567 -22.394 -18.447  0.00  0.00    -0.229 NA
ATOM     10  C   UNL     1      34.903 -20.382 -20.082  0.00  0.00    +0.152 C 
ATOM     11  C   UNL     1      32.952 -19.792 -20.911  0.00  0.00    +0.223 C 
ATOM     12  C   UNL     1      33.895 -21.229 -19.651  0.00  0.00    +0.140 C 
ATOM     13  C   UNL     1      34.266 -22.267 -18.802  0.00  0.00    +0.143 C 
ATOM     14  C   UNL     1      36.443 -21.492 -18.947  0.00  0.00    +0.253 C 
ATOM     15  N   UNL     1      33.308 -23.174 -18.317  0.00  0.00    -0.342 N 
ATOM     16  H   UNL     1      33.582 -23.906 -17.717  0.00  0.00    +0.144 HD
ATOM     17  H   UNL     1      32.363 -23.080 -18.577  0.00  0.00    +0.144 HD
ENDBRANCH   4   6
BRANCH   2  18
ATOM     18  O   UNL     1      34.691 -18.811 -23.974  0.00  0.00    -0.378 OA
ATOM     19  H   UNL     1      34.042 -19.511 -24.147  0.00  0.00    +0.211 HD
ENDBRANCH   2  18
BRANCH   3  20
ATOM     20  O   UNL     1      35.980 -16.462 -23.525  0.00  0.00    -0.379 OA
ATOM     21  H   UNL     1      36.073 -16.963 -24.351  0.00  0.00    +0.211 HD
ENDBRANCH   3  20
BRANCH   5  22
ATOM     22  C   UNL     1      33.198 -15.487 -21.254  0.00  0.00    +0.206 C 
BRANCH  22  23
ATOM     23  O   UNL     1      33.248 -14.071 -21.300  0.00  0.00    -0.227 OA
BRANCH  23  24
ATOM     24  S   UNL     1      32.680 -13.277 -22.615  0.00  0.00    +0.049 S 
ATOM     25  O   UNL     1      31.916 -12.128 -22.161  0.00  0.00    -0.056 OA
ATOM     26  O   UNL     1      32.051 -14.260 -23.479  0.00  0.00    -0.056 OA
BRANCH  24  27
ATOM     27  N   UNL     1      34.093 -12.690 -23.403  0.00  0.00    -0.180 NA
ATOM     28  H   UNL     1      34.641 -13.501 -23.693  0.00  0.00    +0.149 HD
BRANCH  27  29
ATOM     29  C   UNL     1      33.904 -11.836 -24.592  0.00  0.00    +0.092 C 
ATOM     30  C   UNL     1      34.240 -10.399 -24.248  0.00  0.00    +0.020 C 
ENDBRANCH  27  29
ENDBRANCH  24  27
ENDBRANCH  23  24
ENDBRANCH  22  23
ENDBRANCH   5  22
TORSDOF 8
ENDMDL
MODEL 3
REMARK VINA RESULT:      -9.2      4.603      7.774
REMARK  Name = 17753791
REMARK  8 active torsions:
REMARK  status: ('A' for Active; 'I' for Inactive)
REMARK    1  A    between atoms: C_2  and  O_18
REMARK    2  A    between atoms: C_3  and  O_20
REMARK    3  A    between atoms: C_4  and  N_6
REMARK    4  A    between atoms: C_5  and  C_22
REMARK    5  A    between atoms: C_22  and  O_23
REMARK    6  A    between atoms: O_23  and  S_24
REMARK    7  A    between atoms: S_24  and  N_27
REMARK    8  A    between atoms: N_27  and  C_29
REMARK                            x       y       z     vdW  Elec       q    Type
REMARK                         _______ _______ _______ _____ _____    ______ ____
ROOT
ATOM      1  O   UNL     1      37.340 -23.256 -12.754  0.00  0.00    -0.333 OA
ATOM      2  C   UNL     1      35.547 -24.765 -12.407  0.00  0.00    +0.187 C 
ATOM      3  C   UNL     1      36.468 -24.841 -11.205  0.00  0.00    +0.171 C 
ATOM      4  C   UNL     1      35.928 -23.415 -12.995  0.00  0.00    +0.225 C 
ATOM      5  C   UNL     1      37.747 -24.199 -11.736  0.00  0.00    +0.178 C 
ENDROOT
BRANCH   4   6
ATOM      6  N   UNL     1      35.655 -23.290 -14.425  0.00  0.00    -0.247 N 
ATOM      7  N   UNL     1      36.041 -23.040 -16.606  0.00  0.00    -0.242 NA
ATOM      8  N   UNL     1      33.232 -23.469 -14.449  0.00  0.00    -0.228 NA
ATOM      9  N   UNL     1      32.354 -23.306 -16.719  0.00  0.00    -0.229 NA
ATOM     10  C   UNL     1      34.431 -23.320 -15.031  0.00  0.00    +0.152 C 
ATOM     11  C   UNL     1      36.589 -23.120 -15.412  0.00  0.00    +0.223 C 
ATOM     12  C   UNL     1      34.693 -23.164 -16.383  0.00  0.00    +0.140 C 
ATOM     13  C   UNL     1      33.596 -23.160 -17.240  0.00  0.00    +0.143 C 
ATOM     14  C   UNL     1      32.250 -23.449 -15.377  0.00  0.00    +0.253 C 
ATOM     15  N   UNL     1      33.769 -23.008 -18.626  0.00  0.00    -0.342 N 
ATOM     16  H   UNL     1      32.985 -23.008 -19.223  0.00  0.00    +0.144 HD
ATOM     17  H   UNL     1      34.673 -22.904 -19.002  0.00  0.00    +0.144 HD
ENDBRANCH   4   6
BRANCH   2  18
ATOM     18  O   UNL     1      34.178 -24.819 -12.058  0.00  0.00    -0.378 OA
ATOM     19  H   UNL     1      33.736 -24.009 -12.355  0.00  0.00    +0.211 HD
ENDBRANCH   2  18
BRANCH   3  20
ATOM     20  O   UNL     1      35.948 -24.029 -10.154  0.00  0.00    -0.379 OA
ATOM     21  H   UNL     1      36.680 -23.596  -9.686  0.00  0.00    +0.211 HD
ENDBRANCH   3  20
BRANCH   5  22
ATOM     22  C   UNL     1      38.699 -25.206 -12.366  0.00  0.00    +0.206 C 
BRANCH  22  23
ATOM     23  O   UNL     1      39.447 -24.551 -13.376  0.00  0.00    -0.227 OA
BRANCH  23  24
ATOM     24  S   UNL     1      40.185 -25.432 -14.544  0.00  0.00    +0.049 S 
ATOM     25  O   UNL     1      40.850 -26.559 -13.914  0.00  0.00    -0.056 OA
ATOM     26  O   UNL     1      40.953 -24.512 -15.364  0.00  0.00    -0.056 OA
BRANCH  24  27
ATOM     27  N   UNL     1      38.890 -26.051 -15.494  0.00  0.00    -0.180 NA
ATOM     28  H   UNL     1      39.298 -26.629 -16.229  0.00  0.00    +0.149 HD
BRANCH  27  29
ATOM     29  C   UNL     1      37.871 -26.868 -14.804  0.00  0.00    +0.092 C 
ATOM     30  C   UNL     1      36.523 -26.672 -15.468  0.00  0.00    +0.020 C 
ENDBRANCH  27  29
ENDBRANCH  24  27
ENDBRANCH  23  24
ENDBRANCH  22  23
ENDBRANCH   5  22
TORSDOF 8
ENDMDL
MODEL 4
REMARK VINA RESULT:      -9.2      4.781      7.955
REMARK  Name = 17753791
REMARK  8 active torsions:
REMARK  status: ('A' for Active; 'I' for Inactive)
REMARK    1  A    between atoms: C_2  and  O_18
REMARK    2  A    between atoms: C_3  and  O_20
REMARK    3  A    between atoms: C_4  and  N_6
REMARK    4  A    between atoms: C_5  and  C_22
REMARK    5  A    between atoms: C_22  and  O_23
REMARK    6  A    between atoms: O_23  and  S_24
REMARK    7  A    between atoms: S_24  and  N_27
REMARK    8  A    between atoms: N_27  and  C_29
REMARK                            x       y       z     vdW  Elec       q    Type
REMARK                         _______ _______ _______ _____ _____    ______ ____
ROOT
ATOM      1  O   UNL     1      35.474 -24.030 -16.279  0.00  0.00    -0.333 OA
ATOM      2  C   UNL     1      36.547 -21.923 -16.138  0.00  0.00    +0.187 C 
ATOM      3  C   UNL     1      37.115 -22.817 -15.054  0.00  0.00    +0.171 C 
ATOM      4  C   UNL     1      35.958 -22.947 -17.097  0.00  0.00    +0.225 C 
ATOM      5  C   UNL     1      36.071 -23.925 -14.967  0.00  0.00    +0.178 C 
ENDROOT
BRANCH   4   6
ATOM      6  N   UNL     1      34.872 -22.431 -17.926  0.00  0.00    -0.247 N 
ATOM      7  N   UNL     1      32.804 -22.132 -18.702  0.00  0.00    -0.242 NA
ATOM      8  N   UNL     1      36.093 -20.949 -19.415  0.00  0.00    -0.228 NA
ATOM      9  N   UNL     1      34.596 -19.858 -21.002  0.00  0.00    -0.229 NA
ATOM     10  C   UNL     1      34.979 -21.537 -18.954  0.00  0.00    +0.152 C 
ATOM     11  C   UNL     1      33.547 -22.759 -17.815  0.00  0.00    +0.223 C 
ATOM     12  C   UNL     1      33.686 -21.365 -19.421  0.00  0.00    +0.140 C 
ATOM     13  C   UNL     1      33.513 -20.487 -20.486  0.00  0.00    +0.143 C 
ATOM     14  C   UNL     1      35.800 -20.123 -20.443  0.00  0.00    +0.253 C 
ATOM     15  N   UNL     1      32.236 -20.251 -21.023  0.00  0.00    -0.342 N 
ATOM     16  H   UNL     1      32.126 -19.627 -21.777  0.00  0.00    +0.144 HD
ATOM     17  H   UNL     1      31.451 -20.709 -20.645  0.00  0.00    +0.144 HD
ENDBRANCH   4   6
BRANCH   2  18
ATOM     18  O   UNL     1      37.527 -21.119 -16.763  0.00  0.00    -0.378 OA
ATOM     19  H   UNL     1      38.401 -21.335 -16.401  0.00  0.00    +0.211 HD
ENDBRANCH   2  18
BRANCH   3  20
ATOM     20  O   UNL     1      38.349 -23.380 -15.500  0.00  0.00    -0.379 OA
ATOM     21  H   UNL     1      38.266 -24.346 -15.545  0.00  0.00    +0.211 HD
ENDBRANCH   3  20
BRANCH   5  22
ATOM     22  C   UNL     1      34.970 -23.625 -13.959  0.00  0.00    +0.206 C 
BRANCH  22  23
ATOM     23  O   UNL     1      34.964 -24.647 -12.977  0.00  0.00    -0.227 OA
BRANCH  23  24
ATOM     24  S   UNL     1      35.919 -24.509 -11.653  0.00  0.00    +0.049 S 
ATOM     25  O   UNL     1      35.199 -25.048 -10.513  0.00  0.00    -0.056 OA
ATOM     26  O   UNL     1      36.412 -23.145 -11.611  0.00  0.00    -0.056 OA
BRANCH  24  27
ATOM     27  N   UNL     1      37.248 -25.555 -11.976  0.00  0.00    -0.180 NA
ATOM     28  H   UNL     1      36.971 -26.176 -12.737  0.00  0.00    +0.149 HD
BRANCH  27  29
ATOM     29  C   UNL     1      38.528 -24.929 -12.359  0.00  0.00    +0.092 C 
ATOM     30  C   UNL     1      39.194 -25.749 -13.445  0.00  0.00    +0.020 C 
ENDBRANCH  27  29
ENDBRANCH  24  27
ENDBRANCH  23  24
ENDBRANCH  22  23
ENDBRANCH   5  22
TORSDOF 8
ENDMDL
MODEL 5
REMARK VINA RESULT:      -9.0      3.042      3.882
REMARK  Name = 17753791
REMARK  8 active torsions:
REMARK  status: ('A' for Active; 'I' for Inactive)
REMARK    1  A    between atoms: C_2  and  O_18
REMARK    2  A    between atoms: C_3  and  O_20
REMARK    3  A    between atoms: C_4  and  N_6
REMARK    4  A    between atoms: C_5  and  C_22
REMARK    5  A    between atoms: C_22  and  O_23
REMARK    6  A    between atoms: O_23  and  S_24
REMARK    7  A    between atoms: S_24  and  N_27
REMARK    8  A    between atoms: N_27  and  C_29
REMARK                            x       y       z     vdW  Elec       q    Type
REMARK                         _______ _______ _______ _____ _____    ______ ____
ROOT
ATOM      1  O   UNL     1      32.425 -24.642 -15.355  0.00  0.00    -0.333 OA
ATOM      2  C   UNL     1      32.429 -22.890 -13.761  0.00  0.00    +0.187 C 
ATOM      3  C   UNL     1      31.084 -22.891 -14.460  0.00  0.00    +0.171 C 
ATOM      4  C   UNL     1      32.919 -24.302 -14.045  0.00  0.00    +0.225 C 
ATOM      5  C   UNL     1      31.366 -23.723 -15.707  0.00  0.00    +0.178 C 
ENDROOT
BRANCH   4   6
ATOM      6  N   UNL     1      34.372 -24.446 -14.012  0.00  0.00    -0.247 N 
ATOM      7  N   UNL     1      36.455 -24.736 -14.752  0.00  0.00    -0.242 NA
ATOM      8  N   UNL     1      34.801 -24.238 -11.629  0.00  0.00    -0.228 NA
ATOM      9  N   UNL     1      37.184 -24.428 -11.139  0.00  0.00    -0.229 NA
ATOM     10  C   UNL     1      35.174 -24.411 -12.907  0.00  0.00    +0.152 C 
ATOM     11  C   UNL     1      35.187 -24.644 -15.095  0.00  0.00    +0.223 C 
ATOM     12  C   UNL     1      36.461 -24.592 -13.387  0.00  0.00    +0.140 C 
ATOM     13  C   UNL     1      37.488 -24.597 -12.448  0.00  0.00    +0.143 C 
ATOM     14  C   UNL     1      35.880 -24.262 -10.816  0.00  0.00    +0.253 C 
ATOM     15  N   UNL     1      38.825 -24.773 -12.847  0.00  0.00    -0.342 N 
ATOM     16  H   UNL     1      39.543 -24.774 -12.173  0.00  0.00    +0.144 HD
ATOM     17  H   UNL     1      39.042 -24.894 -13.799  0.00  0.00    +0.144 HD
ENDBRANCH   4   6
BRANCH   2  18
ATOM     18  O   UNL     1      32.332 -22.634 -12.375  0.00  0.00    -0.378 OA
ATOM     19  H   UNL     1      32.038 -21.720 -12.234  0.00  0.00    +0.211 HD
ENDBRANCH   2  18
BRANCH   3  20
ATOM     20  O   UNL     1      30.130 -23.580 -13.653  0.00  0.00    -0.379 OA
ATOM     21  H   UNL     1      29.370 -23.839 -14.199  0.00  0.00    +0.211 HD
ENDBRANCH   3  20
BRANCH   5  22
ATOM     22  C   UNL     1      31.831 -22.882 -16.888  0.00  0.00    +0.206 C 
BRANCH  22  23
ATOM     23  O   UNL     1      32.727 -23.654 -17.669  0.00  0.00    -0.227 OA
BRANCH  23  24
ATOM     24  S   UNL     1      33.839 -22.907 -18.612  0.00  0.00    +0.049 S 
ATOM     25  O   UNL     1      34.094 -23.745 -19.770  0.00  0.00    -0.056 OA
ATOM     26  O   UNL     1      34.943 -22.513 -17.755  0.00  0.00    -0.056 OA
BRANCH  24  27
ATOM     27  N   UNL     1      33.044 -21.482 -19.160  0.00  0.00    -0.180 NA
ATOM     28  H   UNL     1      32.846 -20.907 -18.340  0.00  0.00    +0.149 HD
BRANCH  27  29
ATOM     29  C   UNL     1      33.762 -20.634 -20.131  0.00  0.00    +0.092 C 
ATOM     30  C   UNL     1      32.776 -19.744 -20.861  0.00  0.00    +0.020 C 
ENDBRANCH  27  29
ENDBRANCH  24  27
ENDBRANCH  23  24
ENDBRANCH  22  23
ENDBRANCH   5  22
TORSDOF 8
ENDMDL
MODEL 6
REMARK VINA RESULT:      -9.0      3.494      5.399
REMARK  Name = 17753791
REMARK  8 active torsions:
REMARK  status: ('A' for Active; 'I' for Inactive)
REMARK    1  A    between atoms: C_2  and  O_18
REMARK    2  A    between atoms: C_3  and  O_20
REMARK    3  A    between atoms: C_4  and  N_6
REMARK    4  A    between atoms: C_5  and  C_22
REMARK    5  A    between atoms: C_22  and  O_23
REMARK    6  A    between atoms: O_23  and  S_24
REMARK    7  A    between atoms: S_24  and  N_27
REMARK    8  A    between atoms: N_27  and  C_29
REMARK                            x       y       z     vdW  Elec       q    Type
REMARK                         _______ _______ _______ _____ _____    ______ ____
ROOT
ATOM      1  O   UNL     1      34.868 -24.505 -15.784  0.00  0.00    -0.333 OA
ATOM      2  C   UNL     1      35.988 -22.454 -15.397  0.00  0.00    +0.187 C 
ATOM      3  C   UNL     1      36.355 -23.412 -14.280  0.00  0.00    +0.171 C 
ATOM      4  C   UNL     1      35.510 -23.416 -16.475  0.00  0.00    +0.225 C 
ATOM      5  C   UNL     1      35.267 -24.476 -14.395  0.00  0.00    +0.178 C 
ENDROOT
BRANCH   4   6
ATOM      6  N   UNL     1      34.579 -22.822 -17.432  0.00  0.00    -0.247 N 
ATOM      7  N   UNL     1      32.649 -22.334 -18.433  0.00  0.00    -0.242 NA
ATOM      8  N   UNL     1      36.107 -21.553 -18.832  0.00  0.00    -0.228 NA
ATOM      9  N   UNL     1      34.914 -20.378 -20.606  0.00  0.00    -0.229 NA
ATOM     10  C   UNL     1      34.892 -21.994 -18.472  0.00  0.00    +0.152 C 
ATOM     11  C   UNL     1      33.221 -22.997 -17.451  0.00  0.00    +0.223 C 
ATOM     12  C   UNL     1      33.681 -21.702 -19.080  0.00  0.00    +0.140 C 
ATOM     13  C   UNL     1      33.719 -20.860 -20.187  0.00  0.00    +0.143 C 
ATOM     14  C   UNL     1      36.017 -20.749 -19.914  0.00  0.00    +0.253 C 
ATOM     15  N   UNL     1      32.538 -20.510 -20.864  0.00  0.00    -0.342 N 
ATOM     16  H   UNL     1      32.577 -19.913 -21.646  0.00  0.00    +0.144 HD
ATOM     17  H   UNL     1      31.672 -20.861 -20.556  0.00  0.00    +0.144 HD
ENDBRANCH   4   6
BRANCH   2  18
ATOM     18  O   UNL     1      37.081 -21.673 -15.836  0.00  0.00    -0.378 OA
ATOM     19  H   UNL     1      37.818 -22.255 -16.078  0.00  0.00    +0.211 HD
ENDBRANCH   2  18
BRANCH   3  20
ATOM     20  O   UNL     1      37.618 -24.012 -14.563  0.00  0.00    -0.379 OA
ATOM     21  H   UNL     1      38.189 -23.949 -13.782  0.00  0.00    +0.211 HD
ENDBRANCH   3  20
BRANCH   5  22
ATOM     22  C   UNL     1      34.041 -24.164 -13.549  0.00  0.00    +0.206 C 
BRANCH  22  23
ATOM     23  O   UNL     1      32.898 -24.707 -14.189  0.00  0.00    -0.227 OA
BRANCH  23  24
ATOM     24  S   UNL     1      31.453 -23.947 -14.058  0.00  0.00    +0.049 S 
ATOM     25  O   UNL     1      31.653 -22.535 -14.330  0.00  0.00    -0.056 OA
ATOM     26  O   UNL     1      30.858 -24.358 -12.799  0.00  0.00    -0.056 OA
BRANCH  24  27
ATOM     27  N   UNL     1      30.510 -24.601 -15.341  0.00  0.00    -0.180 NA
ATOM     28  H   UNL     1      30.796 -25.573 -15.466  0.00  0.00    +0.149 HD
BRANCH  27  29
ATOM     29  C   UNL     1      29.043 -24.589 -15.181  0.00  0.00    +0.092 C 
ATOM     30  C   UNL     1      28.479 -23.292 -15.725  0.00  0.00    +0.020 C 
ENDBRANCH  27  29
ENDBRANCH  24  27
ENDBRANCH  23  24
ENDBRANCH  22  23
ENDBRANCH   5  22
TORSDOF 8
ENDMDL
MODEL 7
REMARK VINA RESULT:      -8.7     11.493     13.943
REMARK  Name = 17753791
REMARK  8 active torsions:
REMARK  status: ('A' for Active; 'I' for Inactive)
REMARK    1  A    between atoms: C_2  and  O_18
REMARK    2  A    between atoms: C_3  and  O_20
REMARK    3  A    between atoms: C_4  and  N_6
REMARK    4  A    between atoms: C_5  and  C_22
REMARK    5  A    between atoms: C_22  and  O_23
REMARK    6  A    between atoms: O_23  and  S_24
REMARK    7  A    between atoms: S_24  and  N_27
REMARK    8  A    between atoms: N_27  and  C_29
REMARK                            x       y       z     vdW  Elec       q    Type
REMARK                         _______ _______ _______ _____ _____    ______ ____
ROOT
ATOM      1  O   UNL     1      32.232 -14.441 -22.122  0.00  0.00    -0.333 OA
ATOM      2  C   UNL     1      33.681 -13.113 -23.444  0.00  0.00    +0.187 C 
ATOM      3  C   UNL     1      33.836 -14.558 -23.878  0.00  0.00    +0.171 C 
ATOM      4  C   UNL     1      32.327 -13.149 -22.752  0.00  0.00    +0.225 C 
ATOM      5  C   UNL     1      33.225 -15.316 -22.703  0.00  0.00    +0.178 C 
ENDROOT
BRANCH   4   6
ATOM      6  N   UNL     1      32.141 -12.098 -21.753  0.00  0.00    -0.247 N 
ATOM      7  N   UNL     1      31.759 -11.151 -19.772  0.00  0.00    -0.242 NA
ATOM      8  N   UNL     1      32.433 -10.109 -23.117  0.00  0.00    -0.228 NA
ATOM      9  N   UNL     1      32.193  -8.079 -21.786  0.00  0.00    -0.229 NA
ATOM     10  C   UNL     1      32.197 -10.750 -21.962  0.00  0.00    +0.152 C 
ATOM     11  C   UNL     1      31.875 -12.289 -20.423  0.00  0.00    +0.223 C 
ATOM     12  C   UNL     1      31.958 -10.180 -20.722  0.00  0.00    +0.140 C 
ATOM     13  C   UNL     1      31.962  -8.790 -20.656  0.00  0.00    +0.143 C 
ATOM     14  C   UNL     1      32.411  -8.771 -22.928  0.00  0.00    +0.253 C 
ATOM     15  N   UNL     1      31.730  -8.129 -19.438  0.00  0.00    -0.342 N 
ATOM     16  H   UNL     1      31.735  -7.144 -19.404  0.00  0.00    +0.144 HD
ATOM     17  H   UNL     1      31.563  -8.649 -18.619  0.00  0.00    +0.144 HD
ENDBRANCH   4   6
BRANCH   2  18
ATOM     18  O   UNL     1      33.696 -12.206 -24.527  0.00  0.00    -0.378 OA
ATOM     19  H   UNL     1      33.282 -12.620 -25.301  0.00  0.00    +0.211 HD
ENDBRANCH   2  18
BRANCH   3  20
ATOM     20  O   UNL     1      33.043 -14.793 -25.040  0.00  0.00    -0.379 OA
ATOM     21  H   UNL     1      33.359 -14.233 -25.767  0.00  0.00    +0.211 HD
ENDBRANCH   3  20
BRANCH   5  22
ATOM     22  C   UNL     1      34.245 -15.667 -21.628  0.00  0.00    +0.206 C 
BRANCH  22  23
ATOM     23  O   UNL     1      34.009 -16.996 -21.196  0.00  0.00    -0.227 OA
BRANCH  23  24
ATOM     24  S   UNL     1      35.051 -18.187 -21.617  0.00  0.00    +0.049 S 
ATOM     25  O   UNL     1      35.943 -18.430 -20.497  0.00  0.00    -0.056 OA
ATOM     26  O   UNL     1      35.605 -17.843 -22.914  0.00  0.00    -0.056 OA
BRANCH  24  27
ATOM     27  N   UNL     1      34.055 -19.578 -21.805  0.00  0.00    -0.180 NA
ATOM     28  H   UNL     1      34.666 -20.395 -21.802  0.00  0.00    +0.149 HD
BRANCH  27  29
ATOM     29  C   UNL     1      33.007 -19.806 -20.791  0.00  0.00    +0.092 C 
ATOM     30  C   UNL     1      33.413 -20.950 -19.884  0.00  0.00    +0.020 C 
ENDBRANCH  27  29
ENDBRANCH  24  27
ENDBRANCH  23  24
ENDBRANCH  22  23
ENDBRANCH   5  22
TORSDOF 8
ENDMDL
MODEL 8
REMARK VINA RESULT:      -8.6      4.196      5.448
REMARK  Name = 17753791
REMARK  8 active torsions:
REMARK  status: ('A' for Active; 'I' for Inactive)
REMARK    1  A    between atoms: C_2  and  O_18
REMARK    2  A    between atoms: C_3  and  O_20
REMARK    3  A    between atoms: C_4  and  N_6
REMARK    4  A    between atoms: C_5  and  C_22
REMARK    5  A    between atoms: C_22  and  O_23
REMARK    6  A    between atoms: O_23  and  S_24
REMARK    7  A    between atoms: S_24  and  N_27
REMARK    8  A    between atoms: N_27  and  C_29
REMARK                            x       y       z     vdW  Elec       q    Type
REMARK                         _______ _______ _______ _____ _____    ______ ____
ROOT
ATOM      1  O   UNL     1      34.160 -24.205 -17.164  0.00  0.00    -0.333 OA
ATOM      2  C   UNL     1      33.413 -22.891 -15.340  0.00  0.00    +0.187 C 
ATOM      3  C   UNL     1      32.328 -22.891 -16.399  0.00  0.00    +0.171 C 
ATOM      4  C   UNL     1      34.212 -24.127 -15.727  0.00  0.00    +0.225 C 
ATOM      5  C   UNL     1      33.083 -23.365 -17.637  0.00  0.00    +0.178 C 
ENDROOT
BRANCH   4   6
ATOM      6  N   UNL     1      35.605 -24.097 -15.285  0.00  0.00    -0.247 N 
ATOM      7  N   UNL     1      37.552 -23.268 -14.586  0.00  0.00    -0.242 NA
ATOM      8  N   UNL     1      36.159 -26.462 -15.353  0.00  0.00    -0.228 NA
ATOM      9  N   UNL     1      38.467 -26.851 -14.665  0.00  0.00    -0.229 NA
ATOM     10  C   UNL     1      36.438 -25.169 -15.132  0.00  0.00    +0.152 C 
ATOM     11  C   UNL     1      36.319 -22.980 -14.945  0.00  0.00    +0.223 C 
ATOM     12  C   UNL     1      37.641 -24.633 -14.698  0.00  0.00    +0.140 C 
ATOM     13  C   UNL     1      38.679 -25.529 -14.461  0.00  0.00    +0.143 C 
ATOM     14  C   UNL     1      37.239 -27.230 -15.091  0.00  0.00    +0.253 C 
ATOM     15  N   UNL     1      39.933 -25.073 -14.017  0.00  0.00    -0.342 N 
ATOM     16  H   UNL     1      40.660 -25.716 -13.853  0.00  0.00    +0.144 HD
ATOM     17  H   UNL     1      40.083 -24.111 -13.870  0.00  0.00    +0.144 HD
ENDBRANCH   4   6
BRANCH   2  18
ATOM     18  O   UNL     1      32.903 -22.984 -14.026  0.00  0.00    -0.378 OA
ATOM     19  H   UNL     1      33.099 -23.862 -13.663  0.00  0.00    +0.211 HD
ENDBRANCH   2  18
BRANCH   3  20
ATOM     20  O   UNL     1      31.337 -23.862 -16.064  0.00  0.00    -0.379 OA
ATOM     21  H   UNL     1      30.496 -23.627 -16.489  0.00  0.00    +0.211 HD
ENDBRANCH   3  20
BRANCH   5  22
ATOM     22  C   UNL     1      33.683 -22.219 -18.440  0.00  0.00    +0.206 C 
BRANCH  22  23
ATOM     23  O   UNL     1      35.019 -22.553 -18.777  0.00  0.00    -0.227 OA
BRANCH  23  24
ATOM     24  S   UNL     1      36.035 -21.393 -19.328  0.00  0.00    +0.049 S 
ATOM     25  O   UNL     1      36.804 -21.945 -20.430  0.00  0.00    -0.056 OA
ATOM     26  O   UNL     1      36.726 -20.837 -18.179  0.00  0.00    -0.056 OA
BRANCH  24  27
ATOM     27  N   UNL     1      34.993 -20.183 -19.970  0.00  0.00    -0.180 NA
ATOM     28  H   UNL     1      34.717 -19.576 -19.198  0.00  0.00    +0.149 HD
BRANCH  27  29
ATOM     29  C   UNL     1      35.530 -19.321 -21.040  0.00  0.00    +0.092 C 
ATOM     30  C   UNL     1      34.487 -18.299 -21.446  0.00  0.00    +0.020 C 
ENDBRANCH  27  29
ENDBRANCH  24  27
ENDBRANCH  23  24
ENDBRANCH  22  23
ENDBRANCH   5  22
TORSDOF 8
ENDMDL
MODEL 9
REMARK VINA RESULT:      -8.6     11.964     14.353
REMARK  Name = 17753791
REMARK  8 active torsions:
REMARK  status: ('A' for Active; 'I' for Inactive)
REMARK    1  A    between atoms: C_2  and  O_18
REMARK    2  A    between atoms: C_3  and  O_20
REMARK    3  A    between atoms: C_4  and  N_6
REMARK    4  A    between atoms: C_5  and  C_22
REMARK    5  A    between atoms: C_22  and  O_23
REMARK    6  A    between atoms: O_23  and  S_24
REMARK    7  A    between atoms: S_24  and  N_27
REMARK    8  A    between atoms: N_27  and  C_29
REMARK                            x       y       z     vdW  Elec       q    Type
REMARK                         _______ _______ _______ _____ _____    ______ ____
ROOT
ATOM      1  O   UNL     1      32.026 -14.190 -22.074  0.00  0.00    -0.333 OA
ATOM      2  C   UNL     1      33.871 -13.218 -23.198  0.00  0.00    +0.187 C 
ATOM      3  C   UNL     1      33.923 -14.718 -23.412  0.00  0.00    +0.171 C 
ATOM      4  C   UNL     1      32.412 -13.018 -22.817  0.00  0.00    +0.225 C 
ATOM      5  C   UNL     1      32.995 -15.235 -22.317  0.00  0.00    +0.178 C 
ENDROOT
BRANCH   4   6
ATOM      6  N   UNL     1      32.164 -11.821 -22.015  0.00  0.00    -0.247 N 
ATOM      7  N   UNL     1      31.558 -10.569 -20.274  0.00  0.00    -0.242 NA
ATOM      8  N   UNL     1      32.849 -10.079 -23.564  0.00  0.00    -0.228 NA
ATOM      9  N   UNL     1      32.584  -7.863 -22.578  0.00  0.00    -0.229 NA
ATOM     10  C   UNL     1      32.375 -10.525 -22.391  0.00  0.00    +0.152 C 
ATOM     11  C   UNL     1      31.673 -11.795 -20.737  0.00  0.00    +0.223 C 
ATOM     12  C   UNL     1      31.993  -9.764 -21.297  0.00  0.00    +0.140 C 
ATOM     13  C   UNL     1      32.112  -8.383 -21.420  0.00  0.00    +0.143 C 
ATOM     14  C   UNL     1      32.918  -8.730 -23.563  0.00  0.00    +0.253 C 
ATOM     15  N   UNL     1      31.750  -7.535 -20.359  0.00  0.00    -0.342 N 
ATOM     16  H   UNL     1      31.838  -6.559 -20.457  0.00  0.00    +0.144 HD
ATOM     17  H   UNL     1      31.408  -7.916 -19.518  0.00  0.00    +0.144 HD
ENDBRANCH   4   6
BRANCH   2  18
ATOM     18  O   UNL     1      34.219 -12.482 -24.353  0.00  0.00    -0.378 OA
ATOM     19  H   UNL     1      33.724 -11.648 -24.368  0.00  0.00    +0.211 HD
ENDBRANCH   2  18
BRANCH   3  20
ATOM     20  O   UNL     1      33.357 -15.037 -24.683  0.00  0.00    -0.379 OA
ATOM     21  H   UNL     1      33.673 -14.404 -25.347  0.00  0.00    +0.211 HD
ENDBRANCH   3  20
BRANCH   5  22
ATOM     22  C   UNL     1      33.724 -15.527 -21.012  0.00  0.00    +0.206 C 
BRANCH  22  23
ATOM     23  O   UNL     1      34.973 -16.126 -21.315  0.00  0.00    -0.227 OA
BRANCH  23  24
ATOM     24  S   UNL     1      35.084 -17.754 -21.455  0.00  0.00    +0.049 S 
ATOM     25  O   UNL     1      33.743 -18.309 -21.400  0.00  0.00    -0.056 OA
ATOM     26  O   UNL     1      36.087 -18.205 -20.507  0.00  0.00    -0.056 OA
BRANCH  24  27
ATOM     27  N   UNL     1      35.690 -18.005 -23.046  0.00  0.00    -0.180 NA
ATOM     28  H   UNL     1      36.672 -18.271 -22.961  0.00  0.00    +0.149 HD
BRANCH  27  29
ATOM     29  C   UNL     1      35.025 -19.030 -23.874  0.00  0.00    +0.092 C 
ATOM     30  C   UNL     1      34.337 -18.369 -25.052  0.00  0.00    +0.020 C 
ENDBRANCH  27  29
ENDBRANCH  24  27
ENDBRANCH  23  24
ENDBRANCH  22  23
ENDBRANCH   5  22
TORSDOF 8
ENDMDL
