MODEL 1
REMARK VINA RESULT:      -8.7      0.000      0.000
REMARK  Name = 4073054
REMARK  4 active torsions:
REMARK  status: ('A' for Active; 'I' for Inactive)
REMARK    1  A    between atoms: N_2  and  C_14
REMARK    2  A    between atoms: N_2  and  C_20
REMARK    3  A    between atoms: N_3  and  N_6
REMARK    4  A    between atoms: N_6  and  C_9
REMARK                            x       y       z     vdW  Elec       q    Type
REMARK                         _______ _______ _______ _____ _____    ______ ____
ROOT
ATOM      1  O   UNL     1      35.021 -16.212 -19.778  0.00  0.00    -0.250 OA
ATOM      2  N   UNL     1      34.767 -17.571 -21.672  0.00  0.00    -0.221 N 
ATOM      3  N   UNL     1      33.556 -15.557 -21.424  0.00  0.00    -0.187 N 
ATOM      4  C   UNL     1      34.499 -16.424 -20.878  0.00  0.00    +0.331 C 
ATOM      5  H   UNL     1      33.153 -15.744 -22.302  0.00  0.00    +0.179 HD
ENDROOT
BRANCH   2   6
ATOM      6  C   UNL     1      35.158 -18.796 -21.013  0.00  0.00    +0.060 C 
ATOM      7  C   UNL     1      34.171 -19.655 -20.603  0.00  0.00    +0.015 C 
ATOM      8  C   UNL     1      36.496 -19.038 -20.834  0.00  0.00    +0.015 C 
ATOM      9  C   UNL     1      34.548 -20.838 -19.968  0.00  0.00    +0.001 C 
ATOM     10  C   UNL     1      36.873 -20.221 -20.198  0.00  0.00    +0.001 C 
ATOM     11  C   UNL     1      35.899 -21.122 -19.766  0.00  0.00    +0.000 C 
ENDBRANCH   2   6
BRANCH   2  12
ATOM     12  C   UNL     1      34.665 -17.562 -23.108  0.00  0.00    +0.060 C 
ATOM     13  C   UNL     1      34.399 -18.746 -23.752  0.00  0.00    +0.015 C 
ATOM     14  C   UNL     1      34.838 -16.369 -23.767  0.00  0.00    +0.015 C 
ATOM     15  C   UNL     1      34.300 -18.736 -25.144  0.00  0.00    +0.001 C 
ATOM     16  C   UNL     1      34.738 -16.360 -25.159  0.00  0.00    +0.001 C 
ATOM     17  C   UNL     1      34.470 -17.543 -25.847  0.00  0.00    +0.000 C 
ENDBRANCH   2  12
BRANCH   3  18
ATOM     18  N   UNL     1      33.204 -14.453 -20.727  0.00  0.00    -0.143 NA
BRANCH  18  21
ATOM     19  N   UNL     1      31.966 -12.484 -20.701  0.00  0.00    -0.369 N 
ATOM     20  N   UNL     1      32.121 -13.573 -22.697  0.00  0.00    -0.369 N 
ATOM     21  C   UNL     1      32.476 -13.574 -21.366  0.00  0.00    +0.208 C 
ATOM     22  H   UNL     1      32.145 -12.365 -19.740  0.00  0.00    +0.159 HD
ATOM     23  H   UNL     1      31.421 -11.823 -21.184  0.00  0.00    +0.159 HD
ATOM     24  H   UNL     1      32.423 -14.299 -23.289  0.00  0.00    +0.159 HD
ATOM     25  H   UNL     1      31.565 -12.843 -23.057  0.00  0.00    +0.159 HD
ENDBRANCH  18  21
ENDBRANCH   3  18
TORSDOF 4
ENDMDL
MODEL 2
REMARK VINA RESULT:      -8.6      4.819      8.801
REMARK  Name = 4073054
REMARK  4 active torsions:
REMARK  status: ('A' for Active; 'I' for Inactive)
REMARK    1  A    between atoms: N_2  and  C_14
REMARK    2  A    between atoms: N_2  and  C_20
REMARK    3  A    between atoms: N_3  and  N_6
REMARK    4  A    between atoms: N_6  and  C_9
REMARK                            x       y       z     vdW  Elec       q    Type
REMARK                         _______ _______ _______ _____ _____    ______ ____
ROOT
ATOM      1  O   UNL     1      30.651 -11.183 -21.646  0.00  0.00    -0.250 OA
ATOM      2  N   UNL     1      32.401 -10.149 -22.815  0.00  0.00    -0.221 N 
ATOM      3  N   UNL     1      32.569 -12.381 -22.056  0.00  0.00    -0.187 N 
ATOM      4  C   UNL     1      31.780 -11.237 -22.145  0.00  0.00    +0.331 C 
ATOM      5  H   UNL     1      33.466 -12.403 -22.461  0.00  0.00    +0.179 HD
ENDROOT
BRANCH   2   6
ATOM      6  C   UNL     1      32.041  -8.802 -22.434  0.00  0.00    +0.060 C 
ATOM      7  C   UNL     1      32.496  -8.324 -21.233  0.00  0.00    +0.015 C 
ATOM      8  C   UNL     1      31.265  -8.071 -23.296  0.00  0.00    +0.015 C 
ATOM      9  C   UNL     1      32.150  -7.024 -20.866  0.00  0.00    +0.001 C 
ATOM     10  C   UNL     1      30.918  -6.770 -22.929  0.00  0.00    +0.001 C 
ATOM     11  C   UNL     1      31.361  -6.247 -21.714  0.00  0.00    +0.000 C 
ENDBRANCH   2   6
BRANCH   2  12
ATOM     12  C   UNL     1      33.375 -10.334 -23.858  0.00  0.00    +0.060 C 
ATOM     13  C   UNL     1      33.203 -11.378 -24.735  0.00  0.00    +0.015 C 
ATOM     14  C   UNL     1      34.431  -9.458 -23.930  0.00  0.00    +0.015 C 
ATOM     15  C   UNL     1      34.148 -11.557 -25.747  0.00  0.00    +0.001 C 
ATOM     16  C   UNL     1      35.375  -9.638 -24.942  0.00  0.00    +0.001 C 
ATOM     17  C   UNL     1      35.233 -10.687 -25.850  0.00  0.00    +0.000 C 
ENDBRANCH   2  12
BRANCH   3  18
ATOM     18  N   UNL     1      32.083 -13.460 -21.404  0.00  0.00    -0.143 NA
BRANCH  18  21
ATOM     19  N   UNL     1      33.110 -14.791 -23.011  0.00  0.00    -0.369 N 
ATOM     20  N   UNL     1      32.653 -15.772 -21.006  0.00  0.00    -0.369 N 
ATOM     21  C   UNL     1      32.577 -14.619 -21.755  0.00  0.00    +0.208 C 
ATOM     22  H   UNL     1      33.117 -14.042 -23.650  0.00  0.00    +0.159 HD
ATOM     23  H   UNL     1      33.483 -15.664 -23.272  0.00  0.00    +0.159 HD
ATOM     24  H   UNL     1      32.306 -15.785 -20.084  0.00  0.00    +0.159 HD
ATOM     25  H   UNL     1      33.055 -16.584 -21.392  0.00  0.00    +0.159 HD
ENDBRANCH  18  21
ENDBRANCH   3  18
TORSDOF 4
ENDMDL
MODEL 3
REMARK VINA RESULT:      -8.5      5.421      8.491
REMARK  Name = 4073054
REMARK  4 active torsions:
REMARK  status: ('A' for Active; 'I' for Inactive)
REMARK    1  A    between atoms: N_2  and  C_14
REMARK    2  A    between atoms: N_2  and  C_20
REMARK    3  A    between atoms: N_3  and  N_6
REMARK    4  A    between atoms: N_6  and  C_9
REMARK                            x       y       z     vdW  Elec       q    Type
REMARK                         _______ _______ _______ _____ _____    ______ ____
ROOT
ATOM      1  O   UNL     1      34.626 -23.306 -18.992  0.00  0.00    -0.250 OA
ATOM      2  N   UNL     1      33.740 -23.179 -16.825  0.00  0.00    -0.221 N 
ATOM      3  N   UNL     1      32.768 -22.002 -18.629  0.00  0.00    -0.187 N 
ATOM      4  C   UNL     1      33.771 -22.874 -18.212  0.00  0.00    +0.331 C 
ATOM      5  H   UNL     1      32.096 -21.670 -17.991  0.00  0.00    +0.179 HD
ENDROOT
BRANCH   2   6
ATOM      6  C   UNL     1      34.983 -23.482 -16.152  0.00  0.00    +0.060 C 
ATOM      7  C   UNL     1      35.097 -24.688 -15.512  0.00  0.00    +0.015 C 
ATOM      8  C   UNL     1      35.985 -22.547 -16.192  0.00  0.00    +0.015 C 
ATOM      9  C   UNL     1      36.296 -24.981 -14.864  0.00  0.00    +0.001 C 
ATOM     10  C   UNL     1      37.186 -22.840 -15.544  0.00  0.00    +0.001 C 
ATOM     11  C   UNL     1      37.342 -24.057 -14.880  0.00  0.00    +0.000 C 
ENDBRANCH   2   6
BRANCH   2  12
ATOM     12  C   UNL     1      32.520 -23.199 -16.062  0.00  0.00    +0.060 C 
ATOM     13  C   UNL     1      32.576 -22.863 -14.730  0.00  0.00    +0.015 C 
ATOM     14  C   UNL     1      31.356 -23.551 -16.700  0.00  0.00    +0.015 C 
ATOM     15  C   UNL     1      31.393 -22.882 -13.991  0.00  0.00    +0.001 C 
ATOM     16  C   UNL     1      30.173 -23.569 -15.960  0.00  0.00    +0.001 C 
ATOM     17  C   UNL     1      30.192 -23.235 -14.606  0.00  0.00    +0.000 C 
ENDBRANCH   2  12
BRANCH   3  18
ATOM     18  N   UNL     1      32.733 -21.620 -19.925  0.00  0.00    -0.143 NA
BRANCH  18  21
ATOM     19  N   UNL     1      32.648 -19.408 -20.639  0.00  0.00    -0.369 N 
ATOM     20  N   UNL     1      34.709 -20.253 -20.159  0.00  0.00    -0.369 N 
ATOM     21  C   UNL     1      33.357 -20.508 -20.217  0.00  0.00    +0.208 C 
ATOM     22  H   UNL     1      31.668 -19.457 -20.725  0.00  0.00    +0.159 HD
ATOM     23  H   UNL     1      33.120 -18.572 -20.855  0.00  0.00    +0.159 HD
ATOM     24  H   UNL     1      35.332 -20.959 -19.871  0.00  0.00    +0.159 HD
ATOM     25  H   UNL     1      35.053 -19.363 -20.406  0.00  0.00    +0.159 HD
ENDBRANCH  18  21
ENDBRANCH   3  18
TORSDOF 4
ENDMDL
MODEL 4
REMARK VINA RESULT:      -8.5      5.139      9.788
REMARK  Name = 4073054
REMARK  4 active torsions:
REMARK  status: ('A' for Active; 'I' for Inactive)
REMARK    1  A    between atoms: N_2  and  C_14
REMARK    2  A    between atoms: N_2  and  C_20
REMARK    3  A    between atoms: N_3  and  N_6
REMARK    4  A    between atoms: N_6  and  C_9
REMARK                            x       y       z     vdW  Elec       q    Type
REMARK                         _______ _______ _______ _____ _____    ______ ____
ROOT
ATOM      1  O   UNL     1      34.410 -10.142 -24.593  0.00  0.00    -0.250 OA
ATOM      2  N   UNL     1      32.713  -9.547 -23.088  0.00  0.00    -0.221 N 
ATOM      3  N   UNL     1      33.163 -11.807 -23.616  0.00  0.00    -0.187 N 
ATOM      4  C   UNL     1      33.508 -10.473 -23.816  0.00  0.00    +0.331 C 
ATOM      5  H   UNL     1      32.441 -12.049 -22.993  0.00  0.00    +0.179 HD
ENDROOT
BRANCH   2   6
ATOM      6  C   UNL     1      32.493  -8.232 -23.644  0.00  0.00    +0.060 C 
ATOM      7  C   UNL     1      31.204  -7.844 -23.901  0.00  0.00    +0.015 C 
ATOM      8  C   UNL     1      33.586  -7.439 -23.883  0.00  0.00    +0.015 C 
ATOM      9  C   UNL     1      30.992  -6.574 -24.437  0.00  0.00    +0.001 C 
ATOM     10  C   UNL     1      33.374  -6.168 -24.419  0.00  0.00    +0.001 C 
ATOM     11  C   UNL     1      32.077  -5.735 -24.695  0.00  0.00    +0.000 C 
ENDBRANCH   2   6
BRANCH   2  12
ATOM     12  C   UNL     1      32.117  -9.868 -21.818  0.00  0.00    +0.060 C 
ATOM     13  C   UNL     1      31.271 -10.949 -21.747  0.00  0.00    +0.015 C 
ATOM     14  C   UNL     1      32.423  -9.080 -20.735  0.00  0.00    +0.015 C 
ATOM     15  C   UNL     1      30.694 -11.260 -20.515  0.00  0.00    +0.001 C 
ATOM     16  C   UNL     1      31.846  -9.392 -19.503  0.00  0.00    +0.001 C 
ATOM     17  C   UNL     1      30.981 -10.482 -19.394  0.00  0.00    +0.000 C 
ENDBRANCH   2  12
BRANCH   3  18
ATOM     18  N   UNL     1      33.836 -12.764 -24.294  0.00  0.00    -0.143 NA
BRANCH  18  21
ATOM     19  N   UNL     1      33.509 -15.067 -24.280  0.00  0.00    -0.369 N 
ATOM     20  N   UNL     1      34.547 -14.166 -22.462  0.00  0.00    -0.369 N 
ATOM     21  C   UNL     1      33.970 -13.915 -23.687  0.00  0.00    +0.208 C 
ATOM     22  H   UNL     1      33.073 -15.026 -25.162  0.00  0.00    +0.159 HD
ATOM     23  H   UNL     1      33.613 -15.931 -23.822  0.00  0.00    +0.159 HD
ATOM     24  H   UNL     1      34.919 -13.425 -21.931  0.00  0.00    +0.159 HD
ATOM     25  H   UNL     1      34.587 -15.088 -22.117  0.00  0.00    +0.159 HD
ENDBRANCH  18  21
ENDBRANCH   3  18
TORSDOF 4
ENDMDL
MODEL 5
REMARK VINA RESULT:      -8.4      8.362     10.825
REMARK  Name = 4073054
REMARK  4 active torsions:
REMARK  status: ('A' for Active; 'I' for Inactive)
REMARK    1  A    between atoms: N_2  and  C_14
REMARK    2  A    between atoms: N_2  and  C_20
REMARK    3  A    between atoms: N_3  and  N_6
REMARK    4  A    between atoms: N_6  and  C_9
REMARK                            x       y       z     vdW  Elec       q    Type
REMARK                         _______ _______ _______ _____ _____    ______ ____
ROOT
ATOM      1  O   UNL     1      32.180 -25.048 -13.071  0.00  0.00    -0.250 OA
ATOM      2  N   UNL     1      32.395 -23.739 -15.005  0.00  0.00    -0.221 N 
ATOM      3  N   UNL     1      34.023 -23.693 -13.292  0.00  0.00    -0.187 N 
ATOM      4  C   UNL     1      32.822 -24.234 -13.743  0.00  0.00    +0.331 C 
ATOM      5  H   UNL     1      34.519 -23.046 -13.844  0.00  0.00    +0.179 HD
ENDROOT
BRANCH   2   6
ATOM      6  C   UNL     1      30.978 -23.673 -15.282  0.00  0.00    +0.060 C 
ATOM      7  C   UNL     1      30.324 -22.493 -15.035  0.00  0.00    +0.015 C 
ATOM      8  C   UNL     1      30.362 -24.792 -15.779  0.00  0.00    +0.015 C 
ATOM      9  C   UNL     1      28.957 -22.429 -15.303  0.00  0.00    +0.001 C 
ATOM     10  C   UNL     1      28.994 -24.727 -16.047  0.00  0.00    +0.001 C 
ATOM     11  C   UNL     1      28.292 -23.545 -15.810  0.00  0.00    +0.000 C 
ENDBRANCH   2   6
BRANCH   2  12
ATOM     12  C   UNL     1      33.318 -23.302 -16.019  0.00  0.00    +0.060 C 
ATOM     13  C   UNL     1      34.631 -23.104 -15.666  0.00  0.00    +0.015 C 
ATOM     14  C   UNL     1      32.843 -23.104 -17.293  0.00  0.00    +0.015 C 
ATOM     15  C   UNL     1      35.525 -22.680 -16.650  0.00  0.00    +0.001 C 
ATOM     16  C   UNL     1      33.738 -22.680 -18.276  0.00  0.00    +0.001 C 
ATOM     17  C   UNL     1      35.079 -22.468 -17.954  0.00  0.00    +0.000 C 
ENDBRANCH   2  12
BRANCH   3  18
ATOM     18  N   UNL     1      34.497 -24.071 -12.084  0.00  0.00    -0.143 NA
BRANCH  18  21
ATOM     19  N   UNL     1      36.183 -25.449 -12.899  0.00  0.00    -0.369 N 
ATOM     20  N   UNL     1      36.755 -24.003 -11.234  0.00  0.00    -0.369 N 
ATOM     21  C   UNL     1      35.744 -24.463 -12.048  0.00  0.00    +0.208 C 
ATOM     22  H   UNL     1      35.557 -25.866 -13.536  0.00  0.00    +0.159 HD
ATOM     23  H   UNL     1      37.123 -25.741 -12.872  0.00  0.00    +0.159 HD
ATOM     24  H   UNL     1      36.575 -23.293 -10.576  0.00  0.00    +0.159 HD
ATOM     25  H   UNL     1      37.660 -24.385 -11.311  0.00  0.00    +0.159 HD
ENDBRANCH  18  21
ENDBRANCH   3  18
TORSDOF 4
ENDMDL
MODEL 6
REMARK VINA RESULT:      -8.4      8.364     10.796
REMARK  Name = 4073054
REMARK  4 active torsions:
REMARK  status: ('A' for Active; 'I' for Inactive)
REMARK    1  A    between atoms: N_2  and  C_14
REMARK    2  A    between atoms: N_2  and  C_20
REMARK    3  A    between atoms: N_3  and  N_6
REMARK    4  A    between atoms: N_6  and  C_9
REMARK                            x       y       z     vdW  Elec       q    Type
REMARK                         _______ _______ _______ _____ _____    ______ ____
ROOT
ATOM      1  O   UNL     1      32.185 -25.046 -13.069  0.00  0.00    -0.250 OA
ATOM      2  N   UNL     1      32.410 -23.730 -14.997  0.00  0.00    -0.221 N 
ATOM      3  N   UNL     1      34.041 -23.707 -13.285  0.00  0.00    -0.187 N 
ATOM      4  C   UNL     1      32.834 -24.235 -13.738  0.00  0.00    +0.331 C 
ATOM      5  H   UNL     1      34.542 -23.062 -13.834  0.00  0.00    +0.179 HD
ENDROOT
BRANCH   2   6
ATOM      6  C   UNL     1      30.994 -23.649 -15.271  0.00  0.00    +0.060 C 
ATOM      7  C   UNL     1      30.366 -24.761 -15.770  0.00  0.00    +0.015 C 
ATOM      8  C   UNL     1      30.351 -22.465 -15.018  0.00  0.00    +0.015 C 
ATOM      9  C   UNL     1      28.999 -24.683 -16.034  0.00  0.00    +0.001 C 
ATOM     10  C   UNL     1      28.983 -22.388 -15.282  0.00  0.00    +0.001 C 
ATOM     11  C   UNL     1      28.307 -23.497 -15.790  0.00  0.00    +0.000 C 
ENDBRANCH   2   6
BRANCH   2  12
ATOM     12  C   UNL     1      33.336 -23.296 -16.009  0.00  0.00    +0.060 C 
ATOM     13  C   UNL     1      32.867 -23.111 -17.287  0.00  0.00    +0.015 C 
ATOM     14  C   UNL     1      34.645 -23.085 -15.651  0.00  0.00    +0.015 C 
ATOM     15  C   UNL     1      33.765 -22.690 -18.269  0.00  0.00    +0.001 C 
ATOM     16  C   UNL     1      35.542 -22.663 -16.633  0.00  0.00    +0.001 C 
ATOM     17  C   UNL     1      35.102 -22.466 -17.942  0.00  0.00    +0.000 C 
ENDBRANCH   2  12
BRANCH   3  18
ATOM     18  N   UNL     1      34.512 -24.096 -12.079  0.00  0.00    -0.143 NA
BRANCH  18  21
ATOM     19  N   UNL     1      36.651 -23.968 -11.176  0.00  0.00    -0.369 N 
ATOM     20  N   UNL     1      36.321 -25.513 -12.818  0.00  0.00    -0.369 N 
ATOM     21  C   UNL     1      35.748 -24.522 -12.052  0.00  0.00    +0.208 C 
ATOM     22  H   UNL     1      36.369 -23.245 -10.569  0.00  0.00    +0.159 HD
ATOM     23  H   UNL     1      37.580 -24.292 -11.156  0.00  0.00    +0.159 HD
ATOM     24  H   UNL     1      35.781 -25.993 -13.487  0.00  0.00    +0.159 HD
ATOM     25  H   UNL     1      37.271 -25.741 -12.695  0.00  0.00    +0.159 HD
ENDBRANCH  18  21
ENDBRANCH   3  18
TORSDOF 4
ENDMDL
MODEL 7
REMARK VINA RESULT:      -8.3      7.712      9.933
REMARK  Name = 4073054
REMARK  4 active torsions:
REMARK  status: ('A' for Active; 'I' for Inactive)
REMARK    1  A    between atoms: N_2  and  C_14
REMARK    2  A    between atoms: N_2  and  C_20
REMARK    3  A    between atoms: N_3  and  N_6
REMARK    4  A    between atoms: N_6  and  C_9
REMARK                            x       y       z     vdW  Elec       q    Type
REMARK                         _______ _______ _______ _____ _____    ______ ____
ROOT
ATOM      1  O   UNL     1      33.489 -23.797 -13.182  0.00  0.00    -0.250 OA
ATOM      2  N   UNL     1      34.775 -23.793 -15.143  0.00  0.00    -0.221 N 
ATOM      3  N   UNL     1      32.435 -23.461 -15.196  0.00  0.00    -0.187 N 
ATOM      4  C   UNL     1      33.563 -23.679 -14.410  0.00  0.00    +0.331 C 
ATOM      5  H   UNL     1      32.516 -23.370 -16.173  0.00  0.00    +0.179 HD
ENDROOT
BRANCH   2   6
ATOM      6  C   UNL     1      35.832 -24.624 -14.613  0.00  0.00    +0.060 C 
ATOM      7  C   UNL     1      36.022 -25.863 -15.168  0.00  0.00    +0.015 C 
ATOM      8  C   UNL     1      36.592 -24.128 -13.586  0.00  0.00    +0.015 C 
ATOM      9  C   UNL     1      37.042 -26.664 -14.657  0.00  0.00    +0.001 C 
ATOM     10  C   UNL     1      37.613 -24.930 -13.075  0.00  0.00    +0.001 C 
ATOM     11  C   UNL     1      37.839 -26.198 -13.611  0.00  0.00    +0.000 C 
ENDBRANCH   2   6
BRANCH   2  12
ATOM     12  C   UNL     1      34.991 -23.113 -16.392  0.00  0.00    +0.060 C 
ATOM     13  C   UNL     1      36.186 -22.462 -16.584  0.00  0.00    +0.015 C 
ATOM     14  C   UNL     1      33.994 -23.148 -17.337  0.00  0.00    +0.015 C 
ATOM     15  C   UNL     1      36.396 -21.804 -17.796  0.00  0.00    +0.001 C 
ATOM     16  C   UNL     1      34.205 -22.489 -18.549  0.00  0.00    +0.001 C 
ATOM     17  C   UNL     1      35.405 -21.817 -18.778  0.00  0.00    +0.000 C 
ENDBRANCH   2  12
BRANCH   3  18
ATOM     18  N   UNL     1      31.227 -23.375 -14.596  0.00  0.00    -0.143 NA
BRANCH  18  21
ATOM     19  N   UNL     1      30.443 -25.013 -13.142  0.00  0.00    -0.369 N 
ATOM     20  N   UNL     1      30.009 -25.315 -15.359  0.00  0.00    -0.369 N 
ATOM     21  C   UNL     1      30.593 -24.504 -14.411  0.00  0.00    +0.208 C 
ATOM     22  H   UNL     1      30.817 -24.529 -12.370  0.00  0.00    +0.159 HD
ATOM     23  H   UNL     1      29.963 -25.861 -13.006  0.00  0.00    +0.159 HD
ATOM     24  H   UNL     1      30.043 -25.065 -16.311  0.00  0.00    +0.159 HD
ATOM     25  H   UNL     1      29.555 -26.145 -15.084  0.00  0.00    +0.159 HD
ENDBRANCH  18  21
ENDBRANCH   3  18
TORSDOF 4
ENDMDL
MODEL 8
REMARK VINA RESULT:      -8.3      7.714      9.930
REMARK  Name = 4073054
REMARK  4 active torsions:
REMARK  status: ('A' for Active; 'I' for Inactive)
REMARK    1  A    between atoms: N_2  and  C_14
REMARK    2  A    between atoms: N_2  and  C_20
REMARK    3  A    between atoms: N_3  and  N_6
REMARK    4  A    between atoms: N_6  and  C_9
REMARK                            x       y       z     vdW  Elec       q    Type
REMARK                         _______ _______ _______ _____ _____    ______ ____
ROOT
ATOM      1  O   UNL     1      33.516 -23.793 -13.171  0.00  0.00    -0.250 OA
ATOM      2  N   UNL     1      34.787 -23.792 -15.141  0.00  0.00    -0.221 N 
ATOM      3  N   UNL     1      32.446 -23.467 -15.179  0.00  0.00    -0.187 N 
ATOM      4  C   UNL     1      33.580 -23.680 -14.400  0.00  0.00    +0.331 C 
ATOM      5  H   UNL     1      32.520 -23.379 -16.157  0.00  0.00    +0.179 HD
ENDROOT
BRANCH   2   6
ATOM      6  C   UNL     1      35.851 -24.618 -14.617  0.00  0.00    +0.060 C 
ATOM      7  C   UNL     1      36.624 -24.113 -13.604  0.00  0.00    +0.015 C 
ATOM      8  C   UNL     1      36.030 -25.864 -15.159  0.00  0.00    +0.015 C 
ATOM      9  C   UNL     1      37.650 -24.910 -13.097  0.00  0.00    +0.001 C 
ATOM     10  C   UNL     1      37.057 -26.662 -14.652  0.00  0.00    +0.001 C 
ATOM     11  C   UNL     1      37.866 -26.185 -13.621  0.00  0.00    +0.000 C 
ENDBRANCH   2   6
BRANCH   2  12
ATOM     12  C   UNL     1      34.993 -23.115 -16.395  0.00  0.00    +0.060 C 
ATOM     13  C   UNL     1      33.988 -23.155 -17.331  0.00  0.00    +0.015 C 
ATOM     14  C   UNL     1      36.183 -22.459 -16.596  0.00  0.00    +0.015 C 
ATOM     15  C   UNL     1      34.188 -22.498 -18.546  0.00  0.00    +0.001 C 
ATOM     16  C   UNL     1      36.381 -21.803 -17.811  0.00  0.00    +0.001 C 
ATOM     17  C   UNL     1      35.384 -21.822 -18.786  0.00  0.00    +0.000 C 
ENDBRANCH   2  12
BRANCH   3  18
ATOM     18  N   UNL     1      31.242 -23.384 -14.570  0.00  0.00    -0.143 NA
BRANCH  18  21
ATOM     19  N   UNL     1      30.462 -25.028 -13.122  0.00  0.00    -0.369 N 
ATOM     20  N   UNL     1      30.018 -25.317 -15.338  0.00  0.00    -0.369 N 
ATOM     21  C   UNL     1      30.607 -24.512 -14.388  0.00  0.00    +0.208 C 
ATOM     22  H   UNL     1      30.840 -24.549 -12.349  0.00  0.00    +0.159 HD
ATOM     23  H   UNL     1      29.982 -25.876 -12.988  0.00  0.00    +0.159 HD
ATOM     24  H   UNL     1      30.048 -25.062 -16.289  0.00  0.00    +0.159 HD
ATOM     25  H   UNL     1      29.564 -26.148 -15.066  0.00  0.00    +0.159 HD
ENDBRANCH  18  21
ENDBRANCH   3  18
TORSDOF 4
ENDMDL
MODEL 9
REMARK VINA RESULT:      -8.3      6.113      9.349
REMARK  Name = 4073054
REMARK  4 active torsions:
REMARK  status: ('A' for Active; 'I' for Inactive)
REMARK    1  A    between atoms: N_2  and  C_14
REMARK    2  A    between atoms: N_2  and  C_20
REMARK    3  A    between atoms: N_3  and  N_6
REMARK    4  A    between atoms: N_6  and  C_9
REMARK                            x       y       z     vdW  Elec       q    Type
REMARK                         _______ _______ _______ _____ _____    ______ ____
ROOT
ATOM      1  O   UNL     1      31.644 -22.190 -17.559  0.00  0.00    -0.250 OA
ATOM      2  N   UNL     1      33.055 -23.428 -16.153  0.00  0.00    -0.221 N 
ATOM      3  N   UNL     1      33.589 -23.054 -18.425  0.00  0.00    -0.187 N 
ATOM      4  C   UNL     1      32.687 -22.829 -17.389  0.00  0.00    +0.331 C 
ATOM      5  H   UNL     1      34.415 -23.567 -18.268  0.00  0.00    +0.179 HD
ENDROOT
BRANCH   2   6
ATOM      6  C   UNL     1      32.011 -23.842 -15.244  0.00  0.00    +0.060 C 
ATOM      7  C   UNL     1      31.925 -23.218 -14.027  0.00  0.00    +0.015 C 
ATOM      8  C   UNL     1      31.158 -24.838 -15.648  0.00  0.00    +0.015 C 
ATOM      9  C   UNL     1      30.917 -23.617 -13.151  0.00  0.00    +0.001 C 
ATOM     10  C   UNL     1      30.150 -25.237 -14.770  0.00  0.00    +0.001 C 
ATOM     11  C   UNL     1      30.028 -24.627 -13.522  0.00  0.00    +0.000 C 
ENDBRANCH   2   6
BRANCH   2  12
ATOM     12  C   UNL     1      34.426 -23.637 -15.771  0.00  0.00    +0.060 C 
ATOM     13  C   UNL     1      35.294 -22.574 -15.839  0.00  0.00    +0.015 C 
ATOM     14  C   UNL     1      34.804 -24.891 -15.354  0.00  0.00    +0.015 C 
ATOM     15  C   UNL     1      36.623 -22.778 -15.468  0.00  0.00    +0.001 C 
ATOM     16  C   UNL     1      36.134 -25.093 -14.983  0.00  0.00    +0.001 C 
ATOM     17  C   UNL     1      37.043 -24.037 -15.040  0.00  0.00    +0.000 C 
ENDBRANCH   2  12
BRANCH   3  18
ATOM     18  N   UNL     1      33.311 -22.558 -19.652  0.00  0.00    -0.143 NA
BRANCH  18  21
ATOM     19  N   UNL     1      32.617 -20.378 -20.072  0.00  0.00    -0.369 N 
ATOM     20  N   UNL     1      34.861 -20.719 -19.862  0.00  0.00    -0.369 N 
ATOM     21  C   UNL     1      33.612 -21.301 -19.848  0.00  0.00    +0.208 C 
ATOM     22  H   UNL     1      31.675 -20.664 -20.088  0.00  0.00    +0.159 HD
ATOM     23  H   UNL     1      32.847 -19.433 -20.218  0.00  0.00    +0.159 HD
ATOM     24  H   UNL     1      35.663 -21.270 -19.714  0.00  0.00    +0.159 HD
ATOM     25  H   UNL     1      34.951 -19.751 -20.021  0.00  0.00    +0.159 HD
ENDBRANCH  18  21
ENDBRANCH   3  18
TORSDOF 4
ENDMDL
