MODEL 1
REMARK VINA RESULT:     -10.1      0.000      0.000
REMARK  Name = 444853
REMARK  9 active torsions:
REMARK  status: ('A' for Active; 'I' for Inactive)
REMARK    1  A    between atoms: C_5  and  O_31
REMARK    2  A    between atoms: C_6  and  C_13
REMARK    3  A    between atoms: C_7  and  O_11
REMARK    4  A    between atoms: C_8  and  C_15
REMARK    5  A    between atoms: C_16  and  C_17
REMARK    6  A    between atoms: C_18  and  C_19
REMARK    7  A    between atoms: C_20  and  C_23
REMARK    8  A    between atoms: C_25  and  O_29
REMARK    9  A    between atoms: O_31  and  C_33
REMARK                            x       y       z     vdW  Elec       q    Type
REMARK                         _______ _______ _______ _____ _____    ______ ____
ROOT
ATOM      1  O   UNL     1      36.206 -25.694 -13.402  0.00  0.00    -0.352 OA
ATOM      2  O   UNL     1      37.340 -22.954 -13.923  0.00  0.00    -0.348 OA
ATOM      3  C   UNL     1      37.890 -24.053 -13.177  0.00  0.00    +0.157 C 
ATOM      4  C   UNL     1      37.026 -25.659 -14.603  0.00  0.00    +0.159 C 
ATOM      5  C   UNL     1      38.387 -25.107 -14.159  0.00  0.00    +0.222 C 
ATOM      6  C   UNL     1      36.833 -24.855 -12.405  0.00  0.00    +0.143 C 
ATOM      7  C   UNL     1      36.422 -24.604 -15.553  0.00  0.00    +0.170 C 
ATOM      8  C   UNL     1      36.283 -23.245 -14.846  0.00  0.00    +0.166 C 
ATOM      9  C   UNL     1      38.973 -23.481 -12.271  0.00  0.00    +0.036 C 
ATOM     10  C   UNL     1      37.059 -27.055 -15.210  0.00  0.00    +0.036 C 
ENDROOT
BRANCH   7  11
ATOM     11  O   UNL     1      35.140 -25.022 -16.022  0.00  0.00    -0.379 OA
ATOM     12  H   UNL     1      35.107 -25.991 -16.052  0.00  0.00    +0.211 HD
ENDBRANCH   7  11
BRANCH   6  13
ATOM     13  C   UNL     1      35.800 -24.077 -11.610  0.00  0.00    +0.032 C 
ATOM     14  C   UNL     1      35.693 -24.581 -10.180  0.00  0.00    +0.003 C 
ENDBRANCH   6  13
BRANCH   8  15
ATOM     15  C   UNL     1      36.241 -22.124 -15.839  0.00  0.00    +0.005 C 
ATOM     16  C   UNL     1      36.809 -22.061 -17.054  0.00  0.00    -0.002 C 
BRANCH  16  17
ATOM     17  C   UNL     1      36.747 -20.958 -17.986  0.00  0.00    -0.000 C 
ATOM     18  C   UNL     1      36.330 -21.102 -19.255  0.00  0.00    +0.000 C 
BRANCH  18  19
ATOM     19  C   UNL     1      36.264 -20.003 -20.193  0.00  0.00    +0.003 C 
ATOM     20  C   UNL     1      35.109 -19.452 -20.592  0.00  0.00    +0.037 C 
BRANCH  20  23
ATOM     21  O   UNL     1      35.002 -17.105 -20.859  0.00  0.00    -0.421 OA
ATOM     22  O   UNL     1      34.900 -14.840 -20.978  0.00  0.00    -0.244 OA
ATOM     23  C   UNL     1      35.036 -18.360 -21.522  0.00  0.00    +0.148 C 
ATOM     24  C   UNL     1      35.000 -18.452 -22.866  0.00  0.00    +0.047 C 
ATOM     25  C   UNL     1      34.925 -17.210 -23.618  0.00  0.00    +0.144 C 
ATOM     26  C   UNL     1      35.031 -19.730 -23.660  0.00  0.00    +0.037 C 
ATOM     27  C   UNL     1      34.930 -15.928 -21.544  0.00  0.00    +0.349 C 
ATOM     28  C   UNL     1      34.891 -16.019 -23.012  0.00  0.00    +0.119 C 
BRANCH  25  29
ATOM     29  O   UNL     1      34.891 -17.333 -24.992  0.00  0.00    -0.471 OA
ATOM     30  C   UNL     1      34.010 -16.384 -25.559  0.00  0.00    +0.252 C 
ENDBRANCH  25  29
ENDBRANCH  20  23
ENDBRANCH  18  19
ENDBRANCH  16  17
ENDBRANCH   8  15
BRANCH   5  31
ATOM     31  O   UNL     1      39.170 -26.092 -13.501  0.00  0.00    -0.447 OA
BRANCH  31  33
ATOM     32  O   UNL     1      41.302 -26.979 -13.507  0.00  0.00    -0.250 OA
ATOM     33  C   UNL     1      40.419 -26.305 -14.017  0.00  0.00    +0.318 C 
ATOM     34  C   UNL     1      40.561 -25.584 -15.323  0.00  0.00    +0.121 C 
ENDBRANCH  31  33
ENDBRANCH   5  31
TORSDOF 9
ENDMDL
MODEL 2
REMARK VINA RESULT:      -9.0      1.438      3.136
REMARK  Name = 444853
REMARK  9 active torsions:
REMARK  status: ('A' for Active; 'I' for Inactive)
REMARK    1  A    between atoms: C_5  and  O_31
REMARK    2  A    between atoms: C_6  and  C_13
REMARK    3  A    between atoms: C_7  and  O_11
REMARK    4  A    between atoms: C_8  and  C_15
REMARK    5  A    between atoms: C_16  and  C_17
REMARK    6  A    between atoms: C_18  and  C_19
REMARK    7  A    between atoms: C_20  and  C_23
REMARK    8  A    between atoms: C_25  and  O_29
REMARK    9  A    between atoms: O_31  and  C_33
REMARK                            x       y       z     vdW  Elec       q    Type
REMARK                         _______ _______ _______ _____ _____    ______ ____
ROOT
ATOM      1  O   UNL     1      37.723 -25.650 -14.503  0.00  0.00    -0.352 OA
ATOM      2  O   UNL     1      35.701 -23.565 -15.297  0.00  0.00    -0.348 OA
ATOM      3  C   UNL     1      35.747 -24.410 -14.135  0.00  0.00    +0.157 C 
ATOM      4  C   UNL     1      38.055 -24.335 -13.976  0.00  0.00    +0.159 C 
ATOM      5  C   UNL     1      36.819 -23.880 -13.190  0.00  0.00    +0.222 C 
ATOM      6  C   UNL     1      36.289 -25.817 -14.425  0.00  0.00    +0.143 C 
ATOM      7  C   UNL     1      38.185 -23.370 -15.172  0.00  0.00    +0.170 C 
ATOM      8  C   UNL     1      36.915 -23.398 -16.040  0.00  0.00    +0.166 C 
ATOM      9  C   UNL     1      34.344 -24.431 -13.542  0.00  0.00    +0.036 C 
ATOM     10  C   UNL     1      39.336 -24.447 -13.161  0.00  0.00    +0.036 C 
ENDROOT
BRANCH   7  11
ATOM     11  O   UNL     1      39.312 -23.713 -15.978  0.00  0.00    -0.379 OA
ATOM     12  H   UNL     1      39.025 -23.840 -16.896  0.00  0.00    +0.211 HD
ENDBRANCH   7  11
BRANCH   6  13
ATOM     13  C   UNL     1      35.751 -26.542 -15.645  0.00  0.00    +0.032 C 
ATOM     14  C   UNL     1      36.791 -27.468 -16.253  0.00  0.00    +0.003 C 
ENDBRANCH   6  13
BRANCH   8  15
ATOM     15  C   UNL     1      36.779 -22.134 -16.834  0.00  0.00    +0.005 C 
ATOM     16  C   UNL     1      36.667 -21.990 -18.164  0.00  0.00    -0.002 C 
BRANCH  16  17
ATOM     17  C   UNL     1      36.538 -20.750 -18.895  0.00  0.00    -0.000 C 
ATOM     18  C   UNL     1      36.004 -20.684 -20.126  0.00  0.00    +0.000 C 
BRANCH  18  19
ATOM     19  C   UNL     1      35.871 -19.447 -20.863  0.00  0.00    +0.003 C 
ATOM     20  C   UNL     1      34.891 -19.229 -21.752  0.00  0.00    +0.037 C 
BRANCH  20  23
ATOM     21  O   UNL     1      34.776 -16.871 -21.631  0.00  0.00    -0.421 OA
ATOM     22  O   UNL     1      34.678 -14.616 -21.378  0.00  0.00    -0.244 OA
ATOM     23  C   UNL     1      34.752 -18.003 -22.487  0.00  0.00    +0.148 C 
ATOM     24  C   UNL     1      34.612 -17.879 -23.822  0.00  0.00    +0.047 C 
ATOM     25  C   UNL     1      34.486 -16.533 -24.358  0.00  0.00    +0.144 C 
ATOM     26  C   UNL     1      34.574 -19.014 -24.810  0.00  0.00    +0.037 C 
ATOM     27  C   UNL     1      34.658 -15.599 -22.111  0.00  0.00    +0.349 C 
ATOM     28  C   UNL     1      34.505 -15.455 -23.568  0.00  0.00    +0.119 C 
BRANCH  25  29
ATOM     29  O   UNL     1      34.345 -16.435 -25.727  0.00  0.00    -0.471 OA
ATOM     30  C   UNL     1      33.443 -15.400 -26.065  0.00  0.00    +0.252 C 
ENDBRANCH  25  29
ENDBRANCH  20  23
ENDBRANCH  18  19
ENDBRANCH  16  17
ENDBRANCH   8  15
BRANCH   5  31
ATOM     31  O   UNL     1      36.737 -24.508 -11.919  0.00  0.00    -0.447 OA
BRANCH  31  33
ATOM     32  O   UNL     1      37.125 -22.637 -10.622  0.00  0.00    -0.250 OA
ATOM     33  C   UNL     1      36.523 -23.675 -10.854  0.00  0.00    +0.318 C 
ATOM     34  C   UNL     1      35.426 -24.221  -9.991  0.00  0.00    +0.121 C 
ENDBRANCH  31  33
ENDBRANCH   5  31
TORSDOF 9
ENDMDL
MODEL 3
REMARK VINA RESULT:      -8.4      1.872      4.310
REMARK  Name = 444853
REMARK  9 active torsions:
REMARK  status: ('A' for Active; 'I' for Inactive)
REMARK    1  A    between atoms: C_5  and  O_31
REMARK    2  A    between atoms: C_6  and  C_13
REMARK    3  A    between atoms: C_7  and  O_11
REMARK    4  A    between atoms: C_8  and  C_15
REMARK    5  A    between atoms: C_16  and  C_17
REMARK    6  A    between atoms: C_18  and  C_19
REMARK    7  A    between atoms: C_20  and  C_23
REMARK    8  A    between atoms: C_25  and  O_29
REMARK    9  A    between atoms: O_31  and  C_33
REMARK                            x       y       z     vdW  Elec       q    Type
REMARK                         _______ _______ _______ _____ _____    ______ ____
ROOT
ATOM      1  O   UNL     1      36.620 -24.875 -13.631  0.00  0.00    -0.352 OA
ATOM      2  O   UNL     1      35.378 -23.900 -16.195  0.00  0.00    -0.348 OA
ATOM      3  C   UNL     1      34.812 -24.697 -15.140  0.00  0.00    +0.157 C 
ATOM      4  C   UNL     1      35.964 -23.586 -13.468  0.00  0.00    +0.159 C 
ATOM      5  C   UNL     1      34.521 -23.792 -13.949  0.00  0.00    +0.222 C 
ATOM      6  C   UNL     1      35.811 -25.682 -14.518  0.00  0.00    +0.143 C 
ATOM      7  C   UNL     1      36.613 -22.600 -14.460  0.00  0.00    +0.170 C 
ATOM      8  C   UNL     1      36.564 -23.154 -15.895  0.00  0.00    +0.166 C 
ATOM      9  C   UNL     1      33.583 -25.391 -15.715  0.00  0.00    +0.036 C 
ATOM     10  C   UNL     1      36.106 -23.148 -12.017  0.00  0.00    +0.036 C 
ENDROOT
BRANCH   7  11
ATOM     11  O   UNL     1      37.971 -22.344 -14.103  0.00  0.00    -0.379 OA
ATOM     12  H   UNL     1      38.111 -21.386 -14.032  0.00  0.00    +0.211 HD
ENDBRANCH   7  11
BRANCH   6  13
ATOM     13  C   UNL     1      36.676 -26.500 -15.460  0.00  0.00    +0.032 C 
ATOM     14  C   UNL     1      38.119 -26.561 -14.990  0.00  0.00    +0.003 C 
ENDBRANCH   6  13
BRANCH   8  15
ATOM     15  C   UNL     1      36.658 -22.048 -16.902  0.00  0.00    +0.005 C 
ATOM     16  C   UNL     1      36.295 -22.061 -18.194  0.00  0.00    -0.002 C 
BRANCH  16  17
ATOM     17  C   UNL     1      36.403 -20.970 -19.137  0.00  0.00    -0.000 C 
ATOM     18  C   UNL     1      35.396 -20.609 -19.949  0.00  0.00    +0.000 C 
BRANCH  18  19
ATOM     19  C   UNL     1      35.497 -19.519 -20.894  0.00  0.00    +0.003 C 
ATOM     20  C   UNL     1      34.428 -18.870 -21.377  0.00  0.00    +0.037 C 
BRANCH  20  23
ATOM     21  O   UNL     1      34.536 -18.251 -23.656  0.00  0.00    -0.421 OA
ATOM     22  O   UNL     1      34.635 -17.790 -25.877  0.00  0.00    -0.244 OA
ATOM     23  C   UNL     1      34.520 -17.786 -22.315  0.00  0.00    +0.148 C 
ATOM     24  C   UNL     1      34.587 -16.473 -22.019  0.00  0.00    +0.047 C 
ATOM     25  C   UNL     1      34.677 -15.542 -23.132  0.00  0.00    +0.144 C 
ATOM     26  C   UNL     1      34.578 -15.883 -20.634  0.00  0.00    +0.037 C 
ATOM     27  C   UNL     1      34.622 -17.396 -24.715  0.00  0.00    +0.349 C 
ATOM     28  C   UNL     1      34.694 -15.960 -24.402  0.00  0.00    +0.119 C 
BRANCH  25  29
ATOM     29  O   UNL     1      34.742 -14.204 -22.802  0.00  0.00    -0.471 OA
ATOM     30  C   UNL     1      33.928 -13.434 -23.664  0.00  0.00    +0.252 C 
ENDBRANCH  25  29
ENDBRANCH  20  23
ENDBRANCH  18  19
ENDBRANCH  16  17
ENDBRANCH   8  15
BRANCH   5  31
ATOM     31  O   UNL     1      33.729 -24.462 -12.979  0.00  0.00    -0.447 OA
BRANCH  31  33
ATOM     32  O   UNL     1      31.575 -25.294 -13.040  0.00  0.00    -0.250 OA
ATOM     33  C   UNL     1      32.375 -24.375 -13.153  0.00  0.00    +0.318 C 
ATOM     34  C   UNL     1      31.994 -22.970 -13.507  0.00  0.00    +0.121 C 
ENDBRANCH  31  33
ENDBRANCH   5  31
TORSDOF 9
ENDMDL
MODEL 4
REMARK VINA RESULT:      -8.1      2.766      4.316
REMARK  Name = 444853
REMARK  9 active torsions:
REMARK  status: ('A' for Active; 'I' for Inactive)
REMARK    1  A    between atoms: C_5  and  O_31
REMARK    2  A    between atoms: C_6  and  C_13
REMARK    3  A    between atoms: C_7  and  O_11
REMARK    4  A    between atoms: C_8  and  C_15
REMARK    5  A    between atoms: C_16  and  C_17
REMARK    6  A    between atoms: C_18  and  C_19
REMARK    7  A    between atoms: C_20  and  C_23
REMARK    8  A    between atoms: C_25  and  O_29
REMARK    9  A    between atoms: O_31  and  C_33
REMARK                            x       y       z     vdW  Elec       q    Type
REMARK                         _______ _______ _______ _____ _____    ______ ____
ROOT
ATOM      1  O   UNL     1      33.283 -25.658 -14.624  0.00  0.00    -0.352 OA
ATOM      2  O   UNL     1      32.370 -22.881 -15.347  0.00  0.00    -0.348 OA
ATOM      3  C   UNL     1      32.506 -23.501 -14.057  0.00  0.00    +0.157 C 
ATOM      4  C   UNL     1      34.386 -24.709 -14.660  0.00  0.00    +0.159 C 
ATOM      5  C   UNL     1      33.988 -23.575 -13.706  0.00  0.00    +0.222 C 
ATOM      6  C   UNL     1      32.134 -24.990 -14.053  0.00  0.00    +0.143 C 
ATOM      7  C   UNL     1      34.428 -24.091 -16.072  0.00  0.00    +0.170 C 
ATOM      8  C   UNL     1      33.064 -23.485 -16.446  0.00  0.00    +0.166 C 
ATOM      9  C   UNL     1      31.671 -22.684 -13.079  0.00  0.00    +0.036 C 
ATOM     10  C   UNL     1      35.669 -25.442 -14.294  0.00  0.00    +0.036 C 
ENDROOT
BRANCH   7  11
ATOM     11  O   UNL     1      34.786 -25.074 -17.043  0.00  0.00    -0.379 OA
ATOM     12  H   UNL     1      34.515 -24.771 -17.924  0.00  0.00    +0.211 HD
ENDBRANCH   7  11
BRANCH   6  13
ATOM     13  C   UNL     1      30.853 -25.399 -14.758  0.00  0.00    +0.032 C 
ATOM     14  C   UNL     1      29.638 -24.706 -14.164  0.00  0.00    +0.003 C 
ENDBRANCH   6  13
BRANCH   8  15
ATOM     15  C   UNL     1      33.214 -22.436 -17.505  0.00  0.00    +0.005 C 
ATOM     16  C   UNL     1      34.064 -22.413 -18.544  0.00  0.00    -0.002 C 
BRANCH  16  17
ATOM     17  C   UNL     1      34.180 -21.379 -19.548  0.00  0.00    -0.000 C 
ATOM     18  C   UNL     1      33.136 -20.636 -19.950  0.00  0.00    +0.000 C 
BRANCH  18  19
ATOM     19  C   UNL     1      33.244 -19.600 -20.953  0.00  0.00    +0.003 C 
ATOM     20  C   UNL     1      34.389 -18.952 -21.212  0.00  0.00    +0.037 C 
BRANCH  20  23
ATOM     21  O   UNL     1      34.515 -18.459 -23.521  0.00  0.00    -0.421 OA
ATOM     22  O   UNL     1      34.628 -18.122 -25.764  0.00  0.00    -0.244 OA
ATOM     23  C   UNL     1      34.504 -17.923 -22.207  0.00  0.00    +0.148 C 
ATOM     24  C   UNL     1      34.595 -16.597 -21.983  0.00  0.00    +0.047 C 
ATOM     25  C   UNL     1      34.705 -15.729 -23.145  0.00  0.00    +0.144 C 
ATOM     26  C   UNL     1      34.593 -15.932 -20.633  0.00  0.00    +0.037 C 
ATOM     27  C   UNL     1      34.619 -17.665 -24.625  0.00  0.00    +0.349 C 
ATOM     28  C   UNL     1      34.718 -16.216 -24.390  0.00  0.00    +0.119 C 
BRANCH  25  29
ATOM     29  O   UNL     1      34.795 -14.377 -22.887  0.00  0.00    -0.471 OA
ATOM     30  C   UNL     1      33.844 -13.657 -23.647  0.00  0.00    +0.252 C 
ENDBRANCH  25  29
ENDBRANCH  20  23
ENDBRANCH  18  19
ENDBRANCH  16  17
ENDBRANCH   8  15
BRANCH   5  31
ATOM     31  O   UNL     1      34.174 -23.935 -12.345  0.00  0.00    -0.447 OA
BRANCH  31  33
ATOM     32  O   UNL     1      36.215 -22.858 -12.256  0.00  0.00    -0.250 OA
ATOM     33  C   UNL     1      35.410 -23.670 -11.822  0.00  0.00    +0.318 C 
ATOM     34  C   UNL     1      35.650 -24.529 -10.618  0.00  0.00    +0.121 C 
ENDBRANCH  31  33
ENDBRANCH   5  31
TORSDOF 9
ENDMDL
MODEL 5
REMARK VINA RESULT:      -7.5      1.826      2.872
REMARK  Name = 444853
REMARK  9 active torsions:
REMARK  status: ('A' for Active; 'I' for Inactive)
REMARK    1  A    between atoms: C_5  and  O_31
REMARK    2  A    between atoms: C_6  and  C_13
REMARK    3  A    between atoms: C_7  and  O_11
REMARK    4  A    between atoms: C_8  and  C_15
REMARK    5  A    between atoms: C_16  and  C_17
REMARK    6  A    between atoms: C_18  and  C_19
REMARK    7  A    between atoms: C_20  and  C_23
REMARK    8  A    between atoms: C_25  and  O_29
REMARK    9  A    between atoms: O_31  and  C_33
REMARK                            x       y       z     vdW  Elec       q    Type
REMARK                         _______ _______ _______ _____ _____    ______ ____
ROOT
ATOM      1  O   UNL     1      35.603 -23.971 -13.365  0.00  0.00    -0.352 OA
ATOM      2  O   UNL     1      37.235 -23.071 -15.730  0.00  0.00    -0.348 OA
ATOM      3  C   UNL     1      37.339 -24.267 -14.938  0.00  0.00    +0.157 C 
ATOM      4  C   UNL     1      35.053 -24.448 -14.624  0.00  0.00    +0.159 C 
ATOM      5  C   UNL     1      36.196 -25.202 -15.316  0.00  0.00    +0.222 C 
ATOM      6  C   UNL     1      37.045 -24.040 -13.449  0.00  0.00    +0.143 C 
ATOM      7  C   UNL     1      34.755 -23.216 -15.503  0.00  0.00    +0.170 C 
ATOM      8  C   UNL     1      36.007 -22.336 -15.656  0.00  0.00    +0.166 C 
ATOM      9  C   UNL     1      38.727 -24.845 -15.182  0.00  0.00    +0.036 C 
ATOM     10  C   UNL     1      33.813 -25.281 -14.329  0.00  0.00    +0.036 C 
ENDROOT
BRANCH   7  11
ATOM     11  O   UNL     1      33.700 -22.436 -14.939  0.00  0.00    -0.379 OA
ATOM     12  H   UNL     1      33.237 -22.959 -14.265  0.00  0.00    +0.211 HD
ENDBRANCH   7  11
BRANCH   6  13
ATOM     13  C   UNL     1      37.694 -22.844 -12.776  0.00  0.00    +0.032 C 
ATOM     14  C   UNL     1      37.139 -22.612 -11.381  0.00  0.00    +0.003 C 
ENDBRANCH   6  13
BRANCH   8  15
ATOM     15  C   UNL     1      35.922 -21.491 -16.891  0.00  0.00    +0.005 C 
ATOM     16  C   UNL     1      36.062 -21.866 -18.172  0.00  0.00    -0.002 C 
BRANCH  16  17
ATOM     17  C   UNL     1      35.974 -21.018 -19.340  0.00  0.00    -0.000 C 
ATOM     18  C   UNL     1      34.810 -20.738 -19.948  0.00  0.00    +0.000 C 
BRANCH  18  19
ATOM     19  C   UNL     1      34.714 -19.890 -21.116  0.00  0.00    +0.003 C 
ATOM     20  C   UNL     1      34.832 -18.556 -21.061  0.00  0.00    +0.037 C 
BRANCH  20  23
ATOM     21  O   UNL     1      34.744 -18.457 -23.421  0.00  0.00    -0.421 OA
ATOM     22  O   UNL     1      34.670 -18.500 -25.690  0.00  0.00    -0.244 OA
ATOM     23  C   UNL     1      34.738 -17.707 -22.216  0.00  0.00    +0.148 C 
ATOM     24  C   UNL     1      34.654 -16.362 -22.219  0.00  0.00    +0.047 C 
ATOM     25  C   UNL     1      34.568 -15.701 -23.511  0.00  0.00    +0.144 C 
ATOM     26  C   UNL     1      34.641 -15.480 -20.999  0.00  0.00    +0.037 C 
ATOM     27  C   UNL     1      34.666 -17.859 -24.644  0.00  0.00    +0.349 C 
ATOM     28  C   UNL     1      34.573 -16.390 -24.657  0.00  0.00    +0.119 C 
BRANCH  25  29
ATOM     29  O   UNL     1      34.481 -14.325 -23.485  0.00  0.00    -0.471 OA
ATOM     30  C   UNL     1      33.340 -13.881 -24.193  0.00  0.00    +0.252 C 
ENDBRANCH  25  29
ENDBRANCH  20  23
ENDBRANCH  18  19
ENDBRANCH  16  17
ENDBRANCH   8  15
BRANCH   5  31
ATOM     31  O   UNL     1      36.389 -26.496 -14.764  0.00  0.00    -0.447 OA
BRANCH  31  33
ATOM     32  O   UNL     1      36.661 -27.804 -16.648  0.00  0.00    -0.250 OA
ATOM     33  C   UNL     1      37.045 -27.393 -15.562  0.00  0.00    +0.318 C 
ATOM     34  C   UNL     1      38.328 -27.813 -14.911  0.00  0.00    +0.121 C 
ENDBRANCH  31  33
ENDBRANCH   5  31
TORSDOF 9
ENDMDL
MODEL 6
REMARK VINA RESULT:      -7.4      1.701     11.624
REMARK  Name = 444853
REMARK  9 active torsions:
REMARK  status: ('A' for Active; 'I' for Inactive)
REMARK    1  A    between atoms: C_5  and  O_31
REMARK    2  A    between atoms: C_6  and  C_13
REMARK    3  A    between atoms: C_7  and  O_11
REMARK    4  A    between atoms: C_8  and  C_15
REMARK    5  A    between atoms: C_16  and  C_17
REMARK    6  A    between atoms: C_18  and  C_19
REMARK    7  A    between atoms: C_20  and  C_23
REMARK    8  A    between atoms: C_25  and  O_29
REMARK    9  A    between atoms: O_31  and  C_33
REMARK                            x       y       z     vdW  Elec       q    Type
REMARK                         _______ _______ _______ _____ _____    ______ ____
ROOT
ATOM      1  O   UNL     1      33.610 -18.388 -22.953  0.00  0.00    -0.352 OA
ATOM      2  O   UNL     1      35.945 -19.510 -21.419  0.00  0.00    -0.348 OA
ATOM      3  C   UNL     1      35.858 -18.329 -22.234  0.00  0.00    +0.157 C 
ATOM      4  C   UNL     1      33.682 -17.859 -21.599  0.00  0.00    +0.159 C 
ATOM      5  C   UNL     1      35.089 -17.262 -21.464  0.00  0.00    +0.222 C 
ATOM      6  C   UNL     1      34.957 -18.502 -23.464  0.00  0.00    +0.143 C 
ATOM      7  C   UNL     1      33.625 -19.053 -20.625  0.00  0.00    +0.170 C 
ATOM      8  C   UNL     1      34.717 -20.085 -20.957  0.00  0.00    +0.166 C 
ATOM      9  C   UNL     1      37.283 -17.933 -22.599  0.00  0.00    +0.036 C 
ATOM     10  C   UNL     1      32.539 -16.874 -21.400  0.00  0.00    +0.036 C 
ENDROOT
BRANCH   7  11
ATOM     11  O   UNL     1      32.347 -19.688 -20.679  0.00  0.00    -0.379 OA
ATOM     12  H   UNL     1      31.878 -19.540 -19.843  0.00  0.00    +0.211 HD
ENDBRANCH   7  11
BRANCH   6  13
ATOM     13  C   UNL     1      35.128 -19.763 -24.292  0.00  0.00    +0.032 C 
ATOM     14  C   UNL     1      34.185 -19.787 -25.483  0.00  0.00    +0.003 C 
ENDBRANCH   6  13
BRANCH   8  15
ATOM     15  C   UNL     1      35.043 -20.926 -19.760  0.00  0.00    +0.005 C 
ATOM     16  C   UNL     1      36.249 -21.221 -19.250  0.00  0.00    -0.002 C 
BRANCH  16  17
ATOM     17  C   UNL     1      36.525 -22.040 -18.090  0.00  0.00    -0.000 C 
ATOM     18  C   UNL     1      37.206 -21.586 -17.026  0.00  0.00    +0.000 C 
BRANCH  18  19
ATOM     19  C   UNL     1      37.485 -22.398 -15.862  0.00  0.00    +0.003 C 
ATOM     20  C   UNL     1      36.685 -23.395 -15.459  0.00  0.00    +0.037 C 
BRANCH  20  23
ATOM     21  O   UNL     1      38.235 -24.815 -14.379  0.00  0.00    -0.421 OA
ATOM     22  O   UNL     1      39.809 -26.162 -13.449  0.00  0.00    -0.244 OA
ATOM     23  C   UNL     1      36.955 -24.206 -14.305  0.00  0.00    +0.148 C 
ATOM     24  C   UNL     1      36.136 -24.404 -13.253  0.00  0.00    +0.047 C 
ATOM     25  C   UNL     1      36.614 -25.270 -12.188  0.00  0.00    +0.144 C 
ATOM     26  C   UNL     1      34.765 -23.806 -13.084  0.00  0.00    +0.037 C 
ATOM     27  C   UNL     1      38.704 -25.633 -13.393  0.00  0.00    +0.349 C 
ATOM     28  C   UNL     1      37.817 -25.853 -12.240  0.00  0.00    +0.119 C 
BRANCH  25  29
ATOM     29  O   UNL     1      35.757 -25.454 -11.123  0.00  0.00    -0.471 OA
ATOM     30  C   UNL     1      35.835 -24.365 -10.223  0.00  0.00    +0.252 C 
ENDBRANCH  25  29
ENDBRANCH  20  23
ENDBRANCH  18  19
ENDBRANCH  16  17
ENDBRANCH   8  15
BRANCH   5  31
ATOM     31  O   UNL     1      35.192 -15.997 -22.100  0.00  0.00    -0.447 OA
BRANCH  31  33
ATOM     32  O   UNL     1      34.952 -14.777 -20.154  0.00  0.00    -0.250 OA
ATOM     33  C   UNL     1      34.790 -14.921 -21.357  0.00  0.00    +0.318 C 
ATOM     34  C   UNL     1      34.108 -13.918 -22.238  0.00  0.00    +0.121 C 
ENDBRANCH  31  33
ENDBRANCH   5  31
TORSDOF 9
ENDMDL
MODEL 7
REMARK VINA RESULT:      -7.2      5.830     10.851
REMARK  Name = 444853
REMARK  9 active torsions:
REMARK  status: ('A' for Active; 'I' for Inactive)
REMARK    1  A    between atoms: C_5  and  O_31
REMARK    2  A    between atoms: C_6  and  C_13
REMARK    3  A    between atoms: C_7  and  O_11
REMARK    4  A    between atoms: C_8  and  C_15
REMARK    5  A    between atoms: C_16  and  C_17
REMARK    6  A    between atoms: C_18  and  C_19
REMARK    7  A    between atoms: C_20  and  C_23
REMARK    8  A    between atoms: C_25  and  O_29
REMARK    9  A    between atoms: O_31  and  C_33
REMARK                            x       y       z     vdW  Elec       q    Type
REMARK                         _______ _______ _______ _____ _____    ______ ____
ROOT
ATOM      1  O   UNL     1      35.588 -19.116 -23.407  0.00  0.00    -0.352 OA
ATOM      2  O   UNL     1      33.445 -17.816 -21.741  0.00  0.00    -0.348 OA
ATOM      3  C   UNL     1      33.981 -19.148 -21.678  0.00  0.00    +0.157 C 
ATOM      4  C   UNL     1      36.130 -18.479 -22.217  0.00  0.00    +0.159 C 
ATOM      5  C   UNL     1      35.362 -19.087 -21.036  0.00  0.00    +0.222 C 
ATOM      6  C   UNL     1      34.328 -19.731 -23.055  0.00  0.00    +0.143 C 
ATOM      7  C   UNL     1      35.739 -16.988 -22.263  0.00  0.00    +0.170 C 
ATOM      8  C   UNL     1      34.218 -16.824 -22.428  0.00  0.00    +0.166 C 
ATOM      9  C   UNL     1      32.973 -20.000 -20.916  0.00  0.00    +0.036 C 
ATOM     10  C   UNL     1      37.637 -18.697 -22.191  0.00  0.00    +0.036 C 
ENDROOT
BRANCH   7  11
ATOM     11  O   UNL     1      36.401 -16.325 -23.341  0.00  0.00    -0.379 OA
ATOM     12  H   UNL     1      35.740 -15.936 -23.935  0.00  0.00    +0.211 HD
ENDBRANCH   7  11
BRANCH   6  13
ATOM     13  C   UNL     1      33.307 -19.571 -24.166  0.00  0.00    +0.032 C 
ATOM     14  C   UNL     1      33.847 -18.732 -25.311  0.00  0.00    +0.003 C 
ENDBRANCH   6  13
BRANCH   8  15
ATOM     15  C   UNL     1      33.764 -15.485 -21.932  0.00  0.00    +0.005 C 
ATOM     16  C   UNL     1      33.085 -14.535 -22.593  0.00  0.00    -0.002 C 
BRANCH  16  17
ATOM     17  C   UNL     1      32.665 -13.251 -22.078  0.00  0.00    -0.000 C 
ATOM     18  C   UNL     1      32.559 -12.158 -22.851  0.00  0.00    +0.000 C 
BRANCH  18  19
ATOM     19  C   UNL     1      32.139 -10.870 -22.343  0.00  0.00    +0.003 C 
ATOM     20  C   UNL     1      32.619  -9.709 -22.811  0.00  0.00    +0.037 C 
BRANCH  20  23
ATOM     21  O   UNL     1      32.691  -8.191 -21.000  0.00  0.00    -0.421 OA
ATOM     22  O   UNL     1      32.837  -6.826 -19.192  0.00  0.00    -0.244 OA
ATOM     23  C   UNL     1      32.206  -8.427 -22.313  0.00  0.00    +0.148 C 
ATOM     24  C   UNL     1      31.451  -7.519 -22.962  0.00  0.00    +0.047 C 
ATOM     25  C   UNL     1      31.150  -6.279 -22.265  0.00  0.00    +0.144 C 
ATOM     26  C   UNL     1      30.890  -7.675 -24.350  0.00  0.00    +0.037 C 
ATOM     27  C   UNL     1      32.421  -7.037 -20.326  0.00  0.00    +0.349 C 
ATOM     28  C   UNL     1      31.598  -6.039 -21.028  0.00  0.00    +0.119 C 
BRANCH  25  29
ATOM     29  O   UNL     1      30.378  -5.366 -22.953  0.00  0.00    -0.471 OA
ATOM     30  C   UNL     1      31.097  -4.170 -23.179  0.00  0.00    +0.252 C 
ENDBRANCH  25  29
ENDBRANCH  20  23
ENDBRANCH  18  19
ENDBRANCH  16  17
ENDBRANCH   8  15
BRANCH   5  31
ATOM     31  O   UNL     1      35.833 -20.387 -20.710  0.00  0.00    -0.447 OA
BRANCH  31  33
ATOM     32  O   UNL     1      37.215 -19.794 -18.957  0.00  0.00    -0.250 OA
ATOM     33  C   UNL     1      36.378 -20.528 -19.463  0.00  0.00    +0.318 C 
ATOM     34  C   UNL     1      35.796 -21.731 -18.784  0.00  0.00    +0.121 C 
ENDBRANCH  31  33
ENDBRANCH   5  31
TORSDOF 9
ENDMDL
