MODEL 1
REMARK VINA RESULT:      -8.1      0.000      0.000
REMARK  Name = 3676
REMARK  5 active torsions:
REMARK  status: ('A' for Active; 'I' for Inactive)
REMARK    1  A    between atoms: N_2  and  C_5
REMARK    2  A    between atoms: C_3  and  C_13
REMARK    3  A    between atoms: C_13  and  N_14
REMARK    4  A    between atoms: N_14  and  C_16
REMARK    5  A    between atoms: N_14  and  C_18
REMARK                            x       y       z     vdW  Elec       q    Type
REMARK                         _______ _______ _______ _____ _____    ______ ____
ROOT
ATOM      1  O   UNL     1      35.244 -16.664 -20.356  0.00  0.00    -0.277 OA
ATOM      2  N   UNL     1      34.783 -18.494 -21.753  0.00  0.00    -0.286 N 
ATOM      3  C   UNL     1      34.936 -17.145 -21.442  0.00  0.00    +0.205 C 
ATOM      4  H   UNL     1      34.525 -18.700 -22.681  0.00  0.00    +0.155 HD
ENDROOT
BRANCH   2   5
ATOM      5  C   UNL     1      34.952 -19.603 -20.891  0.00  0.00    +0.042 C 
ATOM      6  C   UNL     1      36.233 -20.016 -20.556  0.00  0.00    -0.009 C 
ATOM      7  C   UNL     1      33.835 -20.259 -20.397  0.00  0.00    -0.009 C 
ATOM      8  C   UNL     1      36.400 -21.110 -19.707  0.00  0.00    -0.003 C 
ATOM      9  C   UNL     1      34.002 -21.354 -19.547  0.00  0.00    -0.003 C 
ATOM     10  C   UNL     1      37.447 -19.320 -21.080  0.00  0.00    +0.032 C 
ATOM     11  C   UNL     1      32.448 -19.827 -20.748  0.00  0.00    +0.032 C 
ATOM     12  C   UNL     1      35.285 -21.779 -19.203  0.00  0.00    -0.001 C 
ENDBRANCH   2   5
BRANCH   3  13
ATOM     13  C   UNL     1      34.657 -16.288 -22.665  0.00  0.00    +0.010 C 
BRANCH  13  14
ATOM     14  N   UNL     1      34.124 -14.994 -22.242  0.00  0.00    +0.393 N 
ATOM     15  H   UNL     1      34.707 -14.637 -21.484  0.00  0.00    -0.079 HD
BRANCH  14  16
ATOM     16  C   UNL     1      32.757 -15.141 -21.745  0.00  0.00    -0.077 C 
ATOM     17  C   UNL     1      32.556 -14.368 -20.453  0.00  0.00    -0.025 C 
ENDBRANCH  14  16
BRANCH  14  18
ATOM     18  C   UNL     1      34.166 -14.037 -23.348  0.00  0.00    -0.077 C 
ATOM     19  C   UNL     1      33.368 -14.540 -24.540  0.00  0.00    -0.025 C 
ENDBRANCH  14  18
ENDBRANCH  13  14
ENDBRANCH   3  13
TORSDOF 5
ENDMDL
MODEL 2
REMARK VINA RESULT:      -8.1      0.022      2.087
REMARK  Name = 3676
REMARK  5 active torsions:
REMARK  status: ('A' for Active; 'I' for Inactive)
REMARK    1  A    between atoms: N_2  and  C_5
REMARK    2  A    between atoms: C_3  and  C_13
REMARK    3  A    between atoms: C_13  and  N_14
REMARK    4  A    between atoms: N_14  and  C_16
REMARK    5  A    between atoms: N_14  and  C_18
REMARK                            x       y       z     vdW  Elec       q    Type
REMARK                         _______ _______ _______ _____ _____    ______ ____
ROOT
ATOM      1  O   UNL     1      35.246 -16.656 -20.350  0.00  0.00    -0.277 OA
ATOM      2  N   UNL     1      34.786 -18.483 -21.751  0.00  0.00    -0.286 N 
ATOM      3  C   UNL     1      34.936 -17.134 -21.437  0.00  0.00    +0.205 C 
ATOM      4  H   UNL     1      34.527 -18.687 -22.679  0.00  0.00    +0.155 HD
ENDROOT
BRANCH   2   5
ATOM      5  C   UNL     1      34.961 -19.594 -20.892  0.00  0.00    +0.042 C 
ATOM      6  C   UNL     1      33.846 -20.246 -20.386  0.00  0.00    -0.009 C 
ATOM      7  C   UNL     1      36.243 -20.011 -20.570  0.00  0.00    -0.009 C 
ATOM      8  C   UNL     1      34.018 -21.339 -19.539  0.00  0.00    -0.003 C 
ATOM      9  C   UNL     1      36.415 -21.106 -19.722  0.00  0.00    -0.003 C 
ATOM     10  C   UNL     1      32.457 -19.808 -20.724  0.00  0.00    +0.032 C 
ATOM     11  C   UNL     1      37.455 -19.320 -21.106  0.00  0.00    +0.032 C 
ATOM     12  C   UNL     1      35.302 -21.770 -19.206  0.00  0.00    -0.001 C 
ENDBRANCH   2   5
BRANCH   3  13
ATOM     13  C   UNL     1      34.653 -16.275 -22.658  0.00  0.00    +0.010 C 
BRANCH  13  14
ATOM     14  N   UNL     1      34.122 -14.981 -22.229  0.00  0.00    +0.393 N 
ATOM     15  H   UNL     1      34.708 -14.627 -21.472  0.00  0.00    -0.079 HD
BRANCH  14  16
ATOM     16  C   UNL     1      32.756 -15.128 -21.728  0.00  0.00    -0.077 C 
ATOM     17  C   UNL     1      32.549 -14.327 -20.455  0.00  0.00    -0.025 C 
ENDBRANCH  14  16
BRANCH  14  18
ATOM     18  C   UNL     1      34.162 -14.022 -23.333  0.00  0.00    -0.077 C 
ATOM     19  C   UNL     1      33.363 -14.522 -24.525  0.00  0.00    -0.025 C 
ENDBRANCH  14  18
ENDBRANCH  13  14
ENDBRANCH   3  13
TORSDOF 5
ENDMDL
MODEL 3
REMARK VINA RESULT:      -8.0      0.984      2.790
REMARK  Name = 3676
REMARK  5 active torsions:
REMARK  status: ('A' for Active; 'I' for Inactive)
REMARK    1  A    between atoms: N_2  and  C_5
REMARK    2  A    between atoms: C_3  and  C_13
REMARK    3  A    between atoms: C_13  and  N_14
REMARK    4  A    between atoms: N_14  and  C_16
REMARK    5  A    between atoms: N_14  and  C_18
REMARK                            x       y       z     vdW  Elec       q    Type
REMARK                         _______ _______ _______ _____ _____    ______ ____
ROOT
ATOM      1  O   UNL     1      35.315 -16.932 -20.263  0.00  0.00    -0.277 OA
ATOM      2  N   UNL     1      35.059 -18.796 -21.667  0.00  0.00    -0.286 N 
ATOM      3  C   UNL     1      35.246 -17.447 -21.374  0.00  0.00    +0.205 C 
ATOM      4  H   UNL     1      35.024 -19.033 -22.622  0.00  0.00    +0.155 HD
ENDROOT
BRANCH   2   5
ATOM      5  C   UNL     1      34.913 -19.866 -20.752  0.00  0.00    +0.042 C 
ATOM      6  C   UNL     1      33.641 -20.311 -20.422  0.00  0.00    -0.009 C 
ATOM      7  C   UNL     1      36.043 -20.450 -20.200  0.00  0.00    -0.009 C 
ATOM      8  C   UNL     1      33.496 -21.364 -19.520  0.00  0.00    -0.003 C 
ATOM      9  C   UNL     1      35.898 -21.505 -19.298  0.00  0.00    -0.003 C 
ATOM     10  C   UNL     1      32.414 -19.691 -21.008  0.00  0.00    +0.032 C 
ATOM     11  C   UNL     1      37.420 -19.983 -20.545  0.00  0.00    +0.032 C 
ATOM     12  C   UNL     1      34.625 -21.961 -18.957  0.00  0.00    -0.001 C 
ENDBRANCH   2   5
BRANCH   3  13
ATOM     13  C   UNL     1      35.355 -16.641 -22.657  0.00  0.00    +0.010 C 
BRANCH  13  14
ATOM     14  N   UNL     1      34.049 -16.073 -22.988  0.00  0.00    +0.393 N 
ATOM     15  H   UNL     1      33.326 -16.715 -22.660  0.00  0.00    -0.079 HD
BRANCH  14  16
ATOM     16  C   UNL     1      33.909 -15.919 -24.436  0.00  0.00    -0.077 C 
ATOM     17  C   UNL     1      34.491 -17.112 -25.174  0.00  0.00    -0.025 C 
ENDBRANCH  14  16
BRANCH  14  18
ATOM     18  C   UNL     1      33.866 -14.786 -22.317  0.00  0.00    -0.077 C 
ATOM     19  C   UNL     1      32.620 -14.793 -21.447  0.00  0.00    -0.025 C 
ENDBRANCH  14  18
ENDBRANCH  13  14
ENDBRANCH   3  13
TORSDOF 5
ENDMDL
MODEL 4
REMARK VINA RESULT:      -7.7      2.656      4.231
REMARK  Name = 3676
REMARK  5 active torsions:
REMARK  status: ('A' for Active; 'I' for Inactive)
REMARK    1  A    between atoms: N_2  and  C_5
REMARK    2  A    between atoms: C_3  and  C_13
REMARK    3  A    between atoms: C_13  and  N_14
REMARK    4  A    between atoms: N_14  and  C_16
REMARK    5  A    between atoms: N_14  and  C_18
REMARK                            x       y       z     vdW  Elec       q    Type
REMARK                         _______ _______ _______ _____ _____    ______ ____
ROOT
ATOM      1  O   UNL     1      32.221 -14.692 -22.479  0.00  0.00    -0.277 OA
ATOM      2  N   UNL     1      34.459 -14.948 -23.140  0.00  0.00    -0.286 N 
ATOM      3  C   UNL     1      33.264 -14.257 -22.955  0.00  0.00    +0.205 C 
ATOM      4  H   UNL     1      35.199 -14.439 -23.544  0.00  0.00    +0.155 HD
ENDROOT
BRANCH   2   5
ATOM      5  C   UNL     1      34.734 -16.298 -22.815  0.00  0.00    +0.042 C 
ATOM      6  C   UNL     1      34.863 -17.231 -23.834  0.00  0.00    -0.009 C 
ATOM      7  C   UNL     1      34.868 -16.666 -21.485  0.00  0.00    -0.009 C 
ATOM      8  C   UNL     1      35.132 -18.561 -23.515  0.00  0.00    -0.003 C 
ATOM      9  C   UNL     1      35.138 -17.997 -21.166  0.00  0.00    -0.003 C 
ATOM     10  C   UNL     1      34.721 -16.850 -25.272  0.00  0.00    +0.032 C 
ATOM     11  C   UNL     1      34.732 -15.674 -20.376  0.00  0.00    +0.032 C 
ATOM     12  C   UNL     1      35.270 -18.944 -22.181  0.00  0.00    -0.001 C 
ENDBRANCH   2   5
BRANCH   3  13
ATOM     13  C   UNL     1      33.405 -12.824 -23.443  0.00  0.00    +0.010 C 
BRANCH  13  14
ATOM     14  N   UNL     1      33.933 -12.825 -24.807  0.00  0.00    +0.393 N 
ATOM     15  H   UNL     1      34.824 -13.322 -24.808  0.00  0.00    -0.079 HD
BRANCH  14  16
ATOM     16  C   UNL     1      34.165 -11.456 -25.267  0.00  0.00    -0.077 C 
ATOM     17  C   UNL     1      33.839 -10.448 -24.179  0.00  0.00    -0.025 C 
ENDBRANCH  14  16
BRANCH  14  18
ATOM     18  C   UNL     1      33.014 -13.519 -25.710  0.00  0.00    -0.077 C 
ATOM     19  C   UNL     1      33.365 -13.249 -27.163  0.00  0.00    -0.025 C 
ENDBRANCH  14  18
ENDBRANCH  13  14
ENDBRANCH   3  13
TORSDOF 5
ENDMDL
MODEL 5
REMARK VINA RESULT:      -7.7      2.639      4.224
REMARK  Name = 3676
REMARK  5 active torsions:
REMARK  status: ('A' for Active; 'I' for Inactive)
REMARK    1  A    between atoms: N_2  and  C_5
REMARK    2  A    between atoms: C_3  and  C_13
REMARK    3  A    between atoms: C_13  and  N_14
REMARK    4  A    between atoms: N_14  and  C_16
REMARK    5  A    between atoms: N_14  and  C_18
REMARK                            x       y       z     vdW  Elec       q    Type
REMARK                         _______ _______ _______ _____ _____    ______ ____
ROOT
ATOM      1  O   UNL     1      32.218 -14.727 -22.399  0.00  0.00    -0.277 OA
ATOM      2  N   UNL     1      34.439 -14.963 -23.123  0.00  0.00    -0.286 N 
ATOM      3  C   UNL     1      33.242 -14.284 -22.910  0.00  0.00    +0.205 C 
ATOM      4  H   UNL     1      35.160 -14.450 -23.554  0.00  0.00    +0.155 HD
ENDROOT
BRANCH   2   5
ATOM      5  C   UNL     1      34.739 -16.307 -22.794  0.00  0.00    +0.042 C 
ATOM      6  C   UNL     1      34.884 -16.667 -21.463  0.00  0.00    -0.009 C 
ATOM      7  C   UNL     1      34.884 -17.241 -23.809  0.00  0.00    -0.009 C 
ATOM      8  C   UNL     1      35.181 -17.990 -21.139  0.00  0.00    -0.003 C 
ATOM      9  C   UNL     1      35.180 -18.565 -23.485  0.00  0.00    -0.003 C 
ATOM     10  C   UNL     1      34.731 -15.672 -20.358  0.00  0.00    +0.032 C 
ATOM     11  C   UNL     1      34.731 -16.870 -25.249  0.00  0.00    +0.032 C 
ATOM     12  C   UNL     1      35.329 -18.939 -22.150  0.00  0.00    -0.001 C 
ENDBRANCH   2   5
BRANCH   3  13
ATOM     13  C   UNL     1      33.351 -12.855 -23.416  0.00  0.00    +0.010 C 
BRANCH  13  14
ATOM     14  N   UNL     1      33.878 -12.861 -24.780  0.00  0.00    +0.393 N 
ATOM     15  H   UNL     1      34.778 -13.342 -24.777  0.00  0.00    -0.079 HD
BRANCH  14  16
ATOM     16  C   UNL     1      34.085 -11.493 -25.255  0.00  0.00    -0.077 C 
ATOM     17  C   UNL     1      33.737 -10.479 -24.179  0.00  0.00    -0.025 C 
ENDBRANCH  14  16
BRANCH  14  18
ATOM     18  C   UNL     1      32.971 -13.581 -25.674  0.00  0.00    -0.077 C 
ATOM     19  C   UNL     1      33.321 -13.327 -27.131  0.00  0.00    -0.025 C 
ENDBRANCH  14  18
ENDBRANCH  13  14
ENDBRANCH   3  13
TORSDOF 5
ENDMDL
MODEL 6
REMARK VINA RESULT:      -7.2      2.901      4.596
REMARK  Name = 3676
REMARK  5 active torsions:
REMARK  status: ('A' for Active; 'I' for Inactive)
REMARK    1  A    between atoms: N_2  and  C_5
REMARK    2  A    between atoms: C_3  and  C_13
REMARK    3  A    between atoms: C_13  and  N_14
REMARK    4  A    between atoms: N_14  and  C_16
REMARK    5  A    between atoms: N_14  and  C_18
REMARK                            x       y       z     vdW  Elec       q    Type
REMARK                         _______ _______ _______ _____ _____    ______ ____
ROOT
ATOM      1  O   UNL     1      32.151 -15.437 -21.645  0.00  0.00    -0.277 OA
ATOM      2  N   UNL     1      34.160 -15.167 -22.829  0.00  0.00    -0.286 N 
ATOM      3  C   UNL     1      33.084 -14.751 -22.049  0.00  0.00    +0.205 C 
ATOM      4  H   UNL     1      34.819 -14.475 -23.067  0.00  0.00    +0.155 HD
ENDROOT
BRANCH   2   5
ATOM      5  C   UNL     1      34.416 -16.469 -23.323  0.00  0.00    +0.042 C 
ATOM      6  C   UNL     1      34.190 -16.746 -24.663  0.00  0.00    -0.009 C 
ATOM      7  C   UNL     1      34.887 -17.445 -22.457  0.00  0.00    -0.009 C 
ATOM      8  C   UNL     1      34.441 -18.029 -25.148  0.00  0.00    -0.003 C 
ATOM      9  C   UNL     1      35.138 -18.728 -22.944  0.00  0.00    -0.003 C 
ATOM     10  C   UNL     1      33.683 -15.706 -25.608  0.00  0.00    +0.032 C 
ATOM     11  C   UNL     1      35.136 -17.163 -21.011  0.00  0.00    +0.032 C 
ATOM     12  C   UNL     1      34.915 -19.020 -24.289  0.00  0.00    -0.001 C 
ENDBRANCH   2   5
BRANCH   3  13
ATOM     13  C   UNL     1      33.200 -13.267 -21.743  0.00  0.00    +0.010 C 
BRANCH  13  14
ATOM     14  N   UNL     1      32.446 -12.504 -22.736  0.00  0.00    +0.393 N 
ATOM     15  H   UNL     1      31.875 -13.155 -23.277  0.00  0.00    -0.079 HD
BRANCH  14  16
ATOM     16  C   UNL     1      33.355 -11.815 -23.651  0.00  0.00    -0.077 C 
ATOM     17  C   UNL     1      33.130 -10.314 -23.621  0.00  0.00    -0.025 C 
ENDBRANCH  14  16
BRANCH  14  18
ATOM     18  C   UNL     1      31.558 -11.545 -22.079  0.00  0.00    -0.077 C 
ATOM     19  C   UNL     1      31.559 -11.739 -20.572  0.00  0.00    -0.025 C 
ENDBRANCH  14  18
ENDBRANCH  13  14
ENDBRANCH   3  13
TORSDOF 5
ENDMDL
MODEL 7
REMARK VINA RESULT:      -7.2      3.213      5.029
REMARK  Name = 3676
REMARK  5 active torsions:
REMARK  status: ('A' for Active; 'I' for Inactive)
REMARK    1  A    between atoms: N_2  and  C_5
REMARK    2  A    between atoms: C_3  and  C_13
REMARK    3  A    between atoms: C_13  and  N_14
REMARK    4  A    between atoms: N_14  and  C_16
REMARK    5  A    between atoms: N_14  and  C_18
REMARK                            x       y       z     vdW  Elec       q    Type
REMARK                         _______ _______ _______ _____ _____    ______ ____
ROOT
ATOM      1  O   UNL     1      31.786 -15.331 -21.304  0.00  0.00    -0.277 OA
ATOM      2  N   UNL     1      33.729 -14.595 -22.398  0.00  0.00    -0.286 N 
ATOM      3  C   UNL     1      32.619 -14.469 -21.565  0.00  0.00    +0.205 C 
ATOM      4  H   UNL     1      34.292 -13.793 -22.497  0.00  0.00    +0.155 HD
ENDROOT
BRANCH   2   5
ATOM      5  C   UNL     1      34.141 -15.741 -23.120  0.00  0.00    +0.042 C 
ATOM      6  C   UNL     1      34.759 -16.784 -22.446  0.00  0.00    -0.009 C 
ATOM      7  C   UNL     1      33.920 -15.800 -24.487  0.00  0.00    -0.009 C 
ATOM      8  C   UNL     1      35.166 -17.913 -23.158  0.00  0.00    -0.003 C 
ATOM      9  C   UNL     1      34.327 -16.930 -25.199  0.00  0.00    -0.003 C 
ATOM     10  C   UNL     1      35.004 -16.735 -20.973  0.00  0.00    +0.032 C 
ATOM     11  C   UNL     1      33.255 -14.685 -25.228  0.00  0.00    +0.032 C 
ATOM     12  C   UNL     1      34.950 -17.986 -24.533  0.00  0.00    -0.001 C 
ENDBRANCH   2   5
BRANCH   3  13
ATOM     13  C   UNL     1      32.551 -13.064 -20.990  0.00  0.00    +0.010 C 
BRANCH  13  14
ATOM     14  N   UNL     1      31.601 -12.267 -21.764  0.00  0.00    +0.393 N 
ATOM     15  H   UNL     1      30.960 -12.902 -22.241  0.00  0.00    -0.079 HD
BRANCH  14  16
ATOM     16  C   UNL     1      32.302 -11.473 -22.773  0.00  0.00    -0.077 C 
ATOM     17  C   UNL     1      31.864 -10.019 -22.729  0.00  0.00    -0.025 C 
ENDBRANCH  14  16
BRANCH  14  18
ATOM     18  C   UNL     1      30.822 -11.399 -20.881  0.00  0.00    -0.077 C 
ATOM     19  C   UNL     1      31.462 -11.299 -19.506  0.00  0.00    -0.025 C 
ENDBRANCH  14  18
ENDBRANCH  13  14
ENDBRANCH   3  13
TORSDOF 5
ENDMDL
MODEL 8
REMARK VINA RESULT:      -7.1      4.052      5.918
REMARK  Name = 3676
REMARK  5 active torsions:
REMARK  status: ('A' for Active; 'I' for Inactive)
REMARK    1  A    between atoms: N_2  and  C_5
REMARK    2  A    between atoms: C_3  and  C_13
REMARK    3  A    between atoms: C_13  and  N_14
REMARK    4  A    between atoms: N_14  and  C_16
REMARK    5  A    between atoms: N_14  and  C_18
REMARK                            x       y       z     vdW  Elec       q    Type
REMARK                         _______ _______ _______ _____ _____    ______ ____
ROOT
ATOM      1  O   UNL     1      34.090 -11.887 -23.867  0.00  0.00    -0.277 OA
ATOM      2  N   UNL     1      32.766 -13.683 -23.137  0.00  0.00    -0.286 N 
ATOM      3  C   UNL     1      33.078 -12.341 -23.344  0.00  0.00    +0.205 C 
ATOM      4  H   UNL     1      31.906 -13.867 -22.694  0.00  0.00    +0.155 HD
ENDROOT
BRANCH   2   5
ATOM      5  C   UNL     1      33.544 -14.813 -23.486  0.00  0.00    +0.042 C 
ATOM      6  C   UNL     1      34.282 -15.461 -22.506  0.00  0.00    -0.009 C 
ATOM      7  C   UNL     1      33.555 -15.252 -24.801  0.00  0.00    -0.009 C 
ATOM      8  C   UNL     1      35.048 -16.574 -22.851  0.00  0.00    -0.003 C 
ATOM      9  C   UNL     1      34.322 -16.366 -25.146  0.00  0.00    -0.003 C 
ATOM     10  C   UNL     1      34.280 -15.001 -21.085  0.00  0.00    +0.032 C 
ATOM     11  C   UNL     1      32.766 -14.565 -25.869  0.00  0.00    +0.032 C 
ATOM     12  C   UNL     1      35.069 -17.026 -24.170  0.00  0.00    -0.001 C 
ENDBRANCH   2   5
BRANCH   3  13
ATOM     13  C   UNL     1      31.963 -11.455 -22.815  0.00  0.00    +0.010 C 
BRANCH  13  14
ATOM     14  N   UNL     1      32.500 -10.131 -22.503  0.00  0.00    +0.393 N 
ATOM     15  H   UNL     1      33.506 -10.217 -22.356  0.00  0.00    -0.079 HD
BRANCH  14  16
ATOM     16  C   UNL     1      31.896  -9.608 -21.278  0.00  0.00    -0.077 C 
ATOM     17  C   UNL     1      31.409 -10.734 -20.382  0.00  0.00    -0.025 C 
ENDBRANCH  14  16
BRANCH  14  18
ATOM     18  C   UNL     1      32.272  -9.211 -23.618  0.00  0.00    -0.077 C 
ATOM     19  C   UNL     1      31.169  -8.218 -23.293  0.00  0.00    -0.025 C 
ENDBRANCH  14  18
ENDBRANCH  13  14
ENDBRANCH   3  13
TORSDOF 5
ENDMDL
MODEL 9
REMARK VINA RESULT:      -7.0      4.059      6.006
REMARK  Name = 3676
REMARK  5 active torsions:
REMARK  status: ('A' for Active; 'I' for Inactive)
REMARK    1  A    between atoms: N_2  and  C_5
REMARK    2  A    between atoms: C_3  and  C_13
REMARK    3  A    between atoms: C_13  and  N_14
REMARK    4  A    between atoms: N_14  and  C_16
REMARK    5  A    between atoms: N_14  and  C_18
REMARK                            x       y       z     vdW  Elec       q    Type
REMARK                         _______ _______ _______ _____ _____    ______ ____
ROOT
ATOM      1  O   UNL     1      34.112 -11.903 -23.795  0.00  0.00    -0.277 OA
ATOM      2  N   UNL     1      32.743 -13.710 -23.183  0.00  0.00    -0.286 N 
ATOM      3  C   UNL     1      33.077 -12.365 -23.327  0.00  0.00    +0.205 C 
ATOM      4  H   UNL     1      31.866 -13.900 -22.779  0.00  0.00    +0.155 HD
ENDROOT
BRANCH   2   5
ATOM      5  C   UNL     1      33.520 -14.835 -23.548  0.00  0.00    +0.042 C 
ATOM      6  C   UNL     1      33.534 -15.254 -24.871  0.00  0.00    -0.009 C 
ATOM      7  C   UNL     1      34.253 -15.500 -22.577  0.00  0.00    -0.009 C 
ATOM      8  C   UNL     1      34.298 -16.363 -25.230  0.00  0.00    -0.003 C 
ATOM      9  C   UNL     1      35.019 -16.610 -22.937  0.00  0.00    -0.003 C 
ATOM     10  C   UNL     1      32.749 -14.547 -25.928  0.00  0.00    +0.032 C 
ATOM     11  C   UNL     1      34.250 -15.063 -21.148  0.00  0.00    +0.032 C 
ATOM     12  C   UNL     1      35.040 -17.042 -24.263  0.00  0.00    -0.001 C 
ENDBRANCH   2   5
BRANCH   3  13
ATOM     13  C   UNL     1      31.953 -11.486 -22.804  0.00  0.00    +0.010 C 
BRANCH  13  14
ATOM     14  N   UNL     1      32.478 -10.158 -22.491  0.00  0.00    +0.393 N 
ATOM     15  H   UNL     1      33.484 -10.237 -22.336  0.00  0.00    -0.079 HD
BRANCH  14  16
ATOM     16  C   UNL     1      31.862  -9.636 -21.272  0.00  0.00    -0.077 C 
ATOM     17  C   UNL     1      31.311 -10.759 -20.411  0.00  0.00    -0.025 C 
ENDBRANCH  14  16
BRANCH  14  18
ATOM     18  C   UNL     1      32.253  -9.243 -23.610  0.00  0.00    -0.077 C 
ATOM     19  C   UNL     1      31.176  -8.224 -23.278  0.00  0.00    -0.025 C 
ENDBRANCH  14  18
ENDBRANCH  13  14
ENDBRANCH   3  13
TORSDOF 5
ENDMDL
