MODEL 1
REMARK VINA RESULT:      -8.5      0.000      0.000
REMARK  Name = 45273683
REMARK  3 active torsions:
REMARK  status: ('A' for Active; 'I' for Inactive)
REMARK    1  A    between atoms: C_5  and  C_20
REMARK    2  A    between atoms: C_14  and  O_18
REMARK    3  A    between atoms: C_20  and  N_21
REMARK                            x       y       z     vdW  Elec       q    Type
REMARK                         _______ _______ _______ _____ _____    ______ ____
ROOT
ATOM      1  S   UNL     1      35.085 -23.012 -16.106  0.00  0.00    -0.081 S 
ATOM      2  O   UNL     1      37.920 -22.839 -15.356  0.00  0.00    -0.270 OA
ATOM      3  N   UNL     1      35.039 -24.726 -12.614  0.00  0.00    -0.331 N 
ATOM      4  N   UNL     1      37.947 -24.324 -13.671  0.00  0.00    -0.302 N 
ATOM      5  C   UNL     1      37.444 -25.294 -12.709  0.00  0.00    +0.070 C 
ATOM      6  C   UNL     1      36.291 -24.729 -11.893  0.00  0.00    +0.105 C 
ATOM      7  C   UNL     1      34.838 -24.163 -13.835  0.00  0.00    +0.056 A 
ATOM      8  C   UNL     1      35.807 -23.657 -14.683  0.00  0.00    +0.096 A 
ATOM      9  C   UNL     1      33.498 -24.059 -14.378  0.00  0.00    +0.023 A 
ATOM     10  C   UNL     1      37.261 -23.567 -14.605  0.00  0.00    +0.253 C 
ATOM     11  C   UNL     1      33.499 -23.440 -15.627  0.00  0.00    +0.031 A 
ATOM     12  C   UNL     1      32.241 -24.466 -13.851  0.00  0.00    +0.039 C 
ATOM     13  C   UNL     1      32.311 -23.221 -16.354  0.00  0.00    +0.010 C 
ATOM     14  C   UNL     1      31.060 -24.253 -14.567  0.00  0.00    +0.139 C 
ATOM     15  C   UNL     1      31.096 -23.637 -15.807  0.00  0.00    +0.037 C 
ATOM     16  H   UNL     1      34.270 -25.167 -12.187  0.00  0.00    +0.147 HD
ATOM     17  H   UNL     1      38.922 -24.186 -13.656  0.00  0.00    +0.150 HD
ENDROOT
BRANCH  14  18
ATOM     18  O   UNL     1      29.869 -24.653 -14.040  0.00  0.00    -0.471 OA
ATOM     19  C   UNL     1      28.842 -25.016 -14.961  0.00  0.00    +0.252 C 
ENDBRANCH  14  18
BRANCH   5  20
ATOM     20  C   UNL     1      37.164 -26.648 -13.358  0.00  0.00    -0.064 C 
BRANCH  20  21
ATOM     21  N   UNL     1      38.167 -26.958 -14.365  0.00  0.00    +0.382 N 
ATOM     22  H   UNL     1      37.855 -26.617 -15.274  0.00  0.00    -0.089 HD
ATOM     23  H   UNL     1      38.302 -27.968 -14.410  0.00  0.00    -0.089 HD
ATOM     24  H   UNL     1      39.048 -26.508 -14.117  0.00  0.00    -0.089 HD
ENDBRANCH  20  21
ENDBRANCH   5  20
TORSDOF 3
ENDMDL
MODEL 2
REMARK VINA RESULT:      -8.1     10.913     12.561
REMARK  Name = 45273683
REMARK  3 active torsions:
REMARK  status: ('A' for Active; 'I' for Inactive)
REMARK    1  A    between atoms: C_5  and  C_20
REMARK    2  A    between atoms: C_14  and  O_18
REMARK    3  A    between atoms: C_20  and  N_21
REMARK                            x       y       z     vdW  Elec       q    Type
REMARK                         _______ _______ _______ _____ _____    ______ ____
ROOT
ATOM      1  S   UNL     1      34.098 -17.322 -25.473  0.00  0.00    -0.081 S 
ATOM      2  O   UNL     1      35.079 -19.974 -24.680  0.00  0.00    -0.270 OA
ATOM      3  N   UNL     1      34.903 -16.727 -21.713  0.00  0.00    -0.331 N 
ATOM      4  N   UNL     1      34.962 -19.760 -22.448  0.00  0.00    -0.302 N 
ATOM      5  C   UNL     1      34.730 -19.130 -21.155  0.00  0.00    +0.070 C 
ATOM      6  C   UNL     1      35.514 -17.834 -21.013  0.00  0.00    +0.105 C 
ATOM      7  C   UNL     1      34.564 -16.723 -23.030  0.00  0.00    +0.056 A 
ATOM      8  C   UNL     1      34.568 -17.806 -23.890  0.00  0.00    +0.096 A 
ATOM      9  C   UNL     1      34.128 -15.495 -23.666  0.00  0.00    +0.023 A 
ATOM     10  C   UNL     1      34.885 -19.221 -23.720  0.00  0.00    +0.253 C 
ATOM     11  C   UNL     1      33.843 -15.692 -25.016  0.00  0.00    +0.031 A 
ATOM     12  C   UNL     1      33.964 -14.180 -23.149  0.00  0.00    +0.039 C 
ATOM     13  C   UNL     1      33.405 -14.642 -25.848  0.00  0.00    +0.010 C 
ATOM     14  C   UNL     1      33.530 -13.135 -23.968  0.00  0.00    +0.139 C 
ATOM     15  C   UNL     1      33.252 -13.366 -25.306  0.00  0.00    +0.037 C 
ATOM     16  H   UNL     1      34.718 -15.911 -21.196  0.00  0.00    +0.147 HD
ATOM     17  H   UNL     1      35.212 -20.712 -22.411  0.00  0.00    +0.150 HD
ENDROOT
BRANCH  14  18
ATOM     18  O   UNL     1      33.380 -11.886 -23.447  0.00  0.00    -0.471 OA
ATOM     19  C   UNL     1      33.933 -10.802 -24.193  0.00  0.00    +0.252 C 
ENDBRANCH  14  18
BRANCH   5  20
ATOM     20  C   UNL     1      33.241 -19.015 -20.837  0.00  0.00    -0.064 C 
BRANCH  20  21
ATOM     21  N   UNL     1      32.715 -20.280 -20.349  0.00  0.00    +0.382 N 
ATOM     22  H   UNL     1      33.487 -20.891 -20.083  0.00  0.00    -0.089 HD
ATOM     23  H   UNL     1      32.168 -20.727 -21.085  0.00  0.00    -0.089 HD
ATOM     24  H   UNL     1      32.120 -20.111 -19.538  0.00  0.00    -0.089 HD
ENDBRANCH  20  21
ENDBRANCH   5  20
TORSDOF 3
ENDMDL
MODEL 3
REMARK VINA RESULT:      -8.0     10.649     12.120
REMARK  Name = 45273683
REMARK  3 active torsions:
REMARK  status: ('A' for Active; 'I' for Inactive)
REMARK    1  A    between atoms: C_5  and  C_20
REMARK    2  A    between atoms: C_14  and  O_18
REMARK    3  A    between atoms: C_20  and  N_21
REMARK                            x       y       z     vdW  Elec       q    Type
REMARK                         _______ _______ _______ _____ _____    ______ ____
ROOT
ATOM      1  S   UNL     1      33.513 -15.223 -24.513  0.00  0.00    -0.081 S 
ATOM      2  O   UNL     1      35.094 -17.517 -25.439  0.00  0.00    -0.270 OA
ATOM      3  N   UNL     1      34.670 -16.746 -21.126  0.00  0.00    -0.331 N 
ATOM      4  N   UNL     1      35.232 -18.671 -23.518  0.00  0.00    -0.302 N 
ATOM      5  C   UNL     1      35.052 -18.984 -22.107  0.00  0.00    +0.070 C 
ATOM      6  C   UNL     1      35.575 -17.869 -21.213  0.00  0.00    +0.105 C 
ATOM      7  C   UNL     1      34.167 -16.061 -22.187  0.00  0.00    +0.056 A 
ATOM      8  C   UNL     1      34.273 -16.406 -23.522  0.00  0.00    +0.096 A 
ATOM      9  C   UNL     1      33.418 -14.838 -21.975  0.00  0.00    +0.023 A 
ATOM     10  C   UNL     1      34.883 -17.532 -24.222  0.00  0.00    +0.253 C 
ATOM     11  C   UNL     1      33.002 -14.277 -23.181  0.00  0.00    +0.031 A 
ATOM     12  C   UNL     1      33.066 -14.151 -20.780  0.00  0.00    +0.039 C 
ATOM     13  C   UNL     1      32.260 -13.080 -23.233  0.00  0.00    +0.010 C 
ATOM     14  C   UNL     1      32.329 -12.964 -20.823  0.00  0.00    +0.139 C 
ATOM     15  C   UNL     1      31.930 -12.435 -22.040  0.00  0.00    +0.037 C 
ATOM     16  H   UNL     1      34.397 -16.454 -20.228  0.00  0.00    +0.147 HD
ATOM     17  H   UNL     1      35.668 -19.375 -24.050  0.00  0.00    +0.150 HD
ENDROOT
BRANCH  14  18
ATOM     18  O   UNL     1      32.005 -12.328 -19.664  0.00  0.00    -0.471 OA
ATOM     19  C   UNL     1      31.297 -11.094 -19.778  0.00  0.00    +0.252 C 
ENDBRANCH  14  18
BRANCH   5  20
ATOM     20  C   UNL     1      33.624 -19.432 -21.800  0.00  0.00    -0.064 C 
BRANCH  20  21
ATOM     21  N   UNL     1      33.570 -20.175 -20.551  0.00  0.00    +0.382 N 
ATOM     22  H   UNL     1      32.615 -20.171 -20.193  0.00  0.00    -0.089 HD
ATOM     23  H   UNL     1      34.190 -19.739 -19.869  0.00  0.00    -0.089 HD
ATOM     24  H   UNL     1      33.868 -21.137 -20.715  0.00  0.00    -0.089 HD
ENDBRANCH  20  21
ENDBRANCH   5  20
TORSDOF 3
ENDMDL
MODEL 4
REMARK VINA RESULT:      -7.3      7.175      8.736
REMARK  Name = 45273683
REMARK  3 active torsions:
REMARK  status: ('A' for Active; 'I' for Inactive)
REMARK    1  A    between atoms: C_5  and  C_20
REMARK    2  A    between atoms: C_14  and  O_18
REMARK    3  A    between atoms: C_20  and  N_21
REMARK                            x       y       z     vdW  Elec       q    Type
REMARK                         _______ _______ _______ _____ _____    ______ ____
ROOT
ATOM      1  S   UNL     1      37.136 -20.442 -19.857  0.00  0.00    -0.081 S 
ATOM      2  O   UNL     1      38.228 -18.729 -21.978  0.00  0.00    -0.270 OA
ATOM      3  N   UNL     1      33.896 -19.482 -21.784  0.00  0.00    -0.331 N 
ATOM      4  N   UNL     1      36.332 -17.746 -22.673  0.00  0.00    -0.302 N 
ATOM      5  C   UNL     1      34.910 -17.443 -22.749  0.00  0.00    +0.070 C 
ATOM      6  C   UNL     1      34.080 -18.697 -22.984  0.00  0.00    +0.105 C 
ATOM      7  C   UNL     1      34.895 -19.936 -20.983  0.00  0.00    +0.056 A 
ATOM      8  C   UNL     1      36.233 -19.594 -21.052  0.00  0.00    +0.096 A 
ATOM      9  C   UNL     1      34.602 -20.868 -19.911  0.00  0.00    +0.023 A 
ATOM     10  C   UNL     1      36.995 -18.692 -21.910  0.00  0.00    +0.253 C 
ATOM     11  C   UNL     1      35.756 -21.226 -19.216  0.00  0.00    +0.031 A 
ATOM     12  C   UNL     1      33.377 -21.451 -19.487  0.00  0.00    +0.039 C 
ATOM     13  C   UNL     1      35.727 -22.127 -18.132  0.00  0.00    +0.010 C 
ATOM     14  C   UNL     1      33.340 -22.344 -18.413  0.00  0.00    +0.139 C 
ATOM     15  C   UNL     1      34.505 -22.677 -17.741  0.00  0.00    +0.037 C 
ATOM     16  H   UNL     1      32.973 -19.705 -21.528  0.00  0.00    +0.147 HD
ATOM     17  H   UNL     1      36.909 -17.196 -23.251  0.00  0.00    +0.150 HD
ENDROOT
BRANCH  14  18
ATOM     18  O   UNL     1      32.152 -22.888 -18.027  0.00  0.00    -0.471 OA
ATOM     19  C   UNL     1      31.989 -23.169 -16.637  0.00  0.00    +0.252 C 
ENDBRANCH  14  18
BRANCH   5  20
ATOM     20  C   UNL     1      34.447 -16.581 -21.577  0.00  0.00    -0.064 C 
BRANCH  20  21
ATOM     21  N   UNL     1      34.594 -15.167 -21.883  0.00  0.00    +0.382 N 
ATOM     22  H   UNL     1      34.930 -15.058 -22.840  0.00  0.00    -0.089 HD
ATOM     23  H   UNL     1      35.263 -14.747 -21.238  0.00  0.00    -0.089 HD
ATOM     24  H   UNL     1      33.690 -14.702 -21.786  0.00  0.00    -0.089 HD
ENDBRANCH  20  21
ENDBRANCH   5  20
TORSDOF 3
ENDMDL
MODEL 5
REMARK VINA RESULT:      -7.2     12.998     14.791
REMARK  Name = 45273683
REMARK  3 active torsions:
REMARK  status: ('A' for Active; 'I' for Inactive)
REMARK    1  A    between atoms: C_5  and  C_20
REMARK    2  A    between atoms: C_14  and  O_18
REMARK    3  A    between atoms: C_20  and  N_21
REMARK                            x       y       z     vdW  Elec       q    Type
REMARK                         _______ _______ _______ _____ _____    ______ ____
ROOT
ATOM      1  S   UNL     1      33.845 -12.337 -23.975  0.00  0.00    -0.081 S 
ATOM      2  O   UNL     1      32.627  -9.675 -24.211  0.00  0.00    -0.270 OA
ATOM      3  N   UNL     1      31.312 -12.411 -21.024  0.00  0.00    -0.331 N 
ATOM      4  N   UNL     1      31.643  -9.539 -22.198  0.00  0.00    -0.302 N 
ATOM      5  C   UNL     1      31.213  -9.945 -20.867  0.00  0.00    +0.070 C 
ATOM      6  C   UNL     1      30.447 -11.260 -20.902  0.00  0.00    +0.105 C 
ATOM      7  C   UNL     1      32.247 -12.590 -21.994  0.00  0.00    +0.056 A 
ATOM      8  C   UNL     1      32.670 -11.653 -22.920  0.00  0.00    +0.096 A 
ATOM      9  C   UNL     1      32.926 -13.865 -22.126  0.00  0.00    +0.023 A 
ATOM     10  C   UNL     1      32.324 -10.257 -23.165  0.00  0.00    +0.253 C 
ATOM     11  C   UNL     1      33.833 -13.854 -23.184  0.00  0.00    +0.031 A 
ATOM     12  C   UNL     1      32.806 -15.070 -21.380  0.00  0.00    +0.039 C 
ATOM     13  C   UNL     1      34.610 -14.983 -23.514  0.00  0.00    +0.010 C 
ATOM     14  C   UNL     1      33.575 -16.192 -21.700  0.00  0.00    +0.139 C 
ATOM     15  C   UNL     1      34.469 -16.148 -22.758  0.00  0.00    +0.037 C 
ATOM     16  H   UNL     1      31.215 -13.123 -20.352  0.00  0.00    +0.147 HD
ATOM     17  H   UNL     1      31.416  -8.613 -22.446  0.00  0.00    +0.150 HD
ENDROOT
BRANCH  14  18
ATOM     18  O   UNL     1      33.441 -17.333 -20.969  0.00  0.00    -0.471 OA
ATOM     19  C   UNL     1      34.287 -18.429 -21.317  0.00  0.00    +0.252 C 
ENDBRANCH  14  18
BRANCH   5  20
ATOM     20  C   UNL     1      32.359  -9.900 -19.859  0.00  0.00    -0.064 C 
BRANCH  20  21
ATOM     21  N   UNL     1      32.780  -8.530 -19.612  0.00  0.00    +0.382 N 
ATOM     22  H   UNL     1      33.516  -8.521 -18.907  0.00  0.00    -0.089 HD
ATOM     23  H   UNL     1      31.984  -7.985 -19.280  0.00  0.00    -0.089 HD
ATOM     24  H   UNL     1      33.134  -8.121 -20.478  0.00  0.00    -0.089 HD
ENDBRANCH  20  21
ENDBRANCH   5  20
TORSDOF 3
ENDMDL
MODEL 6
REMARK VINA RESULT:      -7.1      2.801      4.726
REMARK  Name = 45273683
REMARK  3 active torsions:
REMARK  status: ('A' for Active; 'I' for Inactive)
REMARK    1  A    between atoms: C_5  and  C_20
REMARK    2  A    between atoms: C_14  and  O_18
REMARK    3  A    between atoms: C_20  and  N_21
REMARK                            x       y       z     vdW  Elec       q    Type
REMARK                         _______ _______ _______ _____ _____    ______ ____
ROOT
ATOM      1  S   UNL     1      32.326 -23.470 -15.664  0.00  0.00    -0.081 S 
ATOM      2  O   UNL     1      32.409 -25.034 -13.180  0.00  0.00    -0.270 OA
ATOM      3  N   UNL     1      36.138 -24.183 -15.358  0.00  0.00    -0.331 N 
ATOM      4  N   UNL     1      34.607 -24.909 -12.737  0.00  0.00    -0.302 N 
ATOM      5  C   UNL     1      36.010 -24.563 -12.917  0.00  0.00    +0.070 C 
ATOM      6  C   UNL     1      36.537 -25.038 -14.264  0.00  0.00    +0.105 C 
ATOM      7  C   UNL     1      34.859 -23.830 -15.651  0.00  0.00    +0.056 A 
ATOM      8  C   UNL     1      33.737 -24.063 -14.876  0.00  0.00    +0.096 A 
ATOM      9  C   UNL     1      34.563 -23.119 -16.880  0.00  0.00    +0.023 A 
ATOM     10  C   UNL     1      33.528 -24.691 -13.576  0.00  0.00    +0.253 C 
ATOM     11  C   UNL     1      33.198 -22.863 -17.006  0.00  0.00    +0.031 A 
ATOM     12  C   UNL     1      35.411 -22.673 -17.930  0.00  0.00    +0.039 C 
ATOM     13  C   UNL     1      32.665 -22.187 -18.122  0.00  0.00    +0.010 C 
ATOM     14  C   UNL     1      34.889 -22.001 -19.039  0.00  0.00    +0.139 C 
ATOM     15  C   UNL     1      33.528 -21.761 -19.133  0.00  0.00    +0.037 C 
ATOM     16  H   UNL     1      36.849 -23.828 -15.937  0.00  0.00    +0.147 HD
ATOM     17  H   UNL     1      34.394 -25.366 -11.892  0.00  0.00    +0.150 HD
ENDROOT
BRANCH  14  18
ATOM     18  O   UNL     1      35.724 -21.584 -20.031  0.00  0.00    -0.471 OA
ATOM     19  C   UNL     1      35.468 -20.299 -20.596  0.00  0.00    +0.252 C 
ENDBRANCH  14  18
BRANCH   5  20
ATOM     20  C   UNL     1      36.278 -23.091 -12.610  0.00  0.00    -0.064 C 
BRANCH  20  21
ATOM     21  N   UNL     1      37.101 -22.952 -11.419  0.00  0.00    +0.382 N 
ATOM     22  H   UNL     1      37.320 -23.875 -11.045  0.00  0.00    -0.089 HD
ATOM     23  H   UNL     1      36.595 -22.412 -10.717  0.00  0.00    -0.089 HD
ATOM     24  H   UNL     1      37.968 -22.469 -11.659  0.00  0.00    -0.089 HD
ENDBRANCH  20  21
ENDBRANCH   5  20
TORSDOF 3
ENDMDL
MODEL 7
REMARK VINA RESULT:      -7.1      2.592      3.662
REMARK  Name = 45273683
REMARK  3 active torsions:
REMARK  status: ('A' for Active; 'I' for Inactive)
REMARK    1  A    between atoms: C_5  and  C_20
REMARK    2  A    between atoms: C_14  and  O_18
REMARK    3  A    between atoms: C_20  and  N_21
REMARK                            x       y       z     vdW  Elec       q    Type
REMARK                         _______ _______ _______ _____ _____    ______ ____
ROOT
ATOM      1  S   UNL     1      33.057 -24.021 -13.243  0.00  0.00    -0.081 S 
ATOM      2  O   UNL     1      34.785 -25.174 -11.167  0.00  0.00    -0.270 OA
ATOM      3  N   UNL     1      36.396 -24.434 -15.196  0.00  0.00    -0.331 N 
ATOM      4  N   UNL     1      36.788 -24.843 -12.128  0.00  0.00    -0.302 N 
ATOM      5  C   UNL     1      37.761 -24.440 -13.134  0.00  0.00    +0.070 C 
ATOM      6  C   UNL     1      37.471 -25.083 -14.483  0.00  0.00    +0.105 C 
ATOM      7  C   UNL     1      35.149 -24.213 -14.703  0.00  0.00    +0.056 A 
ATOM      8  C   UNL     1      34.730 -24.394 -13.397  0.00  0.00    +0.096 A 
ATOM      9  C   UNL     1      34.098 -23.721 -15.573  0.00  0.00    +0.023 A 
ATOM     10  C   UNL     1      35.405 -24.826 -12.178  0.00  0.00    +0.253 C 
ATOM     11  C   UNL     1      32.893 -23.574 -14.887  0.00  0.00    +0.031 A 
ATOM     12  C   UNL     1      34.107 -23.389 -16.956  0.00  0.00    +0.039 C 
ATOM     13  C   UNL     1      31.723 -23.114 -15.523  0.00  0.00    +0.010 C 
ATOM     14  C   UNL     1      32.950 -22.931 -17.593  0.00  0.00    +0.139 C 
ATOM     15  C   UNL     1      31.769 -22.795 -16.881  0.00  0.00    +0.037 C 
ATOM     16  H   UNL     1      36.581 -24.128 -16.113  0.00  0.00    +0.147 HD
ATOM     17  H   UNL     1      37.172 -25.177 -11.285  0.00  0.00    +0.150 HD
ENDROOT
BRANCH  14  18
ATOM     18  O   UNL     1      32.986 -22.620 -18.918  0.00  0.00    -0.471 OA
ATOM     19  C   UNL     1      34.016 -21.729 -19.346  0.00  0.00    +0.252 C 
ENDBRANCH  14  18
BRANCH   5  20
ATOM     20  C   UNL     1      37.944 -22.925 -13.175  0.00  0.00    -0.064 C 
BRANCH  20  21
ATOM     21  N   UNL     1      37.723 -22.340 -11.862  0.00  0.00    +0.382 N 
ATOM     22  H   UNL     1      38.534 -22.513 -11.269  0.00  0.00    -0.089 HD
ATOM     23  H   UNL     1      36.896 -22.761 -11.437  0.00  0.00    -0.089 HD
ATOM     24  H   UNL     1      37.581 -21.333 -11.958  0.00  0.00    -0.089 HD
ENDBRANCH  20  21
ENDBRANCH   5  20
TORSDOF 3
ENDMDL
MODEL 8
REMARK VINA RESULT:      -7.0      3.619      5.792
REMARK  Name = 45273683
REMARK  3 active torsions:
REMARK  status: ('A' for Active; 'I' for Inactive)
REMARK    1  A    between atoms: C_5  and  C_20
REMARK    2  A    between atoms: C_14  and  O_18
REMARK    3  A    between atoms: C_20  and  N_21
REMARK                            x       y       z     vdW  Elec       q    Type
REMARK                         _______ _______ _______ _____ _____    ______ ____
ROOT
ATOM      1  S   UNL     1      34.717 -23.671 -15.647  0.00  0.00    -0.081 S 
ATOM      2  O   UNL     1      33.838 -24.499 -12.970  0.00  0.00    -0.270 OA
ATOM      3  N   UNL     1      30.926 -22.813 -15.807  0.00  0.00    -0.331 N 
ATOM      4  N   UNL     1      31.619 -24.549 -13.308  0.00  0.00    -0.302 N 
ATOM      5  C   UNL     1      30.349 -24.408 -14.007  0.00  0.00    +0.070 C 
ATOM      6  C   UNL     1      30.179 -23.011 -14.586  0.00  0.00    +0.105 C 
ATOM      7  C   UNL     1      32.259 -23.032 -15.955  0.00  0.00    +0.056 A 
ATOM      8  C   UNL     1      33.104 -23.643 -15.046  0.00  0.00    +0.096 A 
ATOM      9  C   UNL     1      32.934 -22.624 -17.172  0.00  0.00    +0.023 A 
ATOM     10  C   UNL     1      32.900 -24.241 -13.731  0.00  0.00    +0.253 C 
ATOM     11  C   UNL     1      34.296 -22.919 -17.125  0.00  0.00    +0.031 A 
ATOM     12  C   UNL     1      32.443 -21.989 -18.346  0.00  0.00    +0.039 C 
ATOM     13  C   UNL     1      35.164 -22.611 -18.192  0.00  0.00    +0.010 C 
ATOM     14  C   UNL     1      33.298 -21.682 -19.408  0.00  0.00    +0.139 C 
ATOM     15  C   UNL     1      34.646 -21.991 -19.330  0.00  0.00    +0.037 C 
ATOM     16  H   UNL     1      30.430 -22.494 -16.594  0.00  0.00    +0.147 HD
ATOM     17  H   UNL     1      31.556 -24.919 -12.398  0.00  0.00    +0.150 HD
ENDROOT
BRANCH  14  18
ATOM     18  O   UNL     1      32.802 -21.075 -20.521  0.00  0.00    -0.471 OA
ATOM     19  C   UNL     1      33.375 -19.820 -20.886  0.00  0.00    +0.252 C 
ENDBRANCH  14  18
BRANCH   5  20
ATOM     20  C   UNL     1      30.116 -25.544 -15.001  0.00  0.00    -0.064 C 
BRANCH  20  21
ATOM     21  N   UNL     1      28.922 -26.299 -14.656  0.00  0.00    +0.382 N 
ATOM     22  H   UNL     1      28.213 -26.163 -15.376  0.00  0.00    -0.089 HD
ATOM     23  H   UNL     1      28.561 -25.973 -13.759  0.00  0.00    -0.089 HD
ATOM     24  H   UNL     1      29.154 -27.291 -14.590  0.00  0.00    -0.089 HD
ENDBRANCH  20  21
ENDBRANCH   5  20
TORSDOF 3
ENDMDL
MODEL 9
REMARK VINA RESULT:      -7.0     11.636     13.573
REMARK  Name = 45273683
REMARK  3 active torsions:
REMARK  status: ('A' for Active; 'I' for Inactive)
REMARK    1  A    between atoms: C_5  and  C_20
REMARK    2  A    between atoms: C_14  and  O_18
REMARK    3  A    between atoms: C_20  and  N_21
REMARK                            x       y       z     vdW  Elec       q    Type
REMARK                         _______ _______ _______ _____ _____    ______ ____
ROOT
ATOM      1  S   UNL     1      34.200 -16.684 -25.442  0.00  0.00    -0.081 S 
ATOM      2  O   UNL     1      32.546 -14.555 -26.607  0.00  0.00    -0.270 OA
ATOM      3  N   UNL     1      33.300 -14.618 -22.271  0.00  0.00    -0.331 N 
ATOM      4  N   UNL     1      32.552 -13.103 -24.895  0.00  0.00    -0.302 N 
ATOM      5  C   UNL     1      32.838 -12.566 -23.572  0.00  0.00    +0.070 C 
ATOM      6  C   UNL     1      32.388 -13.516 -22.471  0.00  0.00    +0.105 C 
ATOM      7  C   UNL     1      33.722 -15.472 -23.241  0.00  0.00    +0.056 A 
ATOM      8  C   UNL     1      33.514 -15.347 -24.603  0.00  0.00    +0.096 A 
ATOM      9  C   UNL     1      34.489 -16.651 -22.890  0.00  0.00    +0.023 A 
ATOM     10  C   UNL     1      32.850 -14.345 -25.428  0.00  0.00    +0.253 C 
ATOM     11  C   UNL     1      34.814 -17.405 -24.017  0.00  0.00    +0.031 A 
ATOM     12  C   UNL     1      34.933 -17.137 -21.629  0.00  0.00    +0.039 C 
ATOM     13  C   UNL     1      35.553 -18.601 -23.928  0.00  0.00    +0.010 C 
ATOM     14  C   UNL     1      35.668 -18.322 -21.534  0.00  0.00    +0.139 C 
ATOM     15  C   UNL     1      35.975 -19.047 -22.675  0.00  0.00    +0.037 C 
ATOM     16  H   UNL     1      33.642 -14.763 -21.360  0.00  0.00    +0.147 HD
ATOM     17  H   UNL     1      32.075 -12.490 -25.501  0.00  0.00    +0.150 HD
ENDROOT
BRANCH  14  18
ATOM     18  O   UNL     1      36.081 -18.765 -20.314  0.00  0.00    -0.471 OA
ATOM     19  C   UNL     1      36.455 -20.139 -20.216  0.00  0.00    +0.252 C 
ENDBRANCH  14  18
BRANCH   5  20
ATOM     20  C   UNL     1      34.283 -12.088 -23.451  0.00  0.00    -0.064 C 
BRANCH  20  21
ATOM     21  N   UNL     1      34.592 -11.105 -24.478  0.00  0.00    +0.382 N 
ATOM     22  H   UNL     1      33.726 -10.733 -24.865  0.00  0.00    -0.089 HD
ATOM     23  H   UNL     1      35.134 -11.548 -25.220  0.00  0.00    -0.089 HD
ATOM     24  H   UNL     1      35.136 -10.345 -24.068  0.00  0.00    -0.089 HD
ENDBRANCH  20  21
ENDBRANCH   5  20
TORSDOF 3
ENDMDL
