MODEL 1
REMARK VINA RESULT:      -7.3      0.000      0.000
REMARK  Name = 976666
REMARK  3 active torsions:
REMARK  status: ('A' for Active; 'I' for Inactive)
REMARK    1  A    between atoms: C_1  and  C_11
REMARK    2  A    between atoms: C_2  and  C_16
REMARK    3  A    between atoms: C_16  and  O_17
REMARK                            x       y       z     vdW  Elec       q    Type
REMARK                         _______ _______ _______ _____ _____    ______ ____
ROOT
ATOM      1  C   UNL     1      33.486 -23.079 -15.184  0.00  0.00    +0.080 C 
ATOM      2  C   UNL     1      32.319 -23.305 -14.213  0.00  0.00    +0.107 C 
ATOM      3  C   UNL     1      33.158 -23.492 -16.621  0.00  0.00    +0.009 C 
ATOM      4  C   UNL     1      31.020 -22.684 -14.736  0.00  0.00    +0.012 C 
ATOM      5  C   UNL     1      31.879 -22.822 -17.113  0.00  0.00    +0.000 C 
ATOM      6  C   UNL     1      30.704 -23.089 -16.177  0.00  0.00    +0.001 C 
ENDROOT
BRANCH   1  11
ATOM      7  S   UNL     1      37.462 -26.362 -14.844  0.00  0.00    +0.041 S 
ATOM      8  N   UNL     1      35.433 -23.371 -13.622  0.00  0.00    -0.235 N 
ATOM      9  N   UNL     1      35.238 -24.822 -15.329  0.00  0.00    -0.335 NA
ATOM     10  N   UNL     1      36.484 -24.226 -13.536  0.00  0.00    -0.207 N 
ATOM     11  C   UNL     1      34.725 -23.782 -14.713  0.00  0.00    +0.185 C 
ATOM     12  C   UNL     1      36.372 -25.127 -14.580  0.00  0.00    +0.109 C 
ATOM     13  H   UNL     1      35.226 -22.616 -13.025  0.00  0.00    +0.173 HD
ATOM     14  H   UNL     1      37.194 -24.210 -12.855  0.00  0.00    +0.182 HD
ENDBRANCH   1  11
BRANCH   2  16
ATOM     15  O   UNL     1      31.232 -25.459 -14.433  0.00  0.00    -0.250 OA
ATOM     16  C   UNL     1      32.084 -24.759 -13.907  0.00  0.00    +0.314 C 
BRANCH  16  17
ATOM     17  O   UNL     1      32.952 -25.195 -12.961  0.00  0.00    -0.480 OA
ATOM     18  H   UNL     1      33.824 -25.436 -13.201  0.00  0.00    +0.295 HD
ENDBRANCH  16  17
ENDBRANCH   2  16
TORSDOF 3
ENDMDL
MODEL 2
REMARK VINA RESULT:      -7.3      8.534      9.521
REMARK  Name = 976666
REMARK  3 active torsions:
REMARK  status: ('A' for Active; 'I' for Inactive)
REMARK    1  A    between atoms: C_1  and  C_11
REMARK    2  A    between atoms: C_2  and  C_16
REMARK    3  A    between atoms: C_16  and  O_17
REMARK                            x       y       z     vdW  Elec       q    Type
REMARK                         _______ _______ _______ _____ _____    ______ ____
ROOT
ATOM      1  C   UNL     1      35.646 -18.495 -22.757  0.00  0.00    +0.080 C 
ATOM      2  C   UNL     1      35.575 -17.001 -22.414  0.00  0.00    +0.107 C 
ATOM      3  C   UNL     1      34.476 -18.968 -23.623  0.00  0.00    +0.009 C 
ATOM      4  C   UNL     1      35.368 -16.143 -23.666  0.00  0.00    +0.012 C 
ATOM      5  C   UNL     1      34.330 -18.109 -24.876  0.00  0.00    +0.000 C 
ATOM      6  C   UNL     1      34.205 -16.627 -24.534  0.00  0.00    +0.001 C 
ENDROOT
BRANCH   1  11
ATOM      7  S   UNL     1      34.699 -22.036 -19.115  0.00  0.00    +0.041 S 
ATOM      8  N   UNL     1      36.754 -19.191 -20.611  0.00  0.00    -0.235 N 
ATOM      9  N   UNL     1      34.882 -20.278 -21.219  0.00  0.00    -0.335 NA
ATOM     10  N   UNL     1      36.513 -20.126 -19.657  0.00  0.00    -0.207 N 
ATOM     11  C   UNL     1      35.742 -19.331 -21.515  0.00  0.00    +0.185 C 
ATOM     12  C   UNL     1      35.359 -20.800 -20.020  0.00  0.00    +0.109 C 
ATOM     13  H   UNL     1      37.500 -18.548 -20.643  0.00  0.00    +0.173 HD
ATOM     14  H   UNL     1      37.057 -20.294 -18.855  0.00  0.00    +0.182 HD
ENDBRANCH   1  11
BRANCH   2  16
ATOM     15  O   UNL     1      33.300 -16.690 -21.641  0.00  0.00    -0.250 OA
ATOM     16  C   UNL     1      34.500 -16.681 -21.411  0.00  0.00    +0.314 C 
BRANCH  16  17
ATOM     17  O   UNL     1      35.044 -16.377 -20.207  0.00  0.00    -0.480 OA
ATOM     18  H   UNL     1      34.724 -16.790 -19.430  0.00  0.00    +0.295 HD
ENDBRANCH  16  17
ENDBRANCH   2  16
TORSDOF 3
ENDMDL
MODEL 3
REMARK VINA RESULT:      -7.2      1.743      1.959
REMARK  Name = 976666
REMARK  3 active torsions:
REMARK  status: ('A' for Active; 'I' for Inactive)
REMARK    1  A    between atoms: C_1  and  C_11
REMARK    2  A    between atoms: C_2  and  C_16
REMARK    3  A    between atoms: C_16  and  O_17
REMARK                            x       y       z     vdW  Elec       q    Type
REMARK                         _______ _______ _______ _____ _____    ______ ____
ROOT
ATOM      1  C   UNL     1      32.596 -23.090 -14.677  0.00  0.00    +0.080 C 
ATOM      2  C   UNL     1      31.248 -23.299 -13.974  0.00  0.00    +0.107 C 
ATOM      3  C   UNL     1      32.575 -23.509 -16.149  0.00  0.00    +0.009 C 
ATOM      4  C   UNL     1      30.095 -22.671 -14.763  0.00  0.00    +0.012 C 
ATOM      5  C   UNL     1      31.436 -22.832 -16.904  0.00  0.00    +0.000 C 
ATOM      6  C   UNL     1      30.087 -23.083 -16.236  0.00  0.00    +0.001 C 
ENDROOT
BRANCH   1  11
ATOM      7  S   UNL     1      35.954 -24.552 -11.033  0.00  0.00    +0.041 S 
ATOM      8  N   UNL     1      34.401 -24.830 -14.506  0.00  0.00    -0.235 N 
ATOM      9  N   UNL     1      34.053 -23.508 -12.720  0.00  0.00    -0.335 NA
ATOM     10  N   UNL     1      35.278 -25.222 -13.547  0.00  0.00    -0.207 N 
ATOM     11  C   UNL     1      33.700 -23.800 -13.951  0.00  0.00    +0.185 C 
ATOM     12  C   UNL     1      35.076 -24.412 -12.443  0.00  0.00    +0.109 C 
ATOM     13  H   UNL     1      34.294 -25.207 -15.409  0.00  0.00    +0.173 HD
ATOM     14  H   UNL     1      35.938 -25.948 -13.623  0.00  0.00    +0.182 HD
ENDBRANCH   1  11
BRANCH   2  16
ATOM     15  O   UNL     1      31.179 -25.665 -14.491  0.00  0.00    -0.250 OA
ATOM     16  C   UNL     1      30.940 -24.750 -13.718  0.00  0.00    +0.314 C 
BRANCH  16  17
ATOM     17  O   UNL     1      30.355 -24.907 -12.505  0.00  0.00    -0.480 OA
ATOM     18  H   UNL     1      29.948 -25.721 -12.284  0.00  0.00    +0.295 HD
ENDBRANCH  16  17
ENDBRANCH   2  16
TORSDOF 3
ENDMDL
MODEL 4
REMARK VINA RESULT:      -6.9      3.031      5.546
REMARK  Name = 976666
REMARK  3 active torsions:
REMARK  status: ('A' for Active; 'I' for Inactive)
REMARK    1  A    between atoms: C_1  and  C_11
REMARK    2  A    between atoms: C_2  and  C_16
REMARK    3  A    between atoms: C_16  and  O_17
REMARK                            x       y       z     vdW  Elec       q    Type
REMARK                         _______ _______ _______ _____ _____    ______ ____
ROOT
ATOM      1  C   UNL     1      36.770 -24.118 -14.006  0.00  0.00    +0.080 C 
ATOM      2  C   UNL     1      37.469 -25.067 -14.988  0.00  0.00    +0.107 C 
ATOM      3  C   UNL     1      37.164 -24.367 -12.548  0.00  0.00    +0.009 C 
ATOM      4  C   UNL     1      38.986 -25.090 -14.770  0.00  0.00    +0.012 C 
ATOM      5  C   UNL     1      38.679 -24.343 -12.371  0.00  0.00    +0.000 C 
ATOM      6  C   UNL     1      39.374 -25.325 -13.309  0.00  0.00    +0.001 C 
ENDROOT
BRANCH   1  11
ATOM      7  S   UNL     1      31.965 -23.479 -15.795  0.00  0.00    +0.041 S 
ATOM      8  N   UNL     1      34.486 -24.905 -13.312  0.00  0.00    -0.235 N 
ATOM      9  N   UNL     1      34.629 -23.589 -15.131  0.00  0.00    -0.335 NA
ATOM     10  N   UNL     1      33.223 -24.746 -13.785  0.00  0.00    -0.207 N 
ATOM     11  C   UNL     1      35.279 -24.186 -14.158  0.00  0.00    +0.185 C 
ATOM     12  C   UNL     1      33.299 -23.934 -14.904  0.00  0.00    +0.109 C 
ATOM     13  H   UNL     1      34.768 -25.426 -12.526  0.00  0.00    +0.173 HD
ATOM     14  H   UNL     1      32.404 -25.135 -13.403  0.00  0.00    +0.182 HD
ENDBRANCH   1  11
BRANCH   2  16
ATOM     15  O   UNL     1      36.792 -27.121 -13.895  0.00  0.00    -0.250 OA
ATOM     16  C   UNL     1      36.939 -26.474 -14.921  0.00  0.00    +0.314 C 
BRANCH  16  17
ATOM     17  O   UNL     1      36.645 -26.934 -16.162  0.00  0.00    -0.480 OA
ATOM     18  H   UNL     1      36.990 -26.500 -16.916  0.00  0.00    +0.295 HD
ENDBRANCH  16  17
ENDBRANCH   2  16
TORSDOF 3
ENDMDL
MODEL 5
REMARK VINA RESULT:      -6.8     11.027     12.148
REMARK  Name = 976666
REMARK  3 active torsions:
REMARK  status: ('A' for Active; 'I' for Inactive)
REMARK    1  A    between atoms: C_1  and  C_11
REMARK    2  A    between atoms: C_2  and  C_16
REMARK    3  A    between atoms: C_16  and  O_17
REMARK                            x       y       z     vdW  Elec       q    Type
REMARK                         _______ _______ _______ _____ _____    ______ ____
ROOT
ATOM      1  C   UNL     1      34.758 -16.630 -21.907  0.00  0.00    +0.080 C 
ATOM      2  C   UNL     1      35.607 -17.237 -23.033  0.00  0.00    +0.107 C 
ATOM      3  C   UNL     1      33.737 -17.613 -21.329  0.00  0.00    +0.009 C 
ATOM      4  C   UNL     1      36.228 -18.574 -22.614  0.00  0.00    +0.012 C 
ATOM      5  C   UNL     1      34.404 -18.914 -20.892  0.00  0.00    +0.000 C 
ATOM      6  C   UNL     1      35.205 -19.547 -22.026  0.00  0.00    +0.001 C 
ENDROOT
BRANCH   1  11
ATOM      7  S   UNL     1      33.791 -12.078 -24.152  0.00  0.00    +0.041 S 
ATOM      8  N   UNL     1      32.761 -15.116 -22.087  0.00  0.00    -0.235 N 
ATOM      9  N   UNL     1      34.663 -14.457 -23.090  0.00  0.00    -0.335 NA
ATOM     10  N   UNL     1      32.501 -13.924 -22.683  0.00  0.00    -0.207 N 
ATOM     11  C   UNL     1      34.070 -15.378 -22.364  0.00  0.00    +0.185 C 
ATOM     12  C   UNL     1      33.667 -13.507 -23.301  0.00  0.00    +0.109 C 
ATOM     13  H   UNL     1      32.137 -15.671 -21.565  0.00  0.00    +0.173 HD
ATOM     14  H   UNL     1      31.643 -13.444 -22.677  0.00  0.00    +0.182 HD
ENDBRANCH   1  11
BRANCH   2  16
ATOM     15  O   UNL     1      34.009 -18.307 -24.507  0.00  0.00    -0.250 OA
ATOM     16  C   UNL     1      34.835 -17.428 -24.310  0.00  0.00    +0.314 C 
BRANCH  16  17
ATOM     17  O   UNL     1      35.182 -16.488 -25.223  0.00  0.00    -0.480 OA
ATOM     18  H   UNL     1      35.687 -16.728 -25.974  0.00  0.00    +0.295 HD
ENDBRANCH  16  17
ENDBRANCH   2  16
TORSDOF 3
ENDMDL
MODEL 6
REMARK VINA RESULT:      -6.7     10.888     11.940
REMARK  Name = 976666
REMARK  3 active torsions:
REMARK  status: ('A' for Active; 'I' for Inactive)
REMARK    1  A    between atoms: C_1  and  C_11
REMARK    2  A    between atoms: C_2  and  C_16
REMARK    3  A    between atoms: C_16  and  O_17
REMARK                            x       y       z     vdW  Elec       q    Type
REMARK                         _______ _______ _______ _____ _____    ______ ____
ROOT
ATOM      1  C   UNL     1      34.551 -15.391 -23.697  0.00  0.00    +0.080 C 
ATOM      2  C   UNL     1      33.918 -14.077 -23.220  0.00  0.00    +0.107 C 
ATOM      3  C   UNL     1      33.772 -16.053 -24.836  0.00  0.00    +0.009 C 
ATOM      4  C   UNL     1      33.636 -13.128 -24.389  0.00  0.00    +0.012 C 
ATOM      5  C   UNL     1      33.547 -15.084 -25.993  0.00  0.00    +0.000 C 
ATOM      6  C   UNL     1      32.868 -13.798 -25.529  0.00  0.00    +0.001 C 
ENDROOT
BRANCH   1  11
ATOM      7  S   UNL     1      34.901 -19.742 -20.933  0.00  0.00    +0.041 S 
ATOM      8  N   UNL     1      35.024 -15.946 -21.292  0.00  0.00    -0.235 N 
ATOM      9  N   UNL     1      34.631 -17.655 -22.700  0.00  0.00    -0.335 NA
ATOM     10  N   UNL     1      35.125 -17.088 -20.565  0.00  0.00    -0.207 N 
ATOM     11  C   UNL     1      34.723 -16.353 -22.559  0.00  0.00    +0.185 C 
ATOM     12  C   UNL     1      34.881 -18.148 -21.422  0.00  0.00    +0.109 C 
ATOM     13  H   UNL     1      35.141 -15.022 -20.973  0.00  0.00    +0.173 HD
ATOM     14  H   UNL     1      35.333 -17.152 -19.606  0.00  0.00    +0.182 HD
ENDBRANCH   1  11
BRANCH   2  16
ATOM     15  O   UNL     1      32.347 -15.319 -21.856  0.00  0.00    -0.250 OA
ATOM     16  C   UNL     1      32.649 -14.289 -22.438  0.00  0.00    +0.314 C 
BRANCH  16  17
ATOM     17  O   UNL     1      31.879 -13.174 -22.466  0.00  0.00    -0.480 OA
ATOM     18  H   UNL     1      31.417 -12.904 -21.698  0.00  0.00    +0.295 HD
ENDBRANCH  16  17
ENDBRANCH   2  16
TORSDOF 3
ENDMDL
MODEL 7
REMARK VINA RESULT:      -6.7      3.214      5.257
REMARK  Name = 976666
REMARK  3 active torsions:
REMARK  status: ('A' for Active; 'I' for Inactive)
REMARK    1  A    between atoms: C_1  and  C_11
REMARK    2  A    between atoms: C_2  and  C_16
REMARK    3  A    between atoms: C_16  and  O_17
REMARK                            x       y       z     vdW  Elec       q    Type
REMARK                         _______ _______ _______ _____ _____    ______ ____
ROOT
ATOM      1  C   UNL     1      36.021 -24.934 -14.029  0.00  0.00    +0.080 C 
ATOM      2  C   UNL     1      36.396 -25.212 -12.567  0.00  0.00    +0.107 C 
ATOM      3  C   UNL     1      37.091 -24.140 -14.782  0.00  0.00    +0.009 C 
ATOM      4  C   UNL     1      37.796 -25.825 -12.450  0.00  0.00    +0.012 C 
ATOM      5  C   UNL     1      38.459 -24.805 -14.670  0.00  0.00    +0.000 C 
ATOM      6  C   UNL     1      38.859 -25.034 -13.215  0.00  0.00    +0.001 C 
ENDROOT
BRANCH   1  11
ATOM      7  S   UNL     1      30.976 -23.874 -13.683  0.00  0.00    +0.041 S 
ATOM      8  N   UNL     1      34.566 -22.966 -14.600  0.00  0.00    -0.235 N 
ATOM      9  N   UNL     1      33.569 -24.782 -13.726  0.00  0.00    -0.335 NA
ATOM     10  N   UNL     1      33.243 -22.681 -14.502  0.00  0.00    -0.207 N 
ATOM     11  C   UNL     1      34.696 -24.238 -14.123  0.00  0.00    +0.185 C 
ATOM     12  C   UNL     1      32.617 -23.795 -13.968  0.00  0.00    +0.109 C 
ATOM     13  H   UNL     1      35.280 -22.381 -14.943  0.00  0.00    +0.173 HD
ATOM     14  H   UNL     1      32.807 -21.839 -14.763  0.00  0.00    +0.182 HD
ENDBRANCH   1  11
BRANCH   2  16
ATOM     15  O   UNL     1      36.581 -22.850 -12.064  0.00  0.00    -0.250 OA
ATOM     16  C   UNL     1      36.319 -23.986 -11.699  0.00  0.00    +0.314 C 
BRANCH  16  17
ATOM     17  O   UNL     1      35.918 -24.312 -10.446  0.00  0.00    -0.480 OA
ATOM     18  H   UNL     1      36.507 -24.214  -9.725  0.00  0.00    +0.295 HD
ENDBRANCH  16  17
ENDBRANCH   2  16
TORSDOF 3
ENDMDL
MODEL 8
REMARK VINA RESULT:      -6.6      3.193      5.365
REMARK  Name = 976666
REMARK  3 active torsions:
REMARK  status: ('A' for Active; 'I' for Inactive)
REMARK    1  A    between atoms: C_1  and  C_11
REMARK    2  A    between atoms: C_2  and  C_16
REMARK    3  A    between atoms: C_16  and  O_17
REMARK                            x       y       z     vdW  Elec       q    Type
REMARK                         _______ _______ _______ _____ _____    ______ ____
ROOT
ATOM      1  C   UNL     1      36.914 -23.575 -14.313  0.00  0.00    +0.080 C 
ATOM      2  C   UNL     1      37.651 -24.845 -14.758  0.00  0.00    +0.107 C 
ATOM      3  C   UNL     1      36.667 -23.523 -12.803  0.00  0.00    +0.009 C 
ATOM      4  C   UNL     1      38.920 -25.080 -13.931  0.00  0.00    +0.012 C 
ATOM      5  C   UNL     1      37.961 -23.724 -12.022  0.00  0.00    +0.000 C 
ATOM      6  C   UNL     1      38.670 -25.014 -12.424  0.00  0.00    +0.001 C 
ENDROOT
BRANCH   1  11
ATOM      7  S   UNL     1      33.448 -22.914 -18.087  0.00  0.00    +0.041 S 
ATOM      8  N   UNL     1      34.405 -23.490 -14.440  0.00  0.00    -0.235 N 
ATOM      9  N   UNL     1      35.556 -23.221 -16.353  0.00  0.00    -0.335 NA
ATOM     10  N   UNL     1      33.492 -23.326 -15.431  0.00  0.00    -0.207 N 
ATOM     11  C   UNL     1      35.620 -23.414 -15.055  0.00  0.00    +0.185 C 
ATOM     12  C   UNL     1      34.190 -23.155 -16.614  0.00  0.00    +0.109 C 
ATOM     13  H   UNL     1      34.228 -23.633 -13.482  0.00  0.00    +0.173 HD
ATOM     14  H   UNL     1      32.514 -23.327 -15.328  0.00  0.00    +0.182 HD
ENDBRANCH   1  11
BRANCH   2  16
ATOM     15  O   UNL     1      36.819 -26.914 -13.810  0.00  0.00    -0.250 OA
ATOM     16  C   UNL     1      36.787 -26.076 -14.698  0.00  0.00    +0.314 C 
BRANCH  16  17
ATOM     17  O   UNL     1      35.961 -26.132 -15.771  0.00  0.00    -0.480 OA
ATOM     18  H   UNL     1      36.318 -26.205 -16.634  0.00  0.00    +0.295 HD
ENDBRANCH  16  17
ENDBRANCH   2  16
TORSDOF 3
ENDMDL
MODEL 9
REMARK VINA RESULT:      -6.5     16.931     17.827
REMARK  Name = 976666
REMARK  3 active torsions:
REMARK  status: ('A' for Active; 'I' for Inactive)
REMARK    1  A    between atoms: C_1  and  C_11
REMARK    2  A    between atoms: C_2  and  C_16
REMARK    3  A    between atoms: C_16  and  O_17
REMARK                            x       y       z     vdW  Elec       q    Type
REMARK                         _______ _______ _______ _____ _____    ______ ____
ROOT
ATOM      1  C   UNL     1      32.813  -7.480 -23.525  0.00  0.00    +0.080 C 
ATOM      2  C   UNL     1      32.925  -7.057 -22.054  0.00  0.00    +0.107 C 
ATOM      3  C   UNL     1      31.367  -7.545 -24.022  0.00  0.00    +0.009 C 
ATOM      4  C   UNL     1      32.133  -5.776 -21.773  0.00  0.00    +0.012 C 
ATOM      5  C   UNL     1      30.628  -6.237 -23.755  0.00  0.00    +0.000 C 
ATOM      6  C   UNL     1      30.692  -5.842 -22.283  0.00  0.00    +0.001 C 
ENDROOT
BRANCH   1  11
ATOM      7  S   UNL     1      33.703 -12.505 -24.333  0.00  0.00    +0.041 S 
ATOM      8  N   UNL     1      34.855  -8.891 -23.923  0.00  0.00    -0.235 N 
ATOM      9  N   UNL     1      32.861  -9.930 -23.871  0.00  0.00    -0.335 NA
ATOM     10  N   UNL     1      35.090 -10.209 -24.145  0.00  0.00    -0.207 N 
ATOM     11  C   UNL     1      33.503  -8.790 -23.764  0.00  0.00    +0.185 C 
ATOM     12  C   UNL     1      33.869 -10.860 -24.111  0.00  0.00    +0.109 C 
ATOM     13  H   UNL     1      35.517  -8.163 -23.885  0.00  0.00    +0.173 HD
ATOM     14  H   UNL     1      35.968 -10.627 -24.300  0.00  0.00    +0.182 HD
ENDBRANCH   1  11
BRANCH   2  16
ATOM     15  O   UNL     1      31.646  -8.989 -21.347  0.00  0.00    -0.250 OA
ATOM     16  C   UNL     1      32.481  -8.132 -21.100  0.00  0.00    +0.314 C 
BRANCH  16  17
ATOM     17  O   UNL     1      33.137  -8.023 -19.919  0.00  0.00    -0.480 OA
ATOM     18  H   UNL     1      32.720  -7.612 -19.188  0.00  0.00    +0.295 HD
ENDBRANCH  16  17
ENDBRANCH   2  16
TORSDOF 3
ENDMDL
