MODEL 1
REMARK VINA RESULT:      -7.6      0.000      0.000
REMARK  Name = 6420149
REMARK  6 active torsions:
REMARK  status: ('A' for Active; 'I' for Inactive)
REMARK    1  A    between atoms: C_1  and  C_11
REMARK    2  A    between atoms: C_2  and  N_7
REMARK    3  A    between atoms: C_11  and  C_12
REMARK    4  A    between atoms: C_12  and  C_13
REMARK    5  A    between atoms: C_13  and  C_15
REMARK    6  A    between atoms: C_15  and  O_16
REMARK                            x       y       z     vdW  Elec       q    Type
REMARK                         _______ _______ _______ _____ _____    ______ ____
ROOT
ATOM      1  C   UNL     1      34.852 -19.884 -20.712  0.00  0.00    +0.048 C 
ATOM      2  C   UNL     1      33.693 -20.513 -20.316  0.00  0.00    +0.044 C 
ATOM      3  C   UNL     1      36.100 -20.295 -20.290  0.00  0.00    +0.004 C 
ATOM      4  C   UNL     1      33.783 -21.606 -19.454  0.00  0.00    +0.014 C 
ATOM      5  C   UNL     1      36.189 -21.388 -19.429  0.00  0.00    +0.000 C 
ATOM      6  C   UNL     1      35.031 -22.044 -19.011  0.00  0.00    +0.001 C 
ENDROOT
BRANCH   2   7
ATOM      7  N   UNL     1      32.419 -20.085 -20.753  0.00  0.00    -0.357 N 
ATOM      8  H   UNL     1      31.632 -20.661 -20.616  0.00  0.00    +0.142 HD
ATOM      9  H   UNL     1      32.318 -19.210 -21.194  0.00  0.00    +0.142 HD
ENDBRANCH   2   7
BRANCH   1  11
ATOM     10  O   UNL     1      34.171 -17.708 -21.286  0.00  0.00    -0.291 OA
ATOM     11  C   UNL     1      34.791 -18.711 -21.633  0.00  0.00    +0.175 C 
BRANCH  11  12
ATOM     12  C   UNL     1      35.504 -18.797 -22.973  0.00  0.00    +0.081 C 
BRANCH  12  13
ATOM     13  C   UNL     1      34.593 -18.412 -24.134  0.00  0.00    +0.117 C 
BRANCH  13  15
ATOM     14  O   UNL     1      34.726 -16.695 -25.827  0.00  0.00    -0.250 OA
ATOM     15  C   UNL     1      34.961 -17.057 -24.682  0.00  0.00    +0.314 C 
BRANCH  15  16
ATOM     16  O   UNL     1      35.596 -16.283 -23.768  0.00  0.00    -0.480 OA
ATOM     17  H   UNL     1      35.716 -16.593 -22.891  0.00  0.00    +0.295 HD
ENDBRANCH  15  16
ENDBRANCH  13  15
ENDBRANCH  12  13
ENDBRANCH  11  12
ENDBRANCH   1  11
TORSDOF 6
ENDMDL
MODEL 2
REMARK VINA RESULT:      -7.5      1.377      1.921
REMARK  Name = 6420149
REMARK  6 active torsions:
REMARK  status: ('A' for Active; 'I' for Inactive)
REMARK    1  A    between atoms: C_1  and  C_11
REMARK    2  A    between atoms: C_2  and  N_7
REMARK    3  A    between atoms: C_11  and  C_12
REMARK    4  A    between atoms: C_12  and  C_13
REMARK    5  A    between atoms: C_13  and  C_15
REMARK    6  A    between atoms: C_15  and  O_16
REMARK                            x       y       z     vdW  Elec       q    Type
REMARK                         _______ _______ _______ _____ _____    ______ ____
ROOT
ATOM      1  C   UNL     1      34.691 -19.498 -20.901  0.00  0.00    +0.048 C 
ATOM      2  C   UNL     1      35.533 -20.308 -20.172  0.00  0.00    +0.044 C 
ATOM      3  C   UNL     1      33.331 -19.713 -20.972  0.00  0.00    +0.004 C 
ATOM      4  C   UNL     1      34.989 -21.389 -19.480  0.00  0.00    +0.014 C 
ATOM      5  C   UNL     1      32.787 -20.795 -20.279  0.00  0.00    +0.000 C 
ATOM      6  C   UNL     1      33.616 -21.633 -19.532  0.00  0.00    +0.001 C 
ENDROOT
BRANCH   2   7
ATOM      7  N   UNL     1      36.925 -20.079 -20.106  0.00  0.00    -0.357 N 
ATOM      8  H   UNL     1      37.282 -19.170 -20.235  0.00  0.00    +0.142 HD
ATOM      9  H   UNL     1      37.540 -20.828 -19.931  0.00  0.00    +0.142 HD
ENDBRANCH   2   7
BRANCH   1  11
ATOM     10  O   UNL     1      35.300 -17.235 -21.103  0.00  0.00    -0.291 OA
ATOM     11  C   UNL     1      35.241 -18.332 -21.655  0.00  0.00    +0.175 C 
BRANCH  11  12
ATOM     12  C   UNL     1      35.712 -18.543 -23.085  0.00  0.00    +0.081 C 
BRANCH  12  13
ATOM     13  C   UNL     1      34.634 -18.190 -24.104  0.00  0.00    +0.117 C 
BRANCH  13  15
ATOM     14  O   UNL     1      34.571 -16.542 -25.868  0.00  0.00    -0.250 OA
ATOM     15  C   UNL     1      34.903 -16.846 -24.729  0.00  0.00    +0.314 C 
BRANCH  15  16
ATOM     16  O   UNL     1      35.569 -16.009 -23.896  0.00  0.00    -0.480 OA
ATOM     17  H   UNL     1      36.432 -15.716 -24.115  0.00  0.00    +0.295 HD
ENDBRANCH  15  16
ENDBRANCH  13  15
ENDBRANCH  12  13
ENDBRANCH  11  12
ENDBRANCH   1  11
TORSDOF 6
ENDMDL
MODEL 3
REMARK VINA RESULT:      -7.4      2.674      5.679
REMARK  Name = 6420149
REMARK  6 active torsions:
REMARK  status: ('A' for Active; 'I' for Inactive)
REMARK    1  A    between atoms: C_1  and  C_11
REMARK    2  A    between atoms: C_2  and  N_7
REMARK    3  A    between atoms: C_11  and  C_12
REMARK    4  A    between atoms: C_12  and  C_13
REMARK    5  A    between atoms: C_13  and  C_15
REMARK    6  A    between atoms: C_15  and  O_16
REMARK                            x       y       z     vdW  Elec       q    Type
REMARK                         _______ _______ _______ _____ _____    ______ ____
ROOT
ATOM      1  C   UNL     1      34.936 -18.469 -22.389  0.00  0.00    +0.048 C 
ATOM      2  C   UNL     1      34.830 -17.097 -22.422  0.00  0.00    +0.044 C 
ATOM      3  C   UNL     1      34.831 -19.249 -23.521  0.00  0.00    +0.004 C 
ATOM      4  C   UNL     1      34.606 -16.472 -23.649  0.00  0.00    +0.014 C 
ATOM      5  C   UNL     1      34.607 -18.623 -24.747  0.00  0.00    +0.000 C 
ATOM      6  C   UNL     1      34.494 -17.234 -24.811  0.00  0.00    +0.001 C 
ENDROOT
BRANCH   2   7
ATOM      7  N   UNL     1      34.939 -16.306 -21.257  0.00  0.00    -0.357 N 
ATOM      8  H   UNL     1      34.673 -16.676 -20.384  0.00  0.00    +0.142 HD
ATOM      9  H   UNL     1      35.280 -15.384 -21.318  0.00  0.00    +0.142 HD
ENDBRANCH   2   7
BRANCH   1  11
ATOM     10  O   UNL     1      36.219 -18.955 -20.478  0.00  0.00    -0.291 OA
ATOM     11  C   UNL     1      35.176 -19.170 -21.093  0.00  0.00    +0.175 C 
BRANCH  11  12
ATOM     12  C   UNL     1      34.116 -20.129 -20.575  0.00  0.00    +0.081 C 
BRANCH  12  13
ATOM     13  C   UNL     1      34.716 -21.242 -19.721  0.00  0.00    +0.117 C 
BRANCH  13  15
ATOM     14  O   UNL     1      32.571 -21.911 -18.837  0.00  0.00    -0.250 OA
ATOM     15  C   UNL     1      33.658 -22.229 -19.301  0.00  0.00    +0.314 C 
BRANCH  15  16
ATOM     16  O   UNL     1      34.046 -23.516 -19.483  0.00  0.00    -0.480 OA
ATOM     17  H   UNL     1      33.411 -24.204 -19.467  0.00  0.00    +0.295 HD
ENDBRANCH  15  16
ENDBRANCH  13  15
ENDBRANCH  12  13
ENDBRANCH  11  12
ENDBRANCH   1  11
TORSDOF 6
ENDMDL
MODEL 4
REMARK VINA RESULT:      -7.3      1.384      1.690
REMARK  Name = 6420149
REMARK  6 active torsions:
REMARK  status: ('A' for Active; 'I' for Inactive)
REMARK    1  A    between atoms: C_1  and  C_11
REMARK    2  A    between atoms: C_2  and  N_7
REMARK    3  A    between atoms: C_11  and  C_12
REMARK    4  A    between atoms: C_12  and  C_13
REMARK    5  A    between atoms: C_13  and  C_15
REMARK    6  A    between atoms: C_15  and  O_16
REMARK                            x       y       z     vdW  Elec       q    Type
REMARK                         _______ _______ _______ _____ _____    ______ ____
ROOT
ATOM      1  C   UNL     1      34.844 -20.113 -20.658  0.00  0.00    +0.048 C 
ATOM      2  C   UNL     1      33.624 -20.614 -20.263  0.00  0.00    +0.044 C 
ATOM      3  C   UNL     1      36.039 -20.590 -20.159  0.00  0.00    +0.004 C 
ATOM      4  C   UNL     1      33.595 -21.642 -19.321  0.00  0.00    +0.014 C 
ATOM      5  C   UNL     1      36.008 -21.618 -19.217  0.00  0.00    +0.000 C 
ATOM      6  C   UNL     1      34.786 -22.144 -18.797  0.00  0.00    +0.001 C 
ENDROOT
BRANCH   2   7
ATOM      7  N   UNL     1      32.406 -20.119 -20.779  0.00  0.00    -0.357 N 
ATOM      8  H   UNL     1      32.034 -19.273 -20.439  0.00  0.00    +0.142 HD
ATOM      9  H   UNL     1      31.928 -20.620 -21.479  0.00  0.00    +0.142 HD
ENDBRANCH   2   7
BRANCH   1  11
ATOM     10  O   UNL     1      34.666 -19.261 -22.842  0.00  0.00    -0.291 OA
ATOM     11  C   UNL     1      34.912 -19.012 -21.664  0.00  0.00    +0.175 C 
BRANCH  11  12
ATOM     12  C   UNL     1      35.282 -17.615 -21.193  0.00  0.00    +0.081 C 
BRANCH  12  13
ATOM     13  C   UNL     1      34.254 -16.573 -21.620  0.00  0.00    +0.117 C 
BRANCH  13  15
ATOM     14  O   UNL     1      34.502 -14.495 -22.826  0.00  0.00    -0.250 OA
ATOM     15  C   UNL     1      34.812 -15.671 -22.691  0.00  0.00    +0.314 C 
BRANCH  15  16
ATOM     16  O   UNL     1      35.691 -16.311 -23.502  0.00  0.00    -0.480 OA
ATOM     17  H   UNL     1      35.541 -17.203 -23.746  0.00  0.00    +0.295 HD
ENDBRANCH  15  16
ENDBRANCH  13  15
ENDBRANCH  12  13
ENDBRANCH  11  12
ENDBRANCH   1  11
TORSDOF 6
ENDMDL
MODEL 5
REMARK VINA RESULT:      -7.0      3.095      5.745
REMARK  Name = 6420149
REMARK  6 active torsions:
REMARK  status: ('A' for Active; 'I' for Inactive)
REMARK    1  A    between atoms: C_1  and  C_11
REMARK    2  A    between atoms: C_2  and  N_7
REMARK    3  A    between atoms: C_11  and  C_12
REMARK    4  A    between atoms: C_12  and  C_13
REMARK    5  A    between atoms: C_13  and  C_15
REMARK    6  A    between atoms: C_15  and  O_16
REMARK                            x       y       z     vdW  Elec       q    Type
REMARK                         _______ _______ _______ _____ _____    ______ ____
ROOT
ATOM      1  C   UNL     1      34.170 -16.738 -21.674  0.00  0.00    +0.048 C 
ATOM      2  C   UNL     1      34.664 -16.127 -22.804  0.00  0.00    +0.044 C 
ATOM      3  C   UNL     1      33.178 -16.175 -20.900  0.00  0.00    +0.004 C 
ATOM      4  C   UNL     1      34.142 -14.889 -23.180  0.00  0.00    +0.014 C 
ATOM      5  C   UNL     1      32.655 -14.938 -21.276  0.00  0.00    +0.000 C 
ATOM      6  C   UNL     1      33.137 -14.294 -22.416  0.00  0.00    +0.001 C 
ENDROOT
BRANCH   2   7
ATOM      7  N   UNL     1      35.681 -16.711 -23.591  0.00  0.00    -0.357 N 
ATOM      8  H   UNL     1      35.894 -17.667 -23.491  0.00  0.00    +0.142 HD
ATOM      9  H   UNL     1      36.178 -16.162 -24.241  0.00  0.00    +0.142 HD
ENDBRANCH   2   7
BRANCH   1  11
ATOM     10  O   UNL     1      35.736 -18.103 -20.571  0.00  0.00    -0.291 OA
ATOM     11  C   UNL     1      34.707 -18.062 -21.243  0.00  0.00    +0.175 C 
BRANCH  11  12
ATOM     12  C   UNL     1      33.960 -19.322 -21.652  0.00  0.00    +0.081 C 
BRANCH  12  13
ATOM     13  C   UNL     1      33.002 -19.800 -20.566  0.00  0.00    +0.117 C 
BRANCH  13  15
ATOM     14  O   UNL     1      32.840 -21.954 -19.485  0.00  0.00    -0.250 OA
ATOM     15  C   UNL     1      33.539 -21.027 -19.876  0.00  0.00    +0.314 C 
BRANCH  15  16
ATOM     16  O   UNL     1      34.885 -20.989 -19.722  0.00  0.00    -0.480 OA
ATOM     17  H   UNL     1      35.444 -21.323 -20.395  0.00  0.00    +0.295 HD
ENDBRANCH  15  16
ENDBRANCH  13  15
ENDBRANCH  12  13
ENDBRANCH  11  12
ENDBRANCH   1  11
TORSDOF 6
ENDMDL
MODEL 6
REMARK VINA RESULT:      -6.8     10.220     11.676
REMARK  Name = 6420149
REMARK  6 active torsions:
REMARK  status: ('A' for Active; 'I' for Inactive)
REMARK    1  A    between atoms: C_1  and  C_11
REMARK    2  A    between atoms: C_2  and  N_7
REMARK    3  A    between atoms: C_11  and  C_12
REMARK    4  A    between atoms: C_12  and  C_13
REMARK    5  A    between atoms: C_13  and  C_15
REMARK    6  A    between atoms: C_15  and  O_16
REMARK                            x       y       z     vdW  Elec       q    Type
REMARK                         _______ _______ _______ _____ _____    ______ ____
ROOT
ATOM      1  C   UNL     1      31.970  -9.301 -21.522  0.00  0.00    +0.048 C 
ATOM      2  C   UNL     1      32.242  -9.047 -20.196  0.00  0.00    +0.044 C 
ATOM      3  C   UNL     1      31.382 -10.474 -21.947  0.00  0.00    +0.004 C 
ATOM      4  C   UNL     1      31.911 -10.014 -19.247  0.00  0.00    +0.014 C 
ATOM      5  C   UNL     1      31.051 -11.440 -20.997  0.00  0.00    +0.000 C 
ATOM      6  C   UNL     1      31.316 -11.211 -19.647  0.00  0.00    +0.001 C 
ENDROOT
BRANCH   2   7
ATOM      7  N   UNL     1      32.844  -7.843 -19.770  0.00  0.00    -0.357 N 
ATOM      8  H   UNL     1      32.889  -7.071 -20.380  0.00  0.00    +0.142 HD
ATOM      9  H   UNL     1      33.219  -7.774 -18.862  0.00  0.00    +0.142 HD
ENDBRANCH   2   7
BRANCH   1  11
ATOM     10  O   UNL     1      33.488  -7.979 -22.737  0.00  0.00    -0.291 OA
ATOM     11  C   UNL     1      32.311  -8.288 -22.564  0.00  0.00    +0.175 C 
BRANCH  11  12
ATOM     12  C   UNL     1      31.186  -7.672 -23.380  0.00  0.00    +0.081 C 
BRANCH  12  13
ATOM     13  C   UNL     1      31.355  -6.165 -23.547  0.00  0.00    +0.117 C 
BRANCH  13  15
ATOM     14  O   UNL     1      29.954  -4.945 -22.004  0.00  0.00    -0.250 OA
ATOM     15  C   UNL     1      31.043  -5.442 -22.263  0.00  0.00    +0.314 C 
BRANCH  15  16
ATOM     16  O   UNL     1      32.107  -5.390 -21.425  0.00  0.00    -0.480 OA
ATOM     17  H   UNL     1      32.666  -6.136 -21.328  0.00  0.00    +0.295 HD
ENDBRANCH  15  16
ENDBRANCH  13  15
ENDBRANCH  12  13
ENDBRANCH  11  12
ENDBRANCH   1  11
TORSDOF 6
ENDMDL
MODEL 7
REMARK VINA RESULT:      -6.7      2.766      4.283
REMARK  Name = 6420149
REMARK  6 active torsions:
REMARK  status: ('A' for Active; 'I' for Inactive)
REMARK    1  A    between atoms: C_1  and  C_11
REMARK    2  A    between atoms: C_2  and  N_7
REMARK    3  A    between atoms: C_11  and  C_12
REMARK    4  A    between atoms: C_12  and  C_13
REMARK    5  A    between atoms: C_13  and  C_15
REMARK    6  A    between atoms: C_15  and  O_16
REMARK                            x       y       z     vdW  Elec       q    Type
REMARK                         _______ _______ _______ _____ _____    ______ ____
ROOT
ATOM      1  C   UNL     1      34.710 -17.219 -23.556  0.00  0.00    +0.048 C 
ATOM      2  C   UNL     1      34.731 -18.596 -23.582  0.00  0.00    +0.044 C 
ATOM      3  C   UNL     1      34.899 -16.496 -22.397  0.00  0.00    +0.004 C 
ATOM      4  C   UNL     1      34.951 -19.285 -22.389  0.00  0.00    +0.014 C 
ATOM      5  C   UNL     1      35.119 -17.186 -21.206  0.00  0.00    +0.000 C 
ATOM      6  C   UNL     1      35.145 -18.581 -21.201  0.00  0.00    +0.001 C 
ENDROOT
BRANCH   2   7
ATOM      7  N   UNL     1      34.536 -19.328 -24.774  0.00  0.00    -0.357 N 
ATOM      8  H   UNL     1      33.626 -19.583 -25.053  0.00  0.00    +0.142 HD
ATOM      9  H   UNL     1      35.310 -19.585 -25.326  0.00  0.00    +0.142 HD
ENDBRANCH   2   7
BRANCH   1  11
ATOM     10  O   UNL     1      35.044 -16.802 -25.847  0.00  0.00    -0.291 OA
ATOM     11  C   UNL     1      34.477 -16.450 -24.815  0.00  0.00    +0.175 C 
BRANCH  11  12
ATOM     12  C   UNL     1      33.540 -15.254 -24.776  0.00  0.00    +0.081 C 
BRANCH  12  13
ATOM     13  C   UNL     1      32.925 -14.960 -26.141  0.00  0.00    +0.117 C 
BRANCH  13  15
ATOM     14  O   UNL     1      33.836 -13.528 -27.859  0.00  0.00    -0.250 OA
ATOM     15  C   UNL     1      33.456 -13.667 -26.704  0.00  0.00    +0.314 C 
BRANCH  15  16
ATOM     16  O   UNL     1      33.478 -12.671 -25.784  0.00  0.00    -0.480 OA
ATOM     17  H   UNL     1      33.853 -12.821 -24.939  0.00  0.00    +0.295 HD
ENDBRANCH  15  16
ENDBRANCH  13  15
ENDBRANCH  12  13
ENDBRANCH  11  12
ENDBRANCH   1  11
TORSDOF 6
ENDMDL
MODEL 8
REMARK VINA RESULT:      -6.7      7.292      9.288
REMARK  Name = 6420149
REMARK  6 active torsions:
REMARK  status: ('A' for Active; 'I' for Inactive)
REMARK    1  A    between atoms: C_1  and  C_11
REMARK    2  A    between atoms: C_2  and  N_7
REMARK    3  A    between atoms: C_11  and  C_12
REMARK    4  A    between atoms: C_12  and  C_13
REMARK    5  A    between atoms: C_13  and  C_15
REMARK    6  A    between atoms: C_15  and  O_16
REMARK                            x       y       z     vdW  Elec       q    Type
REMARK                         _______ _______ _______ _____ _____    ______ ____
ROOT
ATOM      1  C   UNL     1      33.411 -23.527 -15.615  0.00  0.00    +0.048 C 
ATOM      2  C   UNL     1      32.672 -23.261 -16.746  0.00  0.00    +0.044 C 
ATOM      3  C   UNL     1      32.876 -23.454 -14.346  0.00  0.00    +0.004 C 
ATOM      4  C   UNL     1      31.331 -22.904 -16.603  0.00  0.00    +0.014 C 
ATOM      5  C   UNL     1      31.536 -23.096 -14.203  0.00  0.00    +0.000 C 
ATOM      6  C   UNL     1      30.763 -22.820 -15.332  0.00  0.00    +0.001 C 
ENDROOT
BRANCH   2   7
ATOM      7  N   UNL     1      33.228 -23.339 -18.043  0.00  0.00    -0.357 N 
ATOM      8  H   UNL     1      32.949 -24.056 -18.657  0.00  0.00    +0.142 HD
ATOM      9  H   UNL     1      33.895 -22.675 -18.333  0.00  0.00    +0.142 HD
ENDBRANCH   2   7
BRANCH   1  11
ATOM     10  O   UNL     1      35.595 -23.236 -16.438  0.00  0.00    -0.291 OA
ATOM     11  C   UNL     1      34.848 -23.912 -15.733  0.00  0.00    +0.175 C 
BRANCH  11  12
ATOM     12  C   UNL     1      35.342 -25.132 -14.972  0.00  0.00    +0.081 C 
BRANCH  12  13
ATOM     13  C   UNL     1      36.865 -25.189 -14.903  0.00  0.00    +0.117 C 
BRANCH  13  15
ATOM     14  O   UNL     1      38.249 -27.133 -14.534  0.00  0.00    -0.250 OA
ATOM     15  C   UNL     1      37.365 -26.584 -15.178  0.00  0.00    +0.314 C 
BRANCH  15  16
ATOM     16  O   UNL     1      36.735 -27.164 -16.229  0.00  0.00    -0.480 OA
ATOM     17  H   UNL     1      35.803 -27.102 -16.310  0.00  0.00    +0.295 HD
ENDBRANCH  15  16
ENDBRANCH  13  15
ENDBRANCH  12  13
ENDBRANCH  11  12
ENDBRANCH   1  11
TORSDOF 6
ENDMDL
MODEL 9
REMARK VINA RESULT:      -6.7      4.383      6.755
REMARK  Name = 6420149
REMARK  6 active torsions:
REMARK  status: ('A' for Active; 'I' for Inactive)
REMARK    1  A    between atoms: C_1  and  C_11
REMARK    2  A    between atoms: C_2  and  N_7
REMARK    3  A    between atoms: C_11  and  C_12
REMARK    4  A    between atoms: C_12  and  C_13
REMARK    5  A    between atoms: C_13  and  C_15
REMARK    6  A    between atoms: C_15  and  O_16
REMARK                            x       y       z     vdW  Elec       q    Type
REMARK                         _______ _______ _______ _____ _____    ______ ____
ROOT
ATOM      1  C   UNL     1      34.073 -21.484 -19.678  0.00  0.00    +0.048 C 
ATOM      2  C   UNL     1      35.282 -20.943 -20.052  0.00  0.00    +0.044 C 
ATOM      3  C   UNL     1      32.868 -20.881 -19.969  0.00  0.00    +0.004 C 
ATOM      4  C   UNL     1      35.288 -19.737 -20.752  0.00  0.00    +0.014 C 
ATOM      5  C   UNL     1      32.875 -19.675 -20.670  0.00  0.00    +0.000 C 
ATOM      6  C   UNL     1      34.085 -19.102 -21.061  0.00  0.00    +0.001 C 
ENDROOT
BRANCH   2   7
ATOM      7  N   UNL     1      36.512 -21.568 -19.748  0.00  0.00    -0.357 N 
ATOM      8  H   UNL     1      36.653 -21.973 -18.861  0.00  0.00    +0.142 HD
ATOM      9  H   UNL     1      37.228 -21.599 -20.423  0.00  0.00    +0.142 HD
ENDBRANCH   2   7
BRANCH   1  11
ATOM     10  O   UNL     1      34.004 -23.832 -19.552  0.00  0.00    -0.291 OA
ATOM     11  C   UNL     1      34.030 -22.774 -18.926  0.00  0.00    +0.175 C 
BRANCH  11  12
ATOM     12  C   UNL     1      34.022 -22.734 -17.407  0.00  0.00    +0.081 C 
BRANCH  12  13
ATOM     13  C   UNL     1      32.978 -23.674 -16.812  0.00  0.00    +0.117 C 
BRANCH  13  15
ATOM     14  O   UNL     1      30.980 -22.412 -17.307  0.00  0.00    -0.250 OA
ATOM     15  C   UNL     1      31.713 -22.930 -16.474  0.00  0.00    +0.314 C 
BRANCH  15  16
ATOM     16  O   UNL     1      31.477 -22.885 -15.139  0.00  0.00    -0.480 OA
ATOM     17  H   UNL     1      31.674 -22.108 -14.654  0.00  0.00    +0.295 HD
ENDBRANCH  15  16
ENDBRANCH  13  15
ENDBRANCH  12  13
ENDBRANCH  11  12
ENDBRANCH   1  11
TORSDOF 6
ENDMDL
