MODEL 1
REMARK VINA RESULT:      -7.4      0.000      0.000
REMARK  Name = 76098
REMARK  0 active torsions:
REMARK  status: ('A' for Active; 'I' for Inactive)
REMARK                            x       y       z     vdW  Elec       q    Type
REMARK                         _______ _______ _______ _____ _____    ______ ____
ROOT
ATOM      1  O   UNL     1      38.076 -24.493 -14.369  0.00  0.00    -0.350 OA
ATOM      2  N   UNL     1      35.551 -23.939 -15.472  0.00  0.00    -0.290 N 
ATOM      3  N   UNL     1      34.789 -22.683 -18.187  0.00  0.00    -0.270 NA
ATOM      4  N   UNL     1      33.168 -23.861 -15.103  0.00  0.00    -0.232 NA
ATOM      5  N   UNL     1      32.701 -22.205 -18.804  0.00  0.00    -0.307 N 
ATOM      6  N   UNL     1      31.620 -22.981 -16.770  0.00  0.00    -0.232 NA
ATOM      7  C   UNL     1      35.725 -25.068 -14.547  0.00  0.00    +0.124 C 
ATOM      8  C   UNL     1      36.561 -22.881 -15.364  0.00  0.00    +0.124 C 
ATOM      9  C   UNL     1      37.165 -25.567 -14.610  0.00  0.00    +0.164 C 
ATOM     10  C   UNL     1      37.956 -23.496 -15.382  0.00  0.00    +0.164 C 
ATOM     11  C   UNL     1      34.254 -23.627 -15.893  0.00  0.00    +0.127 C 
ATOM     12  C   UNL     1      33.997 -23.059 -17.140  0.00  0.00    +0.164 C 
ATOM     13  C   UNL     1      32.706 -22.752 -17.547  0.00  0.00    +0.125 C 
ATOM     14  C   UNL     1      33.968 -22.177 -19.160  0.00  0.00    +0.163 C 
ATOM     15  C   UNL     1      31.944 -23.531 -15.581  0.00  0.00    +0.252 C 
ATOM     16  H   UNL     1      35.769 -22.760 -18.234  0.00  0.00    +0.126 HD
ATOM     17  H   UNL     1      31.923 -21.900 -19.325  0.00  0.00    +0.149 HD
ENDROOT
TORSDOF 0
ENDMDL
MODEL 2
REMARK VINA RESULT:      -7.3      2.735      5.349
REMARK  Name = 76098
REMARK  0 active torsions:
REMARK  status: ('A' for Active; 'I' for Inactive)
REMARK                            x       y       z     vdW  Elec       q    Type
REMARK                         _______ _______ _______ _____ _____    ______ ____
ROOT
ATOM      1  O   UNL     1      31.123 -23.998 -14.622  0.00  0.00    -0.350 OA
ATOM      2  N   UNL     1      33.911 -23.965 -14.973  0.00  0.00    -0.290 N 
ATOM      3  N   UNL     1      36.016 -26.164 -14.456  0.00  0.00    -0.270 NA
ATOM      4  N   UNL     1      35.858 -22.636 -15.484  0.00  0.00    -0.232 NA
ATOM      5  N   UNL     1      38.214 -25.870 -14.677  0.00  0.00    -0.307 N 
ATOM      6  N   UNL     1      38.121 -23.538 -15.357  0.00  0.00    -0.232 NA
ATOM      7  C   UNL     1      33.045 -23.150 -15.836  0.00  0.00    +0.124 C 
ATOM      8  C   UNL     1      33.331 -24.337 -13.677  0.00  0.00    +0.124 C 
ATOM      9  C   UNL     1      31.662 -23.788 -15.927  0.00  0.00    +0.164 C 
ATOM     10  C   UNL     1      31.934 -24.911 -13.884  0.00  0.00    +0.164 C 
ATOM     11  C   UNL     1      35.296 -23.818 -15.102  0.00  0.00    +0.127 C 
ATOM     12  C   UNL     1      36.179 -24.865 -14.848  0.00  0.00    +0.164 C 
ATOM     13  C   UNL     1      37.551 -24.708 -14.979  0.00  0.00    +0.125 C 
ATOM     14  C   UNL     1      37.262 -26.724 -14.367  0.00  0.00    +0.163 C 
ATOM     15  C   UNL     1      37.208 -22.571 -15.586  0.00  0.00    +0.252 C 
ATOM     16  H   UNL     1      35.160 -26.614 -14.271  0.00  0.00    +0.126 HD
ATOM     17  H   UNL     1      39.185 -26.030 -14.689  0.00  0.00    +0.149 HD
ENDROOT
TORSDOF 0
ENDMDL
MODEL 3
REMARK VINA RESULT:      -7.3      0.805      2.656
REMARK  Name = 76098
REMARK  0 active torsions:
REMARK  status: ('A' for Active; 'I' for Inactive)
REMARK                            x       y       z     vdW  Elec       q    Type
REMARK                         _______ _______ _______ _____ _____    ______ ____
ROOT
ATOM      1  O   UNL     1      37.408 -24.561 -13.758  0.00  0.00    -0.350 OA
ATOM      2  N   UNL     1      35.448 -23.620 -15.538  0.00  0.00    -0.290 N 
ATOM      3  N   UNL     1      32.378 -23.480 -15.237  0.00  0.00    -0.270 NA
ATOM      4  N   UNL     1      34.969 -22.816 -17.761  0.00  0.00    -0.232 NA
ATOM      5  N   UNL     1      30.991 -22.815 -16.850  0.00  0.00    -0.307 N 
ATOM      6  N   UNL     1      32.696 -22.373 -18.526  0.00  0.00    -0.232 NA
ATOM      7  C   UNL     1      36.797 -23.038 -15.544  0.00  0.00    +0.124 C 
ATOM      8  C   UNL     1      35.354 -24.973 -14.980  0.00  0.00    +0.124 C 
ATOM      9  C   UNL     1      37.431 -23.193 -14.166  0.00  0.00    +0.164 C 
ATOM     10  C   UNL     1      36.065 -25.025 -13.632  0.00  0.00    +0.164 C 
ATOM     11  C   UNL     1      34.547 -23.208 -16.526  0.00  0.00    +0.127 C 
ATOM     12  C   UNL     1      33.172 -23.174 -16.307  0.00  0.00    +0.164 C 
ATOM     13  C   UNL     1      32.287 -22.764 -17.294  0.00  0.00    +0.125 C 
ATOM     14  C   UNL     1      31.081 -23.249 -15.611  0.00  0.00    +0.163 C 
ATOM     15  C   UNL     1      34.037 -22.431 -18.666  0.00  0.00    +0.252 C 
ATOM     16  H   UNL     1      32.683 -23.806 -14.360  0.00  0.00    +0.126 HD
ATOM     17  H   UNL     1      30.175 -22.579 -17.347  0.00  0.00    +0.149 HD
ENDROOT
TORSDOF 0
ENDMDL
MODEL 4
REMARK VINA RESULT:      -7.3      9.798     12.212
REMARK  Name = 76098
REMARK  0 active torsions:
REMARK  status: ('A' for Active; 'I' for Inactive)
REMARK                            x       y       z     vdW  Elec       q    Type
REMARK                         _______ _______ _______ _____ _____    ______ ____
ROOT
ATOM      1  O   UNL     1      33.093 -12.452 -26.467  0.00  0.00    -0.350 OA
ATOM      2  N   UNL     1      33.896 -13.943 -24.225  0.00  0.00    -0.290 N 
ATOM      3  N   UNL     1      35.196 -16.738 -24.046  0.00  0.00    -0.270 NA
ATOM      4  N   UNL     1      33.898 -14.115 -21.819  0.00  0.00    -0.232 NA
ATOM      5  N   UNL     1      35.629 -17.798 -22.134  0.00  0.00    -0.307 N 
ATOM      6  N   UNL     1      34.773 -16.070 -20.652  0.00  0.00    -0.232 NA
ATOM      7  C   UNL     1      33.924 -12.475 -24.188  0.00  0.00    +0.124 C 
ATOM      8  C   UNL     1      32.984 -14.527 -25.215  0.00  0.00    +0.124 C 
ATOM      9  C   UNL     1      34.099 -11.928 -25.601  0.00  0.00    +0.164 C 
ATOM     10  C   UNL     1      33.209 -13.870 -26.573  0.00  0.00    +0.164 C 
ATOM     11  C   UNL     1      34.183 -14.638 -23.046  0.00  0.00    +0.127 C 
ATOM     12  C   UNL     1      34.773 -15.900 -23.053  0.00  0.00    +0.164 C 
ATOM     13  C   UNL     1      35.052 -16.580 -21.877  0.00  0.00    +0.125 C 
ATOM     14  C   UNL     1      35.701 -17.861 -23.446  0.00  0.00    +0.163 C 
ATOM     15  C   UNL     1      34.205 -14.848 -20.722  0.00  0.00    +0.252 C 
ATOM     16  H   UNL     1      35.148 -16.566 -25.014  0.00  0.00    +0.126 HD
ATOM     17  H   UNL     1      35.923 -18.474 -21.482  0.00  0.00    +0.149 HD
ENDROOT
TORSDOF 0
ENDMDL
MODEL 5
REMARK VINA RESULT:      -7.0      2.175      3.540
REMARK  Name = 76098
REMARK  0 active torsions:
REMARK  status: ('A' for Active; 'I' for Inactive)
REMARK                            x       y       z     vdW  Elec       q    Type
REMARK                         _______ _______ _______ _____ _____    ______ ____
ROOT
ATOM      1  O   UNL     1      37.277 -24.074 -11.124  0.00  0.00    -0.350 OA
ATOM      2  N   UNL     1      35.514 -23.688 -13.279  0.00  0.00    -0.290 N 
ATOM      3  N   UNL     1      32.451 -23.305 -13.310  0.00  0.00    -0.270 NA
ATOM      4  N   UNL     1      35.245 -23.652 -15.675  0.00  0.00    -0.232 NA
ATOM      5  N   UNL     1      31.226 -23.151 -15.166  0.00  0.00    -0.307 N 
ATOM      6  N   UNL     1      33.067 -23.380 -16.739  0.00  0.00    -0.232 NA
ATOM      7  C   UNL     1      36.901 -23.208 -13.359  0.00  0.00    +0.124 C 
ATOM      8  C   UNL     1      35.282 -24.770 -12.316  0.00  0.00    +0.124 C 
ATOM      9  C   UNL     1      37.429 -22.924 -11.956  0.00  0.00    +0.164 C 
ATOM     10  C   UNL     1      35.897 -24.403 -10.970  0.00  0.00    +0.164 C 
ATOM     11  C   UNL     1      34.714 -23.587 -14.421  0.00  0.00    +0.127 C 
ATOM     12  C   UNL     1      33.333 -23.414 -14.347  0.00  0.00    +0.164 C 
ATOM     13  C   UNL     1      32.550 -23.316 -15.487  0.00  0.00    +0.125 C 
ATOM     14  C   UNL     1      31.202 -23.150 -13.850  0.00  0.00    +0.163 C 
ATOM     15  C   UNL     1      34.406 -23.547 -16.734  0.00  0.00    +0.252 C 
ATOM     16  H   UNL     1      32.671 -23.334 -12.351  0.00  0.00    +0.126 HD
ATOM     17  H   UNL     1      30.465 -23.056 -15.783  0.00  0.00    +0.149 HD
ENDROOT
TORSDOF 0
ENDMDL
MODEL 6
REMARK VINA RESULT:      -7.0      9.627     11.949
REMARK  Name = 76098
REMARK  0 active torsions:
REMARK  status: ('A' for Active; 'I' for Inactive)
REMARK                            x       y       z     vdW  Elec       q    Type
REMARK                         _______ _______ _______ _____ _____    ______ ____
ROOT
ATOM      1  O   UNL     1      34.875 -17.351 -21.043  0.00  0.00    -0.350 OA
ATOM      2  N   UNL     1      34.229 -15.770 -23.275  0.00  0.00    -0.290 N 
ATOM      3  N   UNL     1      34.215 -12.701 -23.613  0.00  0.00    -0.270 NA
ATOM      4  N   UNL     1      33.343 -15.723 -25.518  0.00  0.00    -0.232 NA
ATOM      5  N   UNL     1      33.528 -11.646 -25.452  0.00  0.00    -0.307 N 
ATOM      6  N   UNL     1      32.948 -13.638 -26.720  0.00  0.00    -0.232 NA
ATOM      7  C   UNL     1      34.802 -17.111 -23.456  0.00  0.00    +0.124 C 
ATOM      8  C   UNL     1      33.561 -15.545 -21.988  0.00  0.00    +0.124 C 
ATOM      9  C   UNL     1      35.645 -17.479 -22.239  0.00  0.00    +0.164 C 
ATOM     10  C   UNL     1      34.469 -15.997 -20.850  0.00  0.00    +0.164 C 
ATOM     11  C   UNL     1      33.806 -15.074 -24.412  0.00  0.00    +0.127 C 
ATOM     12  C   UNL     1      33.833 -13.683 -24.483  0.00  0.00    +0.164 C 
ATOM     13  C   UNL     1      33.410 -13.003 -25.616  0.00  0.00    +0.125 C 
ATOM     14  C   UNL     1      34.014 -11.499 -24.238  0.00  0.00    +0.163 C 
ATOM     15  C   UNL     1      32.951 -14.981 -26.581  0.00  0.00    +0.252 C 
ATOM     16  H   UNL     1      34.570 -12.833 -22.704  0.00  0.00    +0.126 HD
ATOM     17  H   UNL     1      33.299 -10.941 -26.099  0.00  0.00    +0.149 HD
ENDROOT
TORSDOF 0
ENDMDL
MODEL 7
REMARK VINA RESULT:      -7.0      8.519     10.814
REMARK  Name = 76098
REMARK  0 active torsions:
REMARK  status: ('A' for Active; 'I' for Inactive)
REMARK                            x       y       z     vdW  Elec       q    Type
REMARK                         _______ _______ _______ _____ _____    ______ ____
ROOT
ATOM      1  O   UNL     1      35.226 -19.427 -21.945  0.00  0.00    -0.350 OA
ATOM      2  N   UNL     1      34.418 -16.907 -22.890  0.00  0.00    -0.290 N 
ATOM      3  N   UNL     1      33.332 -16.064 -25.654  0.00  0.00    -0.270 NA
ATOM      4  N   UNL     1      34.294 -14.538 -22.450  0.00  0.00    -0.232 NA
ATOM      5  N   UNL     1      32.877 -13.960 -26.233  0.00  0.00    -0.307 N 
ATOM      6  N   UNL     1      33.511 -12.941 -24.119  0.00  0.00    -0.232 NA
ATOM      7  C   UNL     1      34.273 -17.248 -21.468  0.00  0.00    +0.124 C 
ATOM      8  C   UNL     1      35.427 -17.683 -23.619  0.00  0.00    +0.124 C 
ATOM      9  C   UNL     1      34.135 -18.759 -21.312  0.00  0.00    +0.164 C 
ATOM     10  C   UNL     1      35.227 -19.170 -23.348  0.00  0.00    +0.164 C 
ATOM     11  C   UNL     1      34.121 -15.599 -23.288  0.00  0.00    +0.127 C 
ATOM     12  C   UNL     1      33.632 -15.304 -24.559  0.00  0.00    +0.164 C 
ATOM     13  C   UNL     1      33.342 -14.003 -24.944  0.00  0.00    +0.125 C 
ATOM     14  C   UNL     1      32.884 -15.214 -26.631  0.00  0.00    +0.163 C 
ATOM     15  C   UNL     1      33.985 -13.301 -22.907  0.00  0.00    +0.252 C 
ATOM     16  H   UNL     1      33.422 -17.041 -25.728  0.00  0.00    +0.126 HD
ATOM     17  H   UNL     1      32.601 -13.167 -26.747  0.00  0.00    +0.149 HD
ENDROOT
TORSDOF 0
ENDMDL
MODEL 8
REMARK VINA RESULT:      -7.0      6.074      8.741
REMARK  Name = 76098
REMARK  0 active torsions:
REMARK  status: ('A' for Active; 'I' for Inactive)
REMARK                            x       y       z     vdW  Elec       q    Type
REMARK                         _______ _______ _______ _____ _____    ______ ____
ROOT
ATOM      1  O   UNL     1      33.706 -14.662 -22.917  0.00  0.00    -0.350 OA
ATOM      2  N   UNL     1      34.554 -17.142 -21.904  0.00  0.00    -0.290 N 
ATOM      3  N   UNL     1      32.930 -19.452 -20.655  0.00  0.00    -0.270 NA
ATOM      4  N   UNL     1      36.431 -18.537 -21.311  0.00  0.00    -0.232 NA
ATOM      5  N   UNL     1      33.836 -21.293 -19.783  0.00  0.00    -0.307 N 
ATOM      6  N   UNL     1      36.154 -20.697 -20.212  0.00  0.00    -0.232 NA
ATOM      7  C   UNL     1      35.294 -16.495 -22.996  0.00  0.00    +0.124 C 
ATOM      8  C   UNL     1      33.745 -16.241 -21.076  0.00  0.00    +0.124 C 
ATOM      9  C   UNL     1      34.355 -15.589 -23.787  0.00  0.00    +0.164 C 
ATOM     10  C   UNL     1      32.890 -15.349 -21.969  0.00  0.00    +0.164 C 
ATOM     11  C   UNL     1      35.087 -18.311 -21.349  0.00  0.00    +0.127 C 
ATOM     12  C   UNL     1      34.280 -19.307 -20.804  0.00  0.00    +0.164 C 
ATOM     13  C   UNL     1      34.820 -20.462 -20.256  0.00  0.00    +0.125 C 
ATOM     14  C   UNL     1      32.713 -20.656 -20.039  0.00  0.00    +0.163 C 
ATOM     15  C   UNL     1      36.871 -19.693 -20.757  0.00  0.00    +0.252 C 
ATOM     16  H   UNL     1      32.240 -18.809 -20.938  0.00  0.00    +0.126 HD
ATOM     17  H   UNL     1      33.945 -22.169 -19.350  0.00  0.00    +0.149 HD
ENDROOT
TORSDOF 0
ENDMDL
MODEL 9
REMARK VINA RESULT:      -6.9      1.255      1.616
REMARK  Name = 76098
REMARK  0 active torsions:
REMARK  status: ('A' for Active; 'I' for Inactive)
REMARK                            x       y       z     vdW  Elec       q    Type
REMARK                         _______ _______ _______ _____ _____    ______ ____
ROOT
ATOM      1  O   UNL     1      38.708 -24.738 -13.958  0.00  0.00    -0.350 OA
ATOM      2  N   UNL     1      35.961 -24.296 -14.356  0.00  0.00    -0.290 N 
ATOM      3  N   UNL     1      34.412 -23.526 -16.913  0.00  0.00    -0.270 NA
ATOM      4  N   UNL     1      33.793 -24.059 -13.327  0.00  0.00    -0.232 NA
ATOM      5  N   UNL     1      32.227 -23.087 -16.969  0.00  0.00    -0.307 N 
ATOM      6  N   UNL     1      31.807 -23.437 -14.600  0.00  0.00    -0.232 NA
ATOM      7  C   UNL     1      36.420 -25.243 -13.331  0.00  0.00    +0.124 C 
ATOM      8  C   UNL     1      36.941 -23.276 -14.747  0.00  0.00    +0.124 C 
ATOM      9  C   UNL     1      37.785 -25.801 -13.719  0.00  0.00    +0.164 C 
ATOM     10  C   UNL     1      38.278 -23.938 -15.059  0.00  0.00    +0.164 C 
ATOM     11  C   UNL     1      34.593 -24.015 -14.430  0.00  0.00    +0.127 C 
ATOM     12  C   UNL     1      33.970 -23.674 -15.629  0.00  0.00    +0.164 C 
ATOM     13  C   UNL     1      32.612 -23.396 -15.690  0.00  0.00    +0.125 C 
ATOM     14  C   UNL     1      33.332 -23.174 -17.679  0.00  0.00    +0.163 C 
ATOM     15  C   UNL     1      32.477 -23.773 -13.478  0.00  0.00    +0.252 C 
ATOM     16  H   UNL     1      35.336 -23.649 -17.230  0.00  0.00    +0.126 HD
ATOM     17  H   UNL     1      31.325 -22.852 -17.286  0.00  0.00    +0.149 HD
ENDROOT
TORSDOF 0
ENDMDL
