MODEL 1
REMARK VINA RESULT:     -10.1      0.000      0.000
REMARK  Name = 5326871
REMARK  3 active torsions:
REMARK  status: ('A' for Active; 'I' for Inactive)
REMARK    1  A    between atoms: C_1  and  C_3
REMARK    2  A    between atoms: C_1  and  O_12
REMARK    3  A    between atoms: O_12  and  C_14
REMARK                            x       y       z     vdW  Elec       q    Type
REMARK                         _______ _______ _______ _____ _____    ______ ____
ROOT
ATOM      1  C   UNL     1      35.730 -18.135 -21.513  0.00  0.00    +0.232 C 
ENDROOT
BRANCH   1   3
ATOM      2  C   UNL     1      34.570 -16.470 -23.039  0.00  0.00    -0.000 C 
ATOM      3  C   UNL     1      34.989 -16.856 -21.755  0.00  0.00    +0.021 C 
ATOM      4  C   UNL     1      33.873 -15.249 -23.201  0.00  0.00    -0.000 C 
ATOM      5  C   UNL     1      34.726 -16.049 -20.648  0.00  0.00    -0.001 C 
ATOM      6  C   UNL     1      34.827 -17.269 -24.165  0.00  0.00    -0.000 C 
ATOM      7  C   UNL     1      33.617 -14.450 -22.075  0.00  0.00    -0.000 C 
ATOM      8  C   UNL     1      33.454 -14.863 -24.485  0.00  0.00    -0.000 C 
ATOM      9  C   UNL     1      34.041 -14.848 -20.808  0.00  0.00    -0.000 C 
ATOM     10  C   UNL     1      34.402 -16.870 -25.432  0.00  0.00    -0.000 C 
ATOM     11  C   UNL     1      33.718 -15.670 -25.593  0.00  0.00    -0.000 C 
ENDBRANCH   1   3
BRANCH   1  12
ATOM     12  O   UNL     1      34.815 -19.220 -21.564  0.00  0.00    -0.468 OA
BRANCH  12  14
ATOM     13  N   UNL     1      33.927 -21.778 -19.107  0.00  0.00    -0.226 NA
ATOM     14  C   UNL     1      34.942 -20.183 -20.596  0.00  0.00    +0.170 C 
ATOM     15  C   UNL     1      33.844 -20.824 -20.061  0.00  0.00    +0.160 C 
ATOM     16  C   UNL     1      36.203 -20.528 -20.140  0.00  0.00    +0.041 C 
ATOM     17  C   UNL     1      36.328 -21.504 -19.159  0.00  0.00    +0.024 C 
ATOM     18  C   UNL     1      35.169 -22.095 -18.680  0.00  0.00    +0.101 C 
ATOM     19  N   UNL     1      32.557 -20.465 -20.535  0.00  0.00    -0.340 N 
ATOM     20  H   UNL     1      31.757 -20.907 -20.169  0.00  0.00    +0.144 HD
ATOM     21  H   UNL     1      32.464 -19.773 -21.230  0.00  0.00    +0.144 HD
ENDBRANCH  12  14
ENDBRANCH   1  12
TORSDOF 3
ENDMDL
MODEL 2
REMARK VINA RESULT:     -10.0      0.756      2.446
REMARK  Name = 5326871
REMARK  3 active torsions:
REMARK  status: ('A' for Active; 'I' for Inactive)
REMARK    1  A    between atoms: C_1  and  C_3
REMARK    2  A    between atoms: C_1  and  O_12
REMARK    3  A    between atoms: O_12  and  C_14
REMARK                            x       y       z     vdW  Elec       q    Type
REMARK                         _______ _______ _______ _____ _____    ______ ____
ROOT
ATOM      1  C   UNL     1      35.116 -17.928 -21.293  0.00  0.00    +0.232 C 
ENDROOT
BRANCH   1   3
ATOM      2  C   UNL     1      33.900 -15.866 -22.142  0.00  0.00    -0.000 C 
ATOM      3  C   UNL     1      34.650 -17.027 -22.395  0.00  0.00    +0.021 C 
ATOM      4  C   UNL     1      33.490 -15.057 -23.227  0.00  0.00    -0.000 C 
ATOM      5  C   UNL     1      34.987 -17.385 -23.700  0.00  0.00    -0.001 C 
ATOM      6  C   UNL     1      33.551 -15.491 -20.834  0.00  0.00    -0.000 C 
ATOM      7  C   UNL     1      33.840 -15.433 -24.535  0.00  0.00    -0.000 C 
ATOM      8  C   UNL     1      32.741 -13.896 -22.974  0.00  0.00    -0.000 C 
ATOM      9  C   UNL     1      34.584 -16.589 -24.768  0.00  0.00    -0.000 C 
ATOM     10  C   UNL     1      32.807 -14.334 -20.601  0.00  0.00    -0.000 C 
ATOM     11  C   UNL     1      32.403 -13.538 -21.668  0.00  0.00    -0.000 C 
ENDBRANCH   1   3
BRANCH   1  12
ATOM     12  O   UNL     1      34.833 -19.276 -21.642  0.00  0.00    -0.468 OA
BRANCH  12  14
ATOM     13  N   UNL     1      33.899 -21.754 -19.121  0.00  0.00    -0.226 NA
ATOM     14  C   UNL     1      34.942 -20.209 -20.644  0.00  0.00    +0.170 C 
ATOM     15  C   UNL     1      33.834 -20.829 -20.105  0.00  0.00    +0.160 C 
ATOM     16  C   UNL     1      36.195 -20.545 -20.159  0.00  0.00    +0.041 C 
ATOM     17  C   UNL     1      36.302 -21.491 -19.148  0.00  0.00    +0.024 C 
ATOM     18  C   UNL     1      35.134 -22.063 -18.667  0.00  0.00    +0.101 C 
ATOM     19  N   UNL     1      32.556 -20.479 -20.607  0.00  0.00    -0.340 N 
ATOM     20  H   UNL     1      31.748 -20.907 -20.240  0.00  0.00    +0.144 HD
ATOM     21  H   UNL     1      32.475 -19.809 -21.324  0.00  0.00    +0.144 HD
ENDBRANCH  12  14
ENDBRANCH   1  12
TORSDOF 3
ENDMDL
MODEL 3
REMARK VINA RESULT:      -9.9      1.261      2.948
REMARK  Name = 5326871
REMARK  3 active torsions:
REMARK  status: ('A' for Active; 'I' for Inactive)
REMARK    1  A    between atoms: C_1  and  C_3
REMARK    2  A    between atoms: C_1  and  O_12
REMARK    3  A    between atoms: O_12  and  C_14
REMARK                            x       y       z     vdW  Elec       q    Type
REMARK                         _______ _______ _______ _____ _____    ______ ____
ROOT
ATOM      1  C   UNL     1      35.306 -17.466 -21.201  0.00  0.00    +0.232 C 
ENDROOT
BRANCH   1   3
ATOM      2  C   UNL     1      33.907 -15.576 -22.161  0.00  0.00    -0.000 C 
ATOM      3  C   UNL     1      34.735 -16.695 -22.352  0.00  0.00    +0.021 C 
ATOM      4  C   UNL     1      33.399 -14.891 -23.290  0.00  0.00    -0.000 C 
ATOM      5  C   UNL     1      35.056 -17.132 -23.636  0.00  0.00    -0.001 C 
ATOM      6  C   UNL     1      33.572 -15.123 -20.875  0.00  0.00    -0.000 C 
ATOM      7  C   UNL     1      33.734 -15.345 -24.577  0.00  0.00    -0.000 C 
ATOM      8  C   UNL     1      32.571 -13.773 -23.100  0.00  0.00    -0.000 C 
ATOM      9  C   UNL     1      34.557 -16.458 -24.747  0.00  0.00    -0.000 C 
ATOM     10  C   UNL     1      32.749 -14.010 -20.705  0.00  0.00    -0.000 C 
ATOM     11  C   UNL     1      32.249 -13.336 -21.815  0.00  0.00    -0.000 C 
ENDBRANCH   1   3
BRANCH   1  12
ATOM     12  O   UNL     1      35.465 -18.824 -21.584  0.00  0.00    -0.468 OA
BRANCH  12  14
ATOM     13  N   UNL     1      34.866 -21.643 -19.333  0.00  0.00    -0.226 NA
ATOM     14  C   UNL     1      34.804 -19.761 -20.832  0.00  0.00    +0.170 C 
ATOM     15  C   UNL     1      35.481 -20.704 -20.087  0.00  0.00    +0.160 C 
ATOM     16  C   UNL     1      33.420 -19.765 -20.814  0.00  0.00    +0.041 C 
ATOM     17  C   UNL     1      32.752 -20.716 -20.051  0.00  0.00    +0.024 C 
ATOM     18  C   UNL     1      33.515 -21.624 -19.334  0.00  0.00    +0.101 C 
ATOM     19  N   UNL     1      36.898 -20.691 -20.112  0.00  0.00    -0.340 N 
ATOM     20  H   UNL     1      37.405 -21.354 -19.589  0.00  0.00    +0.144 HD
ATOM     21  H   UNL     1      37.375 -20.019 -20.651  0.00  0.00    +0.144 HD
ENDBRANCH  12  14
ENDBRANCH   1  12
TORSDOF 3
ENDMDL
MODEL 4
REMARK VINA RESULT:      -9.8      4.251      7.316
REMARK  Name = 5326871
REMARK  3 active torsions:
REMARK  status: ('A' for Active; 'I' for Inactive)
REMARK    1  A    between atoms: C_1  and  C_3
REMARK    2  A    between atoms: C_1  and  O_12
REMARK    3  A    between atoms: O_12  and  C_14
REMARK                            x       y       z     vdW  Elec       q    Type
REMARK                         _______ _______ _______ _____ _____    ______ ____
ROOT
ATOM      1  C   UNL     1      33.886 -13.956 -23.866  0.00  0.00    +0.232 C 
ENDROOT
BRANCH   1   3
ATOM      2  C   UNL     1      34.441 -16.381 -23.355  0.00  0.00    -0.000 C 
ATOM      3  C   UNL     1      34.237 -15.062 -22.918  0.00  0.00    +0.021 C 
ATOM      4  C   UNL     1      34.771 -17.380 -22.408  0.00  0.00    -0.000 C 
ATOM      5  C   UNL     1      34.354 -14.733 -21.567  0.00  0.00    -0.001 C 
ATOM      6  C   UNL     1      34.326 -16.730 -24.710  0.00  0.00    -0.000 C 
ATOM      7  C   UNL     1      34.886 -17.030 -21.052  0.00  0.00    -0.000 C 
ATOM      8  C   UNL     1      34.975 -18.699 -22.844  0.00  0.00    -0.000 C 
ATOM      9  C   UNL     1      34.679 -15.715 -20.636  0.00  0.00    -0.000 C 
ATOM     10  C   UNL     1      34.533 -18.045 -25.126  0.00  0.00    -0.000 C 
ATOM     11  C   UNL     1      34.857 -19.028 -24.195  0.00  0.00    -0.000 C 
ENDBRANCH   1   3
BRANCH   1  12
ATOM     12  O   UNL     1      32.769 -13.242 -23.356  0.00  0.00    -0.468 OA
BRANCH  12  14
ATOM     13  N   UNL     1      32.102  -9.759 -22.467  0.00  0.00    -0.226 NA
ATOM     14  C   UNL     1      32.878 -11.876 -23.307  0.00  0.00    +0.170 C 
ATOM     15  C   UNL     1      32.027 -11.107 -22.541  0.00  0.00    +0.160 C 
ATOM     16  C   UNL     1      33.866 -11.246 -24.043  0.00  0.00    +0.041 C 
ATOM     17  C   UNL     1      33.974  -9.861 -23.992  0.00  0.00    +0.024 C 
ATOM     18  C   UNL     1      33.075  -9.170 -23.195  0.00  0.00    +0.101 C 
ATOM     19  N   UNL     1      31.018 -11.761 -21.792  0.00  0.00    -0.340 N 
ATOM     20  H   UNL     1      30.398 -11.235 -21.236  0.00  0.00    +0.144 HD
ATOM     21  H   UNL     1      30.938 -12.742 -21.824  0.00  0.00    +0.144 HD
ENDBRANCH  12  14
ENDBRANCH   1  12
TORSDOF 3
ENDMDL
MODEL 5
REMARK VINA RESULT:      -9.7      2.832      6.589
REMARK  Name = 5326871
REMARK  3 active torsions:
REMARK  status: ('A' for Active; 'I' for Inactive)
REMARK    1  A    between atoms: C_1  and  C_3
REMARK    2  A    between atoms: C_1  and  O_12
REMARK    3  A    between atoms: O_12  and  C_14
REMARK                            x       y       z     vdW  Elec       q    Type
REMARK                         _______ _______ _______ _____ _____    ______ ____
ROOT
ATOM      1  C   UNL     1      33.992 -18.015 -21.821  0.00  0.00    +0.232 C 
ENDROOT
BRANCH   1   3
ATOM      2  C   UNL     1      34.504 -20.062 -20.407  0.00  0.00    -0.000 C 
ATOM      3  C   UNL     1      34.947 -18.963 -21.163  0.00  0.00    +0.021 C 
ATOM      4  C   UNL     1      35.458 -20.920 -19.811  0.00  0.00    -0.000 C 
ATOM      5  C   UNL     1      36.310 -18.715 -21.327  0.00  0.00    -0.001 C 
ATOM      6  C   UNL     1      33.137 -20.325 -20.230  0.00  0.00    -0.000 C 
ATOM      7  C   UNL     1      36.826 -20.656 -19.988  0.00  0.00    -0.000 C 
ATOM      8  C   UNL     1      35.016 -22.018 -19.055  0.00  0.00    -0.000 C 
ATOM      9  C   UNL     1      37.248 -19.560 -20.741  0.00  0.00    -0.000 C 
ATOM     10  C   UNL     1      32.715 -21.421 -19.477  0.00  0.00    -0.000 C 
ATOM     11  C   UNL     1      33.652 -22.266 -18.890  0.00  0.00    -0.000 C 
ENDBRANCH   1   3
BRANCH   1  12
ATOM     12  O   UNL     1      34.640 -16.767 -22.024  0.00  0.00    -0.468 OA
BRANCH  12  14
ATOM     13  N   UNL     1      32.668 -13.888 -23.112  0.00  0.00    -0.226 NA
ATOM     14  C   UNL     1      33.853 -15.646 -21.974  0.00  0.00    +0.170 C 
ATOM     15  C   UNL     1      33.443 -14.995 -23.119  0.00  0.00    +0.160 C 
ATOM     16  C   UNL     1      33.454 -15.148 -20.745  0.00  0.00    +0.041 C 
ATOM     17  C   UNL     1      32.657 -14.011 -20.698  0.00  0.00    +0.024 C 
ATOM     18  C   UNL     1      32.293 -13.424 -21.900  0.00  0.00    +0.101 C 
ATOM     19  N   UNL     1      33.857 -15.511 -24.372  0.00  0.00    -0.340 N 
ATOM     20  H   UNL     1      33.578 -15.066 -25.205  0.00  0.00    +0.144 HD
ATOM     21  H   UNL     1      34.422 -16.317 -24.410  0.00  0.00    +0.144 HD
ENDBRANCH  12  14
ENDBRANCH   1  12
TORSDOF 3
ENDMDL
MODEL 6
REMARK VINA RESULT:      -9.7      4.260      6.716
REMARK  Name = 5326871
REMARK  3 active torsions:
REMARK  status: ('A' for Active; 'I' for Inactive)
REMARK    1  A    between atoms: C_1  and  C_3
REMARK    2  A    between atoms: C_1  and  O_12
REMARK    3  A    between atoms: O_12  and  C_14
REMARK                            x       y       z     vdW  Elec       q    Type
REMARK                         _______ _______ _______ _____ _____    ______ ____
ROOT
ATOM      1  C   UNL     1      33.252 -22.930 -17.741  0.00  0.00    +0.232 C 
ENDROOT
BRANCH   1   3
ATOM      2  C   UNL     1      34.195 -21.281 -19.427  0.00  0.00    -0.000 C 
ATOM      3  C   UNL     1      34.390 -22.185 -18.370  0.00  0.00    +0.021 C 
ATOM      4  C   UNL     1      35.312 -20.609 -19.977  0.00  0.00    -0.000 C 
ATOM      5  C   UNL     1      35.668 -22.424 -17.864  0.00  0.00    -0.001 C 
ATOM      6  C   UNL     1      32.916 -21.030 -19.950  0.00  0.00    -0.000 C 
ATOM      7  C   UNL     1      36.591 -20.861 -19.454  0.00  0.00    -0.000 C 
ATOM      8  C   UNL     1      35.118 -19.705 -21.034  0.00  0.00    -0.000 C 
ATOM      9  C   UNL     1      36.766 -21.762 -18.404  0.00  0.00    -0.000 C 
ATOM     10  C   UNL     1      32.741 -20.129 -20.999  0.00  0.00    -0.000 C 
ATOM     11  C   UNL     1      33.839 -19.467 -21.541  0.00  0.00    -0.000 C 
ENDBRANCH   1   3
BRANCH   1  12
ATOM     12  O   UNL     1      33.661 -23.420 -16.472  0.00  0.00    -0.468 OA
BRANCH  12  14
ATOM     13  N   UNL     1      31.970 -24.408 -13.384  0.00  0.00    -0.226 NA
ATOM     14  C   UNL     1      32.685 -23.555 -15.518  0.00  0.00    +0.170 C 
ATOM     15  C   UNL     1      32.905 -24.252 -14.349  0.00  0.00    +0.160 C 
ATOM     16  C   UNL     1      31.445 -22.977 -15.727  0.00  0.00    +0.041 C 
ATOM     17  C   UNL     1      30.458 -23.115 -14.758  0.00  0.00    +0.024 C 
ATOM     18  C   UNL     1      30.769 -23.833 -13.613  0.00  0.00    +0.101 C 
ATOM     19  N   UNL     1      34.178 -24.841 -14.144  0.00  0.00    -0.340 N 
ATOM     20  H   UNL     1      34.361 -25.344 -13.318  0.00  0.00    +0.144 HD
ATOM     21  H   UNL     1      34.880 -24.745 -14.828  0.00  0.00    +0.144 HD
ENDBRANCH  12  14
ENDBRANCH   1  12
TORSDOF 3
ENDMDL
MODEL 7
REMARK VINA RESULT:      -9.6      2.712      6.695
REMARK  Name = 5326871
REMARK  3 active torsions:
REMARK  status: ('A' for Active; 'I' for Inactive)
REMARK    1  A    between atoms: C_1  and  C_3
REMARK    2  A    between atoms: C_1  and  O_12
REMARK    3  A    between atoms: O_12  and  C_14
REMARK                            x       y       z     vdW  Elec       q    Type
REMARK                         _______ _______ _______ _____ _____    ______ ____
ROOT
ATOM      1  C   UNL     1      34.230 -17.804 -22.209  0.00  0.00    +0.232 C 
ENDROOT
BRANCH   1   3
ATOM      2  C   UNL     1      34.572 -19.821 -20.705  0.00  0.00    -0.000 C 
ATOM      3  C   UNL     1      35.104 -18.769 -21.469  0.00  0.00    +0.021 C 
ATOM      4  C   UNL     1      35.451 -20.700 -20.029  0.00  0.00    -0.000 C 
ATOM      5  C   UNL     1      36.484 -18.586 -21.563  0.00  0.00    -0.001 C 
ATOM      6  C   UNL     1      33.186 -20.020 -20.597  0.00  0.00    -0.000 C 
ATOM      7  C   UNL     1      36.838 -20.500 -20.136  0.00  0.00    -0.000 C 
ATOM      8  C   UNL     1      34.920 -21.751 -19.265  0.00  0.00    -0.000 C 
ATOM      9  C   UNL     1      37.349 -19.450 -20.899  0.00  0.00    -0.000 C 
ATOM     10  C   UNL     1      32.675 -21.070 -19.835  0.00  0.00    -0.000 C 
ATOM     11  C   UNL     1      33.539 -21.934 -19.170  0.00  0.00    -0.000 C 
ENDBRANCH   1   3
BRANCH   1  12
ATOM     12  O   UNL     1      35.049 -16.883 -22.916  0.00  0.00    -0.468 OA
BRANCH  12  14
ATOM     13  N   UNL     1      33.438 -13.817 -24.088  0.00  0.00    -0.226 NA
ATOM     14  C   UNL     1      34.409 -15.991 -23.738  0.00  0.00    +0.170 C 
ATOM     15  C   UNL     1      34.068 -14.725 -23.309  0.00  0.00    +0.160 C 
ATOM     16  C   UNL     1      34.096 -16.363 -25.034  0.00  0.00    +0.041 C 
ATOM     17  C   UNL     1      33.448 -15.456 -25.864  0.00  0.00    +0.024 C 
ATOM     18  C   UNL     1      33.144 -14.206 -25.348  0.00  0.00    +0.101 C 
ATOM     19  N   UNL     1      34.393 -14.353 -21.981  0.00  0.00    -0.340 N 
ATOM     20  H   UNL     1      34.160 -13.455 -21.650  0.00  0.00    +0.144 HD
ATOM     21  H   UNL     1      34.852 -14.992 -21.389  0.00  0.00    +0.144 HD
ENDBRANCH  12  14
ENDBRANCH   1  12
TORSDOF 3
ENDMDL
MODEL 8
REMARK VINA RESULT:      -9.6      4.898      7.102
REMARK  Name = 5326871
REMARK  3 active torsions:
REMARK  status: ('A' for Active; 'I' for Inactive)
REMARK    1  A    between atoms: C_1  and  C_3
REMARK    2  A    between atoms: C_1  and  O_12
REMARK    3  A    between atoms: O_12  and  C_14
REMARK                            x       y       z     vdW  Elec       q    Type
REMARK                         _______ _______ _______ _____ _____    ______ ____
ROOT
ATOM      1  C   UNL     1      33.677 -12.389 -24.100  0.00  0.00    +0.232 C 
ENDROOT
BRANCH   1   3
ATOM      2  C   UNL     1      33.393 -10.002 -23.280  0.00  0.00    -0.000 C 
ATOM      3  C   UNL     1      33.004 -11.352 -23.254  0.00  0.00    +0.021 C 
ATOM      4  C   UNL     1      32.717  -9.071 -22.455  0.00  0.00    -0.000 C 
ATOM      5  C   UNL     1      31.965 -11.777 -22.426  0.00  0.00    -0.001 C 
ATOM      6  C   UNL     1      34.438  -9.556 -24.105  0.00  0.00    -0.000 C 
ATOM      7  C   UNL     1      31.672  -9.517 -21.630  0.00  0.00    -0.000 C 
ATOM      8  C   UNL     1      33.106  -7.722 -22.481  0.00  0.00    -0.000 C 
ATOM      9  C   UNL     1      31.300 -10.861 -21.616  0.00  0.00    -0.000 C 
ATOM     10  C   UNL     1      34.811  -8.213 -24.118  0.00  0.00    -0.000 C 
ATOM     11  C   UNL     1      34.147  -7.296 -23.308  0.00  0.00    -0.000 C 
ENDBRANCH   1   3
BRANCH   1  12
ATOM     12  O   UNL     1      32.884 -13.567 -24.110  0.00  0.00    -0.468 OA
BRANCH  12  14
ATOM     13  N   UNL     1      33.953 -16.553 -25.931  0.00  0.00    -0.226 NA
ATOM     14  C   UNL     1      33.526 -14.742 -24.403  0.00  0.00    +0.170 C 
ATOM     15  C   UNL     1      33.338 -15.393 -25.604  0.00  0.00    +0.160 C 
ATOM     16  C   UNL     1      34.390 -15.296 -23.473  0.00  0.00    +0.041 C 
ATOM     17  C   UNL     1      35.039 -16.487 -23.773  0.00  0.00    +0.024 C 
ATOM     18  C   UNL     1      34.790 -17.070 -25.005  0.00  0.00    +0.101 C 
ATOM     19  N   UNL     1      32.453 -14.819 -26.550  0.00  0.00    -0.340 N 
ATOM     20  H   UNL     1      32.300 -15.264 -27.415  0.00  0.00    +0.144 HD
ATOM     21  H   UNL     1      31.990 -13.975 -26.342  0.00  0.00    +0.144 HD
ENDBRANCH  12  14
ENDBRANCH   1  12
TORSDOF 3
ENDMDL
MODEL 9
REMARK VINA RESULT:      -9.5      3.891      8.689
REMARK  Name = 5326871
REMARK  3 active torsions:
REMARK  status: ('A' for Active; 'I' for Inactive)
REMARK    1  A    between atoms: C_1  and  C_3
REMARK    2  A    between atoms: C_1  and  O_12
REMARK    3  A    between atoms: O_12  and  C_14
REMARK                            x       y       z     vdW  Elec       q    Type
REMARK                         _______ _______ _______ _____ _____    ______ ____
ROOT
ATOM      1  C   UNL     1      33.476 -23.145 -18.295  0.00  0.00    +0.232 C 
ENDROOT
BRANCH   1   3
ATOM      2  C   UNL     1      32.484 -23.280 -15.960  0.00  0.00    -0.000 C 
ATOM      3  C   UNL     1      33.602 -23.317 -16.812  0.00  0.00    +0.021 C 
ATOM      4  C   UNL     1      32.670 -23.450 -14.568  0.00  0.00    -0.000 C 
ATOM      5  C   UNL     1      34.882 -23.516 -16.297  0.00  0.00    -0.001 C 
ATOM      6  C   UNL     1      31.188 -23.080 -16.461  0.00  0.00    -0.000 C 
ATOM      7  C   UNL     1      33.967 -23.650 -14.067  0.00  0.00    -0.000 C 
ATOM      8  C   UNL     1      31.554 -23.413 -13.717  0.00  0.00    -0.000 C 
ATOM      9  C   UNL     1      35.065 -23.683 -14.927  0.00  0.00    -0.000 C 
ATOM     10  C   UNL     1      30.091 -23.047 -15.602  0.00  0.00    -0.000 C 
ATOM     11  C   UNL     1      30.272 -23.213 -14.232  0.00  0.00    -0.000 C 
ENDBRANCH   1   3
BRANCH   1  12
ATOM     12  O   UNL     1      34.662 -22.543 -18.795  0.00  0.00    -0.468 OA
BRANCH  12  14
ATOM     13  N   UNL     1      35.483 -19.581 -20.774  0.00  0.00    -0.226 NA
ATOM     14  C   UNL     1      34.508 -21.413 -19.556  0.00  0.00    +0.170 C 
ATOM     15  C   UNL     1      35.592 -20.698 -20.022  0.00  0.00    +0.160 C 
ATOM     16  C   UNL     1      33.234 -20.972 -19.870  0.00  0.00    +0.041 C 
ATOM     17  C   UNL     1      33.082 -19.826 -20.641  0.00  0.00    +0.024 C 
ATOM     18  C   UNL     1      34.228 -19.172 -21.066  0.00  0.00    +0.101 C 
ATOM     19  N   UNL     1      36.892 -21.158 -19.695  0.00  0.00    -0.340 N 
ATOM     20  H   UNL     1      37.683 -20.666 -20.015  0.00  0.00    +0.144 HD
ATOM     21  H   UNL     1      37.005 -21.970 -19.149  0.00  0.00    +0.144 HD
ENDBRANCH  12  14
ENDBRANCH   1  12
TORSDOF 3
ENDMDL
