MODEL 1
REMARK VINA RESULT:      -9.6      0.000      0.000
REMARK  Name = 23657800
REMARK  6 active torsions:
REMARK  status: ('A' for Active; 'I' for Inactive)
REMARK    1  A    between atoms: N_3  and  C_8
REMARK    2  A    between atoms: C_9  and  O_14
REMARK    3  A    between atoms: C_18  and  O_22
REMARK    4  A    between atoms: O_22  and  C_23
REMARK    5  A    between atoms: C_23  and  C_25
REMARK    6  A    between atoms: C_25  and  N_26
REMARK                            x       y       z     vdW  Elec       q    Type
REMARK                         _______ _______ _______ _____ _____    ______ ____
ROOT
ATOM      1  O   UNL     1      34.369 -13.320 -22.573  0.00  0.00    -0.252 OA
ATOM      2  N   UNL     1      33.581 -14.280 -24.559  0.00  0.00    -0.245 N 
ATOM      3  N   UNL     1      33.115 -12.067 -24.098  0.00  0.00    -0.266 N 
ATOM      4  C   UNL     1      33.753 -13.227 -23.629  0.00  0.00    +0.310 C 
ATOM      5  H   UNL     1      33.061 -14.057 -25.366  0.00  0.00    +0.159 HD
ATOM      6  H   UNL     1      32.659 -12.146 -24.966  0.00  0.00    +0.157 HD
ATOM      7  N   UNL     1      34.770 -15.980 -23.411  0.00  0.00    -0.353 NA
ATOM      8  N   UNL     1      34.181 -17.738 -25.516  0.00  0.00    -0.254 NA
ATOM      9  C   UNL     1      35.187 -17.261 -23.411  0.00  0.00    +0.298 C 
ATOM     10  C   UNL     1      34.899 -18.124 -24.443  0.00  0.00    +0.165 C 
ATOM     11  C   UNL     1      34.051 -15.593 -24.485  0.00  0.00    +0.192 C 
ATOM     12  C   UNL     1      33.762 -16.457 -25.518  0.00  0.00    +0.200 C 
ENDROOT
BRANCH   3  14
ATOM     13 CL   UNL     1      34.889  -7.281 -23.832  0.00  0.00    -0.082 Cl
ATOM     14  C   UNL     1      33.046 -10.799 -23.474  0.00  0.00    +0.087 C 
ATOM     15  C   UNL     1      32.143 -10.581 -22.446  0.00  0.00    +0.152 C 
ATOM     16  C   UNL     1      33.895  -9.794 -23.912  0.00  0.00    +0.029 C 
ATOM     17  C   UNL     1      32.088  -9.326 -21.839  0.00  0.00    +0.039 C 
ATOM     18  C   UNL     1      33.840  -8.539 -23.304  0.00  0.00    +0.059 C 
ATOM     19  C   UNL     1      32.937  -8.305 -22.267  0.00  0.00    +0.015 C 
BRANCH  15  20
ATOM     20  O   UNL     1      31.306 -11.564 -22.010  0.00  0.00    -0.470 OA
ATOM     21  C   UNL     1      31.484 -12.020 -20.671  0.00  0.00    +0.253 C 
ENDBRANCH  15  20
ENDBRANCH   3  14
BRANCH   9  22
ATOM     22  O   UNL     1      35.921 -17.690 -22.339  0.00  0.00    -0.457 OA
BRANCH  22  23
ATOM     23  C   UNL     1      35.185 -18.141 -21.202  0.00  0.00    +0.148 C 
ATOM     24  C   UNL     1      33.910 -17.310 -21.119  0.00  0.00    +0.045 C 
BRANCH  23  25
ATOM     25  C   UNL     1      34.915 -19.640 -21.354  0.00  0.00    -0.033 C 
BRANCH  25  26
ATOM     26  N   UNL     1      34.804 -20.311 -20.066  0.00  0.00    +0.387 N 
ATOM     27  C   UNL     1      35.844 -21.333 -19.925  0.00  0.00    -0.101 C 
ATOM     28  C   UNL     1      33.479 -20.912 -19.909  0.00  0.00    -0.101 C 
ATOM     29  H   UNL     1      34.933 -19.613 -19.333  0.00  0.00    -0.080 HD
ENDBRANCH  25  26
ENDBRANCH  23  25
ENDBRANCH  22  23
ENDBRANCH   9  22
TORSDOF 6
ENDMDL
MODEL 2
REMARK VINA RESULT:      -9.4      5.384      8.990
REMARK  Name = 23657800
REMARK  6 active torsions:
REMARK  status: ('A' for Active; 'I' for Inactive)
REMARK    1  A    between atoms: N_3  and  C_8
REMARK    2  A    between atoms: C_9  and  O_14
REMARK    3  A    between atoms: C_18  and  O_22
REMARK    4  A    between atoms: O_22  and  C_23
REMARK    5  A    between atoms: C_23  and  C_25
REMARK    6  A    between atoms: C_25  and  N_26
REMARK                            x       y       z     vdW  Elec       q    Type
REMARK                         _______ _______ _______ _____ _____    ______ ____
ROOT
ATOM      1  O   UNL     1      34.567 -20.941 -19.823  0.00  0.00    -0.252 OA
ATOM      2  N   UNL     1      36.606 -20.775 -18.683  0.00  0.00    -0.245 N 
ATOM      3  N   UNL     1      36.223 -19.450 -20.533  0.00  0.00    -0.266 N 
ATOM      4  C   UNL     1      35.679 -20.439 -19.697  0.00  0.00    +0.310 C 
ATOM      5  H   UNL     1      37.462 -20.289 -18.707  0.00  0.00    +0.159 HD
ATOM      6  H   UNL     1      37.130 -19.144 -20.305  0.00  0.00    +0.157 HD
ATOM      7  N   UNL     1      35.327 -22.417 -17.547  0.00  0.00    -0.353 NA
ATOM      8  N   UNL     1      37.451 -22.750 -15.746  0.00  0.00    -0.254 NA
ATOM      9  C   UNL     1      35.269 -23.296 -16.528  0.00  0.00    +0.298 C 
ATOM     10  C   UNL     1      36.310 -23.460 -15.643  0.00  0.00    +0.165 C 
ATOM     11  C   UNL     1      36.468 -21.707 -17.651  0.00  0.00    +0.192 C 
ATOM     12  C   UNL     1      37.511 -21.870 -16.766  0.00  0.00    +0.200 C 
ENDROOT
BRANCH   3  14
ATOM     13 CL   UNL     1      34.683 -19.910 -25.384  0.00  0.00    -0.082 Cl
ATOM     14  C   UNL     1      35.627 -18.839 -21.661  0.00  0.00    +0.087 C 
ATOM     15  C   UNL     1      35.215 -17.518 -21.597  0.00  0.00    +0.152 C 
ATOM     16  C   UNL     1      35.468 -19.588 -22.818  0.00  0.00    +0.029 C 
ATOM     17  C   UNL     1      34.630 -16.928 -22.718  0.00  0.00    +0.039 C 
ATOM     18  C   UNL     1      34.884 -18.998 -23.939  0.00  0.00    +0.059 C 
ATOM     19  C   UNL     1      34.465 -17.668 -23.889  0.00  0.00    +0.015 C 
BRANCH  15  20
ATOM     20  O   UNL     1      35.368 -16.776 -20.463  0.00  0.00    -0.470 OA
ATOM     21  C   UNL     1      34.635 -15.556 -20.384  0.00  0.00    +0.253 C 
ENDBRANCH  15  20
ENDBRANCH   3  14
BRANCH   9  22
ATOM     22  O   UNL     1      34.125 -24.034 -16.389  0.00  0.00    -0.457 OA
BRANCH  22  23
ATOM     23  C   UNL     1      33.021 -23.387 -15.756  0.00  0.00    +0.148 C 
ATOM     24  C   UNL     1      32.017 -23.021 -16.842  0.00  0.00    +0.045 C 
BRANCH  23  25
ATOM     25  C   UNL     1      32.442 -24.328 -14.696  0.00  0.00    -0.033 C 
BRANCH  25  26
ATOM     26  N   UNL     1      31.005 -24.158 -14.538  0.00  0.00    +0.387 N 
ATOM     27  C   UNL     1      30.688 -23.640 -13.205  0.00  0.00    -0.101 C 
ATOM     28  C   UNL     1      30.307 -25.425 -14.768  0.00  0.00    -0.101 C 
ATOM     29  H   UNL     1      30.687 -23.482 -15.233  0.00  0.00    -0.080 HD
ENDBRANCH  25  26
ENDBRANCH  23  25
ENDBRANCH  22  23
ENDBRANCH   9  22
TORSDOF 6
ENDMDL
MODEL 3
REMARK VINA RESULT:      -9.3      1.876      2.428
REMARK  Name = 23657800
REMARK  6 active torsions:
REMARK  status: ('A' for Active; 'I' for Inactive)
REMARK    1  A    between atoms: N_3  and  C_8
REMARK    2  A    between atoms: C_9  and  O_14
REMARK    3  A    between atoms: C_18  and  O_22
REMARK    4  A    between atoms: O_22  and  C_23
REMARK    5  A    between atoms: C_23  and  C_25
REMARK    6  A    between atoms: C_25  and  N_26
REMARK                            x       y       z     vdW  Elec       q    Type
REMARK                         _______ _______ _______ _____ _____    ______ ____
ROOT
ATOM      1  O   UNL     1      33.979 -14.204 -21.900  0.00  0.00    -0.252 OA
ATOM      2  N   UNL     1      33.599 -15.059 -24.047  0.00  0.00    -0.245 N 
ATOM      3  N   UNL     1      32.831 -12.950 -23.506  0.00  0.00    -0.266 N 
ATOM      4  C   UNL     1      33.517 -14.079 -23.028  0.00  0.00    +0.310 C 
ATOM      5  H   UNL     1      33.180 -14.818 -24.906  0.00  0.00    +0.159 HD
ATOM      6  H   UNL     1      32.518 -12.998 -24.437  0.00  0.00    +0.157 HD
ATOM      7  N   UNL     1      34.787 -16.728 -22.854  0.00  0.00    -0.353 NA
ATOM      8  N   UNL     1      34.706 -18.346 -25.144  0.00  0.00    -0.254 NA
ATOM      9  C   UNL     1      35.338 -17.957 -22.881  0.00  0.00    +0.298 C 
ATOM     10  C   UNL     1      35.299 -18.752 -24.004  0.00  0.00    +0.165 C 
ATOM     11  C   UNL     1      34.194 -16.321 -23.995  0.00  0.00    +0.192 C 
ATOM     12  C   UNL     1      34.155 -17.116 -25.119  0.00  0.00    +0.200 C 
ENDROOT
BRANCH   3  14
ATOM     13 CL   UNL     1      30.685 -10.744 -19.426  0.00  0.00    -0.082 Cl
ATOM     14  C   UNL     1      32.534 -11.754 -22.811  0.00  0.00    +0.087 C 
ATOM     15  C   UNL     1      32.930 -10.534 -23.333  0.00  0.00    +0.152 C 
ATOM     16  C   UNL     1      31.844 -11.835 -21.610  0.00  0.00    +0.029 C 
ATOM     17  C   UNL     1      32.629  -9.362 -22.637  0.00  0.00    +0.039 C 
ATOM     18  C   UNL     1      31.543 -10.664 -20.915  0.00  0.00    +0.059 C 
ATOM     19  C   UNL     1      31.935  -9.427 -21.429  0.00  0.00    +0.015 C 
BRANCH  15  20
ATOM     20  O   UNL     1      33.608 -10.447 -24.512  0.00  0.00    -0.470 OA
ATOM     21  C   UNL     1      34.922  -9.896 -24.465  0.00  0.00    +0.253 C 
ENDBRANCH  15  20
ENDBRANCH   3  14
BRANCH   9  22
ATOM     22  O   UNL     1      35.951 -18.404 -21.743  0.00  0.00    -0.457 OA
BRANCH  22  23
ATOM     23  C   UNL     1      35.138 -19.142 -20.829  0.00  0.00    +0.148 C 
ATOM     24  C   UNL     1      33.748 -19.260 -21.441  0.00  0.00    +0.045 C 
BRANCH  23  25
ATOM     25  C   UNL     1      35.797 -20.499 -20.570  0.00  0.00    -0.033 C 
BRANCH  25  26
ATOM     26  N   UNL     1      35.440 -21.042 -19.267  0.00  0.00    +0.387 N 
ATOM     27  C   UNL     1      36.640 -21.442 -18.527  0.00  0.00    -0.101 C 
ATOM     28  C   UNL     1      34.532 -22.182 -19.413  0.00  0.00    -0.101 C 
ATOM     29  H   UNL     1      34.961 -20.312 -18.739  0.00  0.00    -0.080 HD
ENDBRANCH  25  26
ENDBRANCH  23  25
ENDBRANCH  22  23
ENDBRANCH   9  22
TORSDOF 6
ENDMDL
MODEL 4
REMARK VINA RESULT:      -9.0      2.100      2.876
REMARK  Name = 23657800
REMARK  6 active torsions:
REMARK  status: ('A' for Active; 'I' for Inactive)
REMARK    1  A    between atoms: N_3  and  C_8
REMARK    2  A    between atoms: C_9  and  O_14
REMARK    3  A    between atoms: C_18  and  O_22
REMARK    4  A    between atoms: O_22  and  C_23
REMARK    5  A    between atoms: C_23  and  C_25
REMARK    6  A    between atoms: C_25  and  N_26
REMARK                            x       y       z     vdW  Elec       q    Type
REMARK                         _______ _______ _______ _____ _____    ______ ____
ROOT
ATOM      1  O   UNL     1      33.481 -13.324 -21.817  0.00  0.00    -0.252 OA
ATOM      2  N   UNL     1      32.785 -13.419 -24.051  0.00  0.00    -0.245 N 
ATOM      3  N   UNL     1      32.190 -11.609 -22.747  0.00  0.00    -0.266 N 
ATOM      4  C   UNL     1      32.882 -12.832 -22.767  0.00  0.00    +0.310 C 
ATOM      5  H   UNL     1      32.270 -12.907 -24.717  0.00  0.00    +0.159 HD
ATOM      6  H   UNL     1      31.757 -11.346 -23.590  0.00  0.00    +0.157 HD
ATOM      7  N   UNL     1      34.042 -15.389 -23.649  0.00  0.00    -0.353 NA
ATOM      8  N   UNL     1      33.590 -16.155 -26.309  0.00  0.00    -0.254 NA
ATOM      9  C   UNL     1      34.528 -16.539 -24.154  0.00  0.00    +0.298 C 
ATOM     10  C   UNL     1      34.307 -16.916 -25.459  0.00  0.00    +0.165 C 
ATOM     11  C   UNL     1      33.324 -14.627 -24.500  0.00  0.00    +0.192 C 
ATOM     12  C   UNL     1      33.103 -15.004 -25.806  0.00  0.00    +0.200 C 
ENDROOT
BRANCH   3  14
ATOM     13 CL   UNL     1      31.176 -10.963 -17.780  0.00  0.00    -0.082 Cl
ATOM     14  C   UNL     1      32.041 -10.712 -21.664  0.00  0.00    +0.087 C 
ATOM     15  C   UNL     1      32.210  -9.351 -21.864  0.00  0.00    +0.152 C 
ATOM     16  C   UNL     1      31.725 -11.222 -20.414  0.00  0.00    +0.029 C 
ATOM     17  C   UNL     1      32.058  -8.477 -20.787  0.00  0.00    +0.039 C 
ATOM     18  C   UNL     1      31.572 -10.349 -19.337  0.00  0.00    +0.059 C 
ATOM     19  C   UNL     1      31.739  -8.976 -19.524  0.00  0.00    +0.015 C 
BRANCH  15  20
ATOM     20  O   UNL     1      32.521  -8.843 -23.090  0.00  0.00    -0.470 OA
ATOM     21  C   UNL     1      33.733  -8.098 -23.194  0.00  0.00    +0.253 C 
ENDBRANCH  15  20
ENDBRANCH   3  14
BRANCH   9  22
ATOM     22  O   UNL     1      35.263 -17.338 -23.322  0.00  0.00    -0.457 OA
BRANCH  22  23
ATOM     23  C   UNL     1      34.641 -18.546 -22.884  0.00  0.00    +0.148 C 
ATOM     24  C   UNL     1      35.021 -19.644 -23.871  0.00  0.00    +0.045 C 
BRANCH  23  25
ATOM     25  C   UNL     1      35.096 -18.843 -21.453  0.00  0.00    -0.033 C 
BRANCH  25  26
ATOM     26  N   UNL     1      34.709 -20.179 -21.020  0.00  0.00    +0.387 N 
ATOM     27  C   UNL     1      33.352 -20.169 -20.468  0.00  0.00    -0.101 C 
ATOM     28  C   UNL     1      35.655 -20.696 -20.030  0.00  0.00    -0.101 C 
ATOM     29  H   UNL     1      34.723 -20.792 -21.835  0.00  0.00    -0.080 HD
ENDBRANCH  25  26
ENDBRANCH  23  25
ENDBRANCH  22  23
ENDBRANCH   9  22
TORSDOF 6
ENDMDL
MODEL 5
REMARK VINA RESULT:      -9.0      1.327      2.089
REMARK  Name = 23657800
REMARK  6 active torsions:
REMARK  status: ('A' for Active; 'I' for Inactive)
REMARK    1  A    between atoms: N_3  and  C_8
REMARK    2  A    between atoms: C_9  and  O_14
REMARK    3  A    between atoms: C_18  and  O_22
REMARK    4  A    between atoms: O_22  and  C_23
REMARK    5  A    between atoms: C_23  and  C_25
REMARK    6  A    between atoms: C_25  and  N_26
REMARK                            x       y       z     vdW  Elec       q    Type
REMARK                         _______ _______ _______ _____ _____    ______ ____
ROOT
ATOM      1  O   UNL     1      34.191 -13.125 -22.890  0.00  0.00    -0.252 OA
ATOM      2  N   UNL     1      33.251 -13.901 -24.890  0.00  0.00    -0.245 N 
ATOM      3  N   UNL     1      32.940 -11.702 -24.261  0.00  0.00    -0.266 N 
ATOM      4  C   UNL     1      33.531 -12.926 -23.904  0.00  0.00    +0.310 C 
ATOM      5  H   UNL     1      32.706 -13.595 -25.652  0.00  0.00    +0.159 HD
ATOM      6  H   UNL     1      32.439 -11.697 -25.108  0.00  0.00    +0.157 HD
ATOM      7  N   UNL     1      34.392 -15.739 -23.919  0.00  0.00    -0.353 NA
ATOM      8  N   UNL     1      33.597 -17.315 -26.100  0.00  0.00    -0.254 NA
ATOM      9  C   UNL     1      34.732 -17.039 -24.024  0.00  0.00    +0.298 C 
ATOM     10  C   UNL     1      34.343 -17.813 -25.094  0.00  0.00    +0.165 C 
ATOM     11  C   UNL     1      33.646 -15.241 -24.926  0.00  0.00    +0.192 C 
ATOM     12  C   UNL     1      33.256 -16.015 -25.997  0.00  0.00    +0.200 C 
ENDROOT
BRANCH   3  14
ATOM     13 CL   UNL     1      35.040  -7.071 -23.749  0.00  0.00    -0.082 Cl
ATOM     14  C   UNL     1      32.978 -10.478 -23.553  0.00  0.00    +0.087 C 
ATOM     15  C   UNL     1      32.126 -10.272 -22.480  0.00  0.00    +0.152 C 
ATOM     16  C   UNL     1      33.878  -9.503 -23.956  0.00  0.00    +0.029 C 
ATOM     17  C   UNL     1      32.175  -9.060 -21.791  0.00  0.00    +0.039 C 
ATOM     18  C   UNL     1      33.927  -8.292 -23.266  0.00  0.00    +0.059 C 
ATOM     19  C   UNL     1      33.076  -8.070 -22.183  0.00  0.00    +0.015 C 
BRANCH  15  20
ATOM     20  O   UNL     1      31.239 -11.226 -22.079  0.00  0.00    -0.470 OA
ATOM     21  C   UNL     1      30.766 -11.147 -20.737  0.00  0.00    +0.253 C 
ENDBRANCH  15  20
ENDBRANCH   3  14
BRANCH   9  22
ATOM     22  O   UNL     1      35.491 -17.580 -23.023  0.00  0.00    -0.457 OA
BRANCH  22  23
ATOM     23  C   UNL     1      34.784 -18.088 -21.891  0.00  0.00    +0.148 C 
ATOM     24  C   UNL     1      35.396 -19.437 -21.534  0.00  0.00    +0.045 C 
BRANCH  23  25
ATOM     25  C   UNL     1      34.878 -17.066 -20.754  0.00  0.00    -0.033 C 
BRANCH  25  26
ATOM     26  N   UNL     1      34.121 -15.856 -21.041  0.00  0.00    +0.387 N 
ATOM     27  C   UNL     1      34.636 -14.728 -20.261  0.00  0.00    -0.101 C 
ATOM     28  C   UNL     1      32.699 -16.058 -20.759  0.00  0.00    -0.101 C 
ATOM     29  H   UNL     1      34.229 -15.642 -22.032  0.00  0.00    -0.080 HD
ENDBRANCH  25  26
ENDBRANCH  23  25
ENDBRANCH  22  23
ENDBRANCH   9  22
TORSDOF 6
ENDMDL
MODEL 6
REMARK VINA RESULT:      -9.0      6.502     12.179
REMARK  Name = 23657800
REMARK  6 active torsions:
REMARK  status: ('A' for Active; 'I' for Inactive)
REMARK    1  A    between atoms: N_3  and  C_8
REMARK    2  A    between atoms: C_9  and  O_14
REMARK    3  A    between atoms: C_18  and  O_22
REMARK    4  A    between atoms: O_22  and  C_23
REMARK    5  A    between atoms: C_23  and  C_25
REMARK    6  A    between atoms: C_25  and  N_26
REMARK                            x       y       z     vdW  Elec       q    Type
REMARK                         _______ _______ _______ _____ _____    ______ ____
ROOT
ATOM      1  O   UNL     1      37.012 -22.080 -17.015  0.00  0.00    -0.252 OA
ATOM      2  N   UNL     1      34.814 -22.744 -17.478  0.00  0.00    -0.245 N 
ATOM      3  N   UNL     1      35.966 -23.742 -15.744  0.00  0.00    -0.266 N 
ATOM      4  C   UNL     1      36.038 -22.782 -16.768  0.00  0.00    +0.310 C 
ATOM      5  H   UNL     1      34.119 -23.368 -17.166  0.00  0.00    +0.159 HD
ATOM      6  H   UNL     1      35.114 -24.229 -15.669  0.00  0.00    +0.157 HD
ATOM      7  N   UNL     1      35.358 -21.057 -19.054  0.00  0.00    -0.353 NA
ATOM      8  N   UNL     1      32.791 -21.328 -20.150  0.00  0.00    -0.254 NA
ATOM      9  C   UNL     1      34.946 -20.317 -20.101  0.00  0.00    +0.298 C 
ATOM     10  C   UNL     1      33.686 -20.448 -20.639  0.00  0.00    +0.165 C 
ATOM     11  C   UNL     1      34.462 -21.938 -18.563  0.00  0.00    +0.192 C 
ATOM     12  C   UNL     1      33.201 -22.070 -19.102  0.00  0.00    +0.200 C 
ENDROOT
BRANCH   3  14
ATOM     13 CL   UNL     1      40.563 -25.812 -14.912  0.00  0.00    -0.082 Cl
ATOM     14  C   UNL     1      36.967 -24.093 -14.809  0.00  0.00    +0.087 C 
ATOM     15  C   UNL     1      36.780 -23.830 -13.462  0.00  0.00    +0.152 C 
ATOM     16  C   UNL     1      38.126 -24.700 -15.271  0.00  0.00    +0.029 C 
ATOM     17  C   UNL     1      37.776 -24.183 -12.551  0.00  0.00    +0.039 C 
ATOM     18  C   UNL     1      39.121 -25.054 -14.359  0.00  0.00    +0.059 C 
ATOM     19  C   UNL     1      38.946 -24.796 -13.000  0.00  0.00    +0.015 C 
BRANCH  15  20
ATOM     20  O   UNL     1      35.643 -23.234 -13.002  0.00  0.00    -0.470 OA
ATOM     21  C   UNL     1      34.671 -24.078 -12.390  0.00  0.00    +0.253 C 
ENDBRANCH  15  20
ENDBRANCH   3  14
BRANCH   9  22
ATOM     22  O   UNL     1      35.827 -19.411 -20.624  0.00  0.00    -0.457 OA
BRANCH  22  23
ATOM     23  C   UNL     1      35.284 -18.431 -21.510  0.00  0.00    +0.148 C 
ATOM     24  C   UNL     1      35.036 -17.165 -20.699  0.00  0.00    +0.045 C 
BRANCH  23  25
ATOM     25  C   UNL     1      36.262 -18.220 -22.668  0.00  0.00    -0.033 C 
BRANCH  25  26
ATOM     26  N   UNL     1      35.586 -18.188 -23.958  0.00  0.00    +0.387 N 
ATOM     27  C   UNL     1      34.974 -16.877 -24.188  0.00  0.00    -0.101 C 
ATOM     28  C   UNL     1      34.571 -19.240 -24.034  0.00  0.00    -0.101 C 
ATOM     29  H   UNL     1      36.281 -18.354 -24.685  0.00  0.00    -0.080 HD
ENDBRANCH  25  26
ENDBRANCH  23  25
ENDBRANCH  22  23
ENDBRANCH   9  22
TORSDOF 6
ENDMDL
MODEL 7
REMARK VINA RESULT:      -8.8      3.953      9.331
REMARK  Name = 23657800
REMARK  6 active torsions:
REMARK  status: ('A' for Active; 'I' for Inactive)
REMARK    1  A    between atoms: N_3  and  C_8
REMARK    2  A    between atoms: C_9  and  O_14
REMARK    3  A    between atoms: C_18  and  O_22
REMARK    4  A    between atoms: O_22  and  C_23
REMARK    5  A    between atoms: C_23  and  C_25
REMARK    6  A    between atoms: C_25  and  N_26
REMARK                            x       y       z     vdW  Elec       q    Type
REMARK                         _______ _______ _______ _____ _____    ______ ____
ROOT
ATOM      1  O   UNL     1      35.022 -18.828 -20.270  0.00  0.00    -0.252 OA
ATOM      2  N   UNL     1      35.076 -19.699 -22.443  0.00  0.00    -0.245 N 
ATOM      3  N   UNL     1      35.281 -21.123 -20.638  0.00  0.00    -0.266 N 
ATOM      4  C   UNL     1      35.116 -19.784 -21.031  0.00  0.00    +0.310 C 
ATOM      5  H   UNL     1      35.165 -20.553 -22.926  0.00  0.00    +0.159 HD
ATOM      6  H   UNL     1      35.341 -21.782 -21.366  0.00  0.00    +0.157 HD
ATOM      7  N   UNL     1      34.801 -17.354 -22.661  0.00  0.00    -0.353 NA
ATOM      8  N   UNL     1      34.774 -17.670 -25.448  0.00  0.00    -0.254 NA
ATOM      9  C   UNL     1      34.661 -16.308 -23.498  0.00  0.00    +0.298 C 
ATOM     10  C   UNL     1      34.648 -16.461 -24.865  0.00  0.00    +0.165 C 
ATOM     11  C   UNL     1      34.927 -18.564 -23.244  0.00  0.00    +0.192 C 
ATOM     12  C   UNL     1      34.913 -18.718 -24.612  0.00  0.00    +0.200 C 
ENDROOT
BRANCH   3  14
ATOM     13 CL   UNL     1      38.189 -21.994 -16.527  0.00  0.00    -0.082 Cl
ATOM     14  C   UNL     1      35.370 -21.639 -19.324  0.00  0.00    +0.087 C 
ATOM     15  C   UNL     1      34.255 -22.204 -18.725  0.00  0.00    +0.152 C 
ATOM     16  C   UNL     1      36.585 -21.566 -18.661  0.00  0.00    +0.029 C 
ATOM     17  C   UNL     1      34.358 -22.710 -17.429  0.00  0.00    +0.039 C 
ATOM     18  C   UNL     1      36.688 -22.073 -17.365  0.00  0.00    +0.059 C 
ATOM     19  C   UNL     1      35.575 -22.645 -16.749  0.00  0.00    +0.015 C 
BRANCH  15  20
ATOM     20  O   UNL     1      33.058 -22.279 -19.372  0.00  0.00    -0.470 OA
ATOM     21  C   UNL     1      32.327 -21.064 -19.524  0.00  0.00    +0.253 C 
ENDBRANCH  15  20
ENDBRANCH   3  14
BRANCH   9  22
ATOM     22  O   UNL     1      34.529 -15.064 -22.943  0.00  0.00    -0.457 OA
BRANCH  22  23
ATOM     23  C   UNL     1      33.231 -14.474 -23.003  0.00  0.00    +0.148 C 
ATOM     24  C   UNL     1      32.535 -14.755 -21.677  0.00  0.00    +0.045 C 
BRANCH  23  25
ATOM     25  C   UNL     1      33.383 -12.979 -23.295  0.00  0.00    -0.033 C 
BRANCH  25  26
ATOM     26  N   UNL     1      33.924 -12.732 -24.625  0.00  0.00    +0.387 N 
ATOM     27  C   UNL     1      34.016 -11.294 -24.887  0.00  0.00    -0.101 C 
ATOM     28  C   UNL     1      33.100 -13.381 -25.646  0.00  0.00    -0.101 C 
ATOM     29  H   UNL     1      34.862 -13.130 -24.664  0.00  0.00    -0.080 HD
ENDBRANCH  25  26
ENDBRANCH  23  25
ENDBRANCH  22  23
ENDBRANCH   9  22
TORSDOF 6
ENDMDL
MODEL 8
REMARK VINA RESULT:      -8.8      6.000     11.497
REMARK  Name = 23657800
REMARK  6 active torsions:
REMARK  status: ('A' for Active; 'I' for Inactive)
REMARK    1  A    between atoms: N_3  and  C_8
REMARK    2  A    between atoms: C_9  and  O_14
REMARK    3  A    between atoms: C_18  and  O_22
REMARK    4  A    between atoms: O_22  and  C_23
REMARK    5  A    between atoms: C_23  and  C_25
REMARK    6  A    between atoms: C_25  and  N_26
REMARK                            x       y       z     vdW  Elec       q    Type
REMARK                         _______ _______ _______ _____ _____    ______ ____
ROOT
ATOM      1  O   UNL     1      32.159 -22.123 -18.227  0.00  0.00    -0.252 OA
ATOM      2  N   UNL     1      34.449 -22.413 -17.830  0.00  0.00    -0.245 N 
ATOM      3  N   UNL     1      32.912 -23.399 -16.418  0.00  0.00    -0.266 N 
ATOM      4  C   UNL     1      33.072 -22.597 -17.560  0.00  0.00    +0.310 C 
ATOM      5  H   UNL     1      35.070 -22.855 -17.205  0.00  0.00    +0.159 HD
ATOM      6  H   UNL     1      33.741 -23.706 -15.987  0.00  0.00    +0.157 HD
ATOM      7  N   UNL     1      34.265 -21.052 -19.762  0.00  0.00    -0.353 NA
ATOM      8  N   UNL     1      37.065 -20.968 -19.904  0.00  0.00    -0.254 NA
ATOM      9  C   UNL     1      34.911 -20.373 -20.730  0.00  0.00    +0.298 C 
ATOM     10  C   UNL     1      36.285 -20.332 -20.801  0.00  0.00    +0.165 C 
ATOM     11  C   UNL     1      35.044 -21.688 -18.865  0.00  0.00    +0.192 C 
ATOM     12  C   UNL     1      36.420 -21.647 -18.935  0.00  0.00    +0.200 C 
ENDROOT
BRANCH   3  14
ATOM     13 CL   UNL     1      27.802 -23.303 -16.445  0.00  0.00    -0.082 Cl
ATOM     14  C   UNL     1      31.705 -23.819 -15.811  0.00  0.00    +0.087 C 
ATOM     15  C   UNL     1      31.739 -24.627 -14.687  0.00  0.00    +0.152 C 
ATOM     16  C   UNL     1      30.503 -23.405 -16.364  0.00  0.00    +0.029 C 
ATOM     17  C   UNL     1      30.541 -25.033 -14.099  0.00  0.00    +0.039 C 
ATOM     18  C   UNL     1      29.304 -23.809 -15.776  0.00  0.00    +0.059 C 
ATOM     19  C   UNL     1      29.323 -24.623 -14.643  0.00  0.00    +0.015 C 
BRANCH  15  20
ATOM     20  O   UNL     1      32.918 -25.038 -14.138  0.00  0.00    -0.470 OA
ATOM     21  C   UNL     1      33.574 -24.128 -13.258  0.00  0.00    +0.253 C 
ENDBRANCH  15  20
ENDBRANCH   3  14
BRANCH   9  22
ATOM     22  O   UNL     1      34.154 -19.716 -21.660  0.00  0.00    -0.457 OA
BRANCH  22  23
ATOM     23  C   UNL     1      34.755 -18.581 -22.285  0.00  0.00    +0.148 C 
ATOM     24  C   UNL     1      34.723 -18.814 -23.790  0.00  0.00    +0.045 C 
BRANCH  23  25
ATOM     25  C   UNL     1      33.993 -17.323 -21.857  0.00  0.00    -0.033 C 
BRANCH  25  26
ATOM     26  N   UNL     1      34.856 -16.151 -21.806  0.00  0.00    +0.387 N 
ATOM     27  C   UNL     1      34.644 -15.407 -20.563  0.00  0.00    -0.101 C 
ATOM     28  C   UNL     1      34.618 -15.285 -22.962  0.00  0.00    -0.101 C 
ATOM     29  H   UNL     1      35.825 -16.469 -21.833  0.00  0.00    -0.080 HD
ENDBRANCH  25  26
ENDBRANCH  23  25
ENDBRANCH  22  23
ENDBRANCH   9  22
TORSDOF 6
ENDMDL
MODEL 9
REMARK VINA RESULT:      -8.7      4.905      8.245
REMARK  Name = 23657800
REMARK  6 active torsions:
REMARK  status: ('A' for Active; 'I' for Inactive)
REMARK    1  A    between atoms: N_3  and  C_8
REMARK    2  A    between atoms: C_9  and  O_14
REMARK    3  A    between atoms: C_18  and  O_22
REMARK    4  A    between atoms: O_22  and  C_23
REMARK    5  A    between atoms: C_23  and  C_25
REMARK    6  A    between atoms: C_25  and  N_26
REMARK                            x       y       z     vdW  Elec       q    Type
REMARK                         _______ _______ _______ _____ _____    ______ ____
ROOT
ATOM      1  O   UNL     1      33.220 -19.831 -20.826  0.00  0.00    -0.252 OA
ATOM      2  N   UNL     1      35.151 -20.646 -19.778  0.00  0.00    -0.245 N 
ATOM      3  N   UNL     1      35.340 -19.063 -21.448  0.00  0.00    -0.266 N 
ATOM      4  C   UNL     1      34.440 -19.842 -20.701  0.00  0.00    +0.310 C 
ATOM      5  H   UNL     1      36.131 -20.548 -19.791  0.00  0.00    +0.159 HD
ATOM      6  H   UNL     1      36.293 -19.181 -21.233  0.00  0.00    +0.157 HD
ATOM      7  N   UNL     1      33.314 -21.754 -18.769  0.00  0.00    -0.353 NA
ATOM      8  N   UNL     1      35.119 -23.135 -17.125  0.00  0.00    -0.254 NA
ATOM      9  C   UNL     1      32.903 -22.651 -17.851  0.00  0.00    +0.298 C 
ATOM     10  C   UNL     1      33.788 -23.329 -17.044  0.00  0.00    +0.165 C 
ATOM     11  C   UNL     1      34.646 -21.559 -18.850  0.00  0.00    +0.192 C 
ATOM     12  C   UNL     1      35.532 -22.238 -18.042  0.00  0.00    +0.200 C 
ENDROOT
BRANCH   3  14
ATOM     13 CL   UNL     1      34.177 -14.246 -22.697  0.00  0.00    -0.082 Cl
ATOM     14  C   UNL     1      35.044 -18.131 -22.470  0.00  0.00    +0.087 C 
ATOM     15  C   UNL     1      35.009 -18.542 -23.793  0.00  0.00    +0.152 C 
ATOM     16  C   UNL     1      34.792 -16.814 -22.117  0.00  0.00    +0.029 C 
ATOM     17  C   UNL     1      34.714 -17.612 -24.790  0.00  0.00    +0.039 C 
ATOM     18  C   UNL     1      34.496 -15.884 -23.115  0.00  0.00    +0.059 C 
ATOM     19  C   UNL     1      34.457 -16.283 -24.451  0.00  0.00    +0.015 C 
BRANCH  15  20
ATOM     20  O   UNL     1      35.255 -19.835 -24.146  0.00  0.00    -0.470 OA
ATOM     21  C   UNL     1      34.598 -20.325 -25.312  0.00  0.00    +0.253 C 
ENDBRANCH  15  20
ENDBRANCH   3  14
BRANCH   9  22
ATOM     22  O   UNL     1      31.558 -22.875 -17.738  0.00  0.00    -0.457 OA
BRANCH  22  23
ATOM     23  C   UNL     1      31.023 -22.886 -16.415  0.00  0.00    +0.148 C 
ATOM     24  C   UNL     1      29.566 -22.447 -16.504  0.00  0.00    +0.045 C 
BRANCH  23  25
ATOM     25  C   UNL     1      31.191 -24.290 -15.828  0.00  0.00    -0.033 C 
BRANCH  25  26
ATOM     26  N   UNL     1      31.575 -24.254 -14.423  0.00  0.00    +0.387 N 
ATOM     27  C   UNL     1      30.459 -24.674 -13.572  0.00  0.00    -0.101 C 
ATOM     28  C   UNL     1      32.024 -22.913 -14.045  0.00  0.00    -0.101 C 
ATOM     29  H   UNL     1      32.349 -24.905 -14.290  0.00  0.00    -0.080 HD
ENDBRANCH  25  26
ENDBRANCH  23  25
ENDBRANCH  22  23
ENDBRANCH   9  22
TORSDOF 6
ENDMDL
