MODEL 1
REMARK VINA RESULT:      -4.0      0.000      0.000
REMARK  Name = 6406
REMARK  2 active torsions:
REMARK  status: ('A' for Active; 'I' for Inactive)
REMARK    1  A    between atoms: C_1  and  O_4
REMARK    2  A    between atoms: C_1  and  C_7
REMARK                            x       y       z     vdW  Elec       q    Type
REMARK                         _______ _______ _______ _____ _____    ______ ____
ROOT
ATOM      1  C   UNL     1      37.008 -23.565 -11.889  0.00  0.00    +0.166 C 
ATOM      2  C   UNL     1      38.288 -24.373 -12.094  0.00  0.00    +0.045 C 
ATOM      3  C   UNL     1      36.360 -23.224 -13.230  0.00  0.00    +0.045 C 
ENDROOT
BRANCH   1   4
ATOM      4  O   UNL     1      37.345 -22.346 -11.227  0.00  0.00    -0.373 OA
ATOM      5  H   UNL     1      36.532 -21.899 -10.941  0.00  0.00    +0.212 HD
ENDBRANCH   1   4
BRANCH   1   7
ATOM      6  N   UNL     1      35.318 -24.902 -10.377  0.00  0.00    -0.194 NA
ATOM      7  C   UNL     1      36.063 -24.312 -11.042  0.00  0.00    +0.099 C 
ENDBRANCH   1   7
TORSDOF 2
ENDMDL
MODEL 2
REMARK VINA RESULT:      -4.0      4.269      4.693
REMARK  Name = 6406
REMARK  2 active torsions:
REMARK  status: ('A' for Active; 'I' for Inactive)
REMARK    1  A    between atoms: C_1  and  O_4
REMARK    2  A    between atoms: C_1  and  C_7
REMARK                            x       y       z     vdW  Elec       q    Type
REMARK                         _______ _______ _______ _____ _____    ______ ____
ROOT
ATOM      1  C   UNL     1      38.432 -25.794 -14.157  0.00  0.00    +0.166 C 
ATOM      2  C   UNL     1      38.116 -25.787 -12.662  0.00  0.00    +0.045 C 
ATOM      3  C   UNL     1      37.475 -24.878 -14.918  0.00  0.00    +0.045 C 
ENDROOT
BRANCH   1   4
ATOM      4  O   UNL     1      38.268 -27.126 -14.646  0.00  0.00    -0.373 OA
ATOM      5  H   UNL     1      38.625 -27.185 -15.547  0.00  0.00    +0.212 HD
ENDBRANCH   1   4
BRANCH   1   7
ATOM      6  N   UNL     1      40.924 -25.052 -14.564  0.00  0.00    -0.194 NA
ATOM      7  C   UNL     1      39.826 -25.379 -14.386  0.00  0.00    +0.099 C 
ENDBRANCH   1   7
TORSDOF 2
ENDMDL
MODEL 3
REMARK VINA RESULT:      -3.9      2.284      2.769
REMARK  Name = 6406
REMARK  2 active torsions:
REMARK  status: ('A' for Active; 'I' for Inactive)
REMARK    1  A    between atoms: C_1  and  O_4
REMARK    2  A    between atoms: C_1  and  C_7
REMARK                            x       y       z     vdW  Elec       q    Type
REMARK                         _______ _______ _______ _____ _____    ______ ____
ROOT
ATOM      1  C   UNL     1      35.979 -24.645 -11.875  0.00  0.00    +0.166 C 
ATOM      2  C   UNL     1      34.862 -24.280 -12.851  0.00  0.00    +0.045 C 
ATOM      3  C   UNL     1      36.882 -25.728 -12.464  0.00  0.00    +0.045 C 
ENDROOT
BRANCH   1   4
ATOM      4  O   UNL     1      35.386 -25.152 -10.679  0.00  0.00    -0.373 OA
ATOM      5  H   UNL     1      35.304 -24.435 -10.031  0.00  0.00    +0.212 HD
ENDBRANCH   1   4
BRANCH   1   7
ATOM      6  N   UNL     1      37.393 -22.509 -11.269  0.00  0.00    -0.194 NA
ATOM      7  C   UNL     1      36.770 -23.451 -11.536  0.00  0.00    +0.099 C 
ENDBRANCH   1   7
TORSDOF 2
ENDMDL
MODEL 4
REMARK VINA RESULT:      -3.9      4.163      4.718
REMARK  Name = 6406
REMARK  2 active torsions:
REMARK  status: ('A' for Active; 'I' for Inactive)
REMARK    1  A    between atoms: C_1  and  O_4
REMARK    2  A    between atoms: C_1  and  C_7
REMARK                            x       y       z     vdW  Elec       q    Type
REMARK                         _______ _______ _______ _____ _____    ______ ____
ROOT
ATOM      1  C   UNL     1      38.643 -25.208 -14.471  0.00  0.00    +0.166 C 
ATOM      2  C   UNL     1      37.494 -26.099 -14.941  0.00  0.00    +0.045 C 
ATOM      3  C   UNL     1      38.398 -24.709 -13.048  0.00  0.00    +0.045 C 
ENDROOT
BRANCH   1   4
ATOM      4  O   UNL     1      38.722 -24.077 -15.340  0.00  0.00    -0.373 OA
ATOM      5  H   UNL     1      39.001 -23.299 -14.832  0.00  0.00    +0.212 HD
ENDBRANCH   1   4
BRANCH   1   7
ATOM      6  N   UNL     1      40.924 -26.517 -14.596  0.00  0.00    -0.194 NA
ATOM      7  C   UNL     1      39.918 -25.941 -14.542  0.00  0.00    +0.099 C 
ENDBRANCH   1   7
TORSDOF 2
ENDMDL
MODEL 5
REMARK VINA RESULT:      -3.8      8.975      9.610
REMARK  Name = 6406
REMARK  2 active torsions:
REMARK  status: ('A' for Active; 'I' for Inactive)
REMARK    1  A    between atoms: C_1  and  O_4
REMARK    2  A    between atoms: C_1  and  C_7
REMARK                            x       y       z     vdW  Elec       q    Type
REMARK                         _______ _______ _______ _____ _____    ______ ____
ROOT
ATOM      1  C   UNL     1      28.820 -23.003 -16.060  0.00  0.00    +0.166 C 
ATOM      2  C   UNL     1      29.679 -22.633 -14.852  0.00  0.00    +0.045 C 
ATOM      3  C   UNL     1      28.834 -24.513 -16.295  0.00  0.00    +0.045 C 
ENDROOT
BRANCH   1   4
ATOM      4  O   UNL     1      29.365 -22.361 -17.214  0.00  0.00    -0.373 OA
ATOM      5  H   UNL     1      29.320 -22.967 -17.971  0.00  0.00    +0.212 HD
ENDBRANCH   1   4
BRANCH   1   7
ATOM      6  N   UNL     1      26.352 -22.154 -15.719  0.00  0.00    -0.194 NA
ATOM      7  C   UNL     1      27.439 -22.529 -15.869  0.00  0.00    +0.099 C 
ENDBRANCH   1   7
TORSDOF 2
ENDMDL
MODEL 6
REMARK VINA RESULT:      -3.8      3.612      3.848
REMARK  Name = 6406
REMARK  2 active torsions:
REMARK  status: ('A' for Active; 'I' for Inactive)
REMARK    1  A    between atoms: C_1  and  O_4
REMARK    2  A    between atoms: C_1  and  C_7
REMARK                            x       y       z     vdW  Elec       q    Type
REMARK                         _______ _______ _______ _____ _____    ______ ____
ROOT
ATOM      1  C   UNL     1      37.827 -26.102 -14.386  0.00  0.00    +0.166 C 
ATOM      2  C   UNL     1      36.779 -26.721 -15.311  0.00  0.00    +0.045 C 
ATOM      3  C   UNL     1      38.108 -24.652 -14.777  0.00  0.00    +0.045 C 
ENDROOT
BRANCH   1   4
ATOM      4  O   UNL     1      39.038 -26.847 -14.514  0.00  0.00    -0.373 OA
ATOM      5  H   UNL     1      38.838 -27.796 -14.482  0.00  0.00    +0.212 HD
ENDBRANCH   1   4
BRANCH   1   7
ATOM      6  N   UNL     1      37.026 -26.233 -11.882  0.00  0.00    -0.194 NA
ATOM      7  C   UNL     1      37.378 -26.175 -12.986  0.00  0.00    +0.099 C 
ENDBRANCH   1   7
TORSDOF 2
ENDMDL
MODEL 7
REMARK VINA RESULT:      -3.8     10.667     11.185
REMARK  Name = 6406
REMARK  2 active torsions:
REMARK  status: ('A' for Active; 'I' for Inactive)
REMARK    1  A    between atoms: C_1  and  O_4
REMARK    2  A    between atoms: C_1  and  C_7
REMARK                            x       y       z     vdW  Elec       q    Type
REMARK                         _______ _______ _______ _____ _____    ______ ____
ROOT
ATOM      1  C   UNL     1      41.815 -14.962 -16.576  0.00  0.00    +0.166 C 
ATOM      2  C   UNL     1      41.304 -14.196 -17.795  0.00  0.00    +0.045 C 
ATOM      3  C   UNL     1      41.038 -14.567 -15.321  0.00  0.00    +0.045 C 
ENDROOT
BRANCH   1   4
ATOM      4  O   UNL     1      43.190 -14.633 -16.379  0.00  0.00    -0.373 OA
ATOM      5  H   UNL     1      43.741 -15.190 -16.952  0.00  0.00    +0.212 HD
ENDBRANCH   1   4
BRANCH   1   7
ATOM      6  N   UNL     1      41.628 -17.556 -16.987  0.00  0.00    -0.194 NA
ATOM      7  C   UNL     1      41.710 -16.413 -16.805  0.00  0.00    +0.099 C 
ENDBRANCH   1   7
TORSDOF 2
ENDMDL
MODEL 8
REMARK VINA RESULT:      -3.7     11.110     11.532
REMARK  Name = 6406
REMARK  2 active torsions:
REMARK  status: ('A' for Active; 'I' for Inactive)
REMARK    1  A    between atoms: C_1  and  O_4
REMARK    2  A    between atoms: C_1  and  C_7
REMARK                            x       y       z     vdW  Elec       q    Type
REMARK                         _______ _______ _______ _____ _____    ______ ____
ROOT
ATOM      1  C   UNL     1      35.184 -18.406 -21.333  0.00  0.00    +0.166 C 
ATOM      2  C   UNL     1      33.911 -19.217 -21.093  0.00  0.00    +0.045 C 
ATOM      3  C   UNL     1      35.602 -18.472 -22.801  0.00  0.00    +0.045 C 
ENDROOT
BRANCH   1   4
ATOM      4  O   UNL     1      36.231 -18.966 -20.539  0.00  0.00    -0.373 OA
ATOM      5  H   UNL     1      36.355 -18.426 -19.742  0.00  0.00    +0.212 HD
ENDBRANCH   1   4
BRANCH   1   7
ATOM      6  N   UNL     1      34.826 -15.904 -20.599  0.00  0.00    -0.194 NA
ATOM      7  C   UNL     1      34.983 -17.007 -20.922  0.00  0.00    +0.099 C 
ENDBRANCH   1   7
TORSDOF 2
ENDMDL
MODEL 9
REMARK VINA RESULT:      -3.7     10.393     10.940
REMARK  Name = 6406
REMARK  2 active torsions:
REMARK  status: ('A' for Active; 'I' for Inactive)
REMARK    1  A    between atoms: C_1  and  O_4
REMARK    2  A    between atoms: C_1  and  C_7
REMARK                            x       y       z     vdW  Elec       q    Type
REMARK                         _______ _______ _______ _____ _____    ______ ____
ROOT
ATOM      1  C   UNL     1      34.574 -18.914 -21.334  0.00  0.00    +0.166 C 
ATOM      2  C   UNL     1      34.852 -19.315 -22.782  0.00  0.00    +0.045 C 
ATOM      3  C   UNL     1      34.162 -17.446 -21.245  0.00  0.00    +0.045 C 
ENDROOT
BRANCH   1   4
ATOM      4  O   UNL     1      35.772 -19.094 -20.578  0.00  0.00    -0.373 OA
ATOM      5  H   UNL     1      36.348 -18.323 -20.698  0.00  0.00    +0.212 HD
ENDBRANCH   1   4
BRANCH   1   7
ATOM      6  N   UNL     1      32.699 -20.452 -20.309  0.00  0.00    -0.194 NA
ATOM      7  C   UNL     1      33.525 -19.773 -20.760  0.00  0.00    +0.099 C 
ENDBRANCH   1   7
TORSDOF 2
ENDMDL
