MODEL 1
REMARK VINA RESULT:      -8.8      0.000      0.000
REMARK  Name = 54766
REMARK  9 active torsions:
REMARK  status: ('A' for Active; 'I' for Inactive)
REMARK    1  A    between atoms: C_1  and  C_19
REMARK    2  A    between atoms: C_4  and  O_7
REMARK    3  A    between atoms: C_5  and  O_13
REMARK    4  A    between atoms: O_7  and  C_10
REMARK    5  A    between atoms: O_13  and  C_16
REMARK    6  A    between atoms: C_19  and  O_20
REMARK    7  A    between atoms: C_19  and  C_22
REMARK    8  A    between atoms: C_22  and  N_23
REMARK    9  A    between atoms: N_23  and  C_26
REMARK                            x       y       z     vdW  Elec       q    Type
REMARK                         _______ _______ _______ _____ _____    ______ ____
ROOT
ATOM      1  C   UNL     1      36.013 -21.993 -17.812  0.00  0.00    +0.008 C 
ATOM      2  C   UNL     1      35.858 -21.328 -19.028  0.00  0.00    +0.036 C 
ATOM      3  C   UNL     1      34.980 -22.790 -17.317  0.00  0.00    +0.036 C 
ATOM      4  C   UNL     1      33.793 -22.921 -18.037  0.00  0.00    +0.153 C 
ATOM      5  C   UNL     1      34.670 -21.459 -19.748  0.00  0.00    +0.153 C 
ATOM      6  C   UNL     1      33.639 -22.255 -19.253  0.00  0.00    +0.075 C 
ENDROOT
BRANCH   4   7
ATOM      7  O   UNL     1      32.786 -23.698 -17.553  0.00  0.00    -0.410 OA
BRANCH   7  10
ATOM      8  O   UNL     1      30.965 -22.295 -17.294  0.00  0.00    -0.226 OA
ATOM      9  N   UNL     1      31.914 -23.266 -15.407  0.00  0.00    -0.242 N 
ATOM     10  C   UNL     1      31.813 -23.024 -16.781  0.00  0.00    +0.410 C 
ATOM     11  C   UNL     1      30.979 -22.641 -14.481  0.00  0.00    +0.118 C 
ATOM     12  C   UNL     1      32.922 -24.136 -14.808  0.00  0.00    +0.118 C 
ENDBRANCH   7  10
ENDBRANCH   4   7
BRANCH   5  13
ATOM     13  O   UNL     1      34.520 -20.809 -20.935  0.00  0.00    -0.410 OA
BRANCH  13  16
ATOM     14  O   UNL     1      32.659 -19.487 -20.562  0.00  0.00    -0.226 OA
ATOM     15  N   UNL     1      34.655 -18.471 -21.191  0.00  0.00    -0.242 N 
ATOM     16  C   UNL     1      33.847 -19.568 -20.871  0.00  0.00    +0.410 C 
ATOM     17  C   UNL     1      34.101 -17.124 -21.169  0.00  0.00    +0.118 C 
ATOM     18  C   UNL     1      36.064 -18.578 -21.553  0.00  0.00    +0.118 C 
ENDBRANCH  13  16
ENDBRANCH   5  13
BRANCH   1  19
ATOM     19  C   UNL     1      37.301 -21.852 -17.030  0.00  0.00    +0.112 C 
BRANCH  19  20
ATOM     20  O   UNL     1      37.615 -20.464 -16.933  0.00  0.00    -0.382 OA
ATOM     21  H   UNL     1      37.228 -20.102 -16.121  0.00  0.00    +0.211 HD
ENDBRANCH  19  20
BRANCH  19  22
ATOM     22  C   UNL     1      37.180 -22.470 -15.632  0.00  0.00    -0.047 C 
BRANCH  22  23
ATOM     23  N   UNL     1      37.896 -23.731 -15.560  0.00  0.00    +0.388 N 
ATOM     24  H   UNL     1      37.766 -24.241 -16.433  0.00  0.00    -0.084 HD
ATOM     25  H   UNL     1      38.887 -23.540 -15.408  0.00  0.00    -0.084 HD
BRANCH  23  26
ATOM     26  C   UNL     1      37.395 -24.546 -14.448  0.00  0.00    -0.046 C 
ATOM     27  C   UNL     1      36.516 -25.673 -14.999  0.00  0.00    -0.022 C 
ATOM     28  C   UNL     1      36.577 -23.647 -13.514  0.00  0.00    -0.022 C 
ATOM     29  C   UNL     1      38.594 -25.132 -13.694  0.00  0.00    -0.022 C 
ENDBRANCH  23  26
ENDBRANCH  22  23
ENDBRANCH  19  22
ENDBRANCH   1  19
TORSDOF 9
ENDMDL
MODEL 2
REMARK VINA RESULT:      -8.8      0.049      4.990
REMARK  Name = 54766
REMARK  9 active torsions:
REMARK  status: ('A' for Active; 'I' for Inactive)
REMARK    1  A    between atoms: C_1  and  C_19
REMARK    2  A    between atoms: C_4  and  O_7
REMARK    3  A    between atoms: C_5  and  O_13
REMARK    4  A    between atoms: O_7  and  C_10
REMARK    5  A    between atoms: O_13  and  C_16
REMARK    6  A    between atoms: C_19  and  O_20
REMARK    7  A    between atoms: C_19  and  C_22
REMARK    8  A    between atoms: C_22  and  N_23
REMARK    9  A    between atoms: N_23  and  C_26
REMARK                            x       y       z     vdW  Elec       q    Type
REMARK                         _______ _______ _______ _____ _____    ______ ____
ROOT
ATOM      1  C   UNL     1      36.010 -22.015 -17.783  0.00  0.00    +0.008 C 
ATOM      2  C   UNL     1      34.973 -22.806 -17.292  0.00  0.00    +0.036 C 
ATOM      3  C   UNL     1      35.864 -21.349 -19.001  0.00  0.00    +0.036 C 
ATOM      4  C   UNL     1      34.679 -21.475 -19.726  0.00  0.00    +0.153 C 
ATOM      5  C   UNL     1      33.788 -22.932 -18.018  0.00  0.00    +0.153 C 
ATOM      6  C   UNL     1      33.642 -22.266 -19.234  0.00  0.00    +0.075 C 
ENDROOT
BRANCH   4   7
ATOM      7  O   UNL     1      34.537 -20.827 -20.914  0.00  0.00    -0.410 OA
BRANCH   7  10
ATOM      8  O   UNL     1      32.686 -19.486 -20.553  0.00  0.00    -0.226 OA
ATOM      9  N   UNL     1      34.697 -18.488 -21.162  0.00  0.00    -0.242 N 
ATOM     10  C   UNL     1      33.876 -19.579 -20.852  0.00  0.00    +0.410 C 
ATOM     11  C   UNL     1      34.157 -17.136 -21.140  0.00  0.00    +0.118 C 
ATOM     12  C   UNL     1      36.109 -18.609 -21.512  0.00  0.00    +0.118 C 
ENDBRANCH   7  10
ENDBRANCH   4   7
BRANCH   5  13
ATOM     13  O   UNL     1      32.775 -23.704 -17.537  0.00  0.00    -0.410 OA
BRANCH  13  16
ATOM     14  O   UNL     1      30.957 -22.294 -17.299  0.00  0.00    -0.226 OA
ATOM     15  N   UNL     1      31.888 -23.261 -15.399  0.00  0.00    -0.242 N 
ATOM     16  C   UNL     1      31.797 -23.023 -16.775  0.00  0.00    +0.410 C 
ATOM     17  C   UNL     1      30.948 -22.628 -14.484  0.00  0.00    +0.118 C 
ATOM     18  C   UNL     1      32.888 -24.130 -14.789  0.00  0.00    +0.118 C 
ENDBRANCH  13  16
ENDBRANCH   5  13
BRANCH   1  19
ATOM     19  C   UNL     1      37.296 -21.877 -16.996  0.00  0.00    +0.112 C 
BRANCH  19  20
ATOM     20  O   UNL     1      37.608 -20.489 -16.892  0.00  0.00    -0.382 OA
ATOM     21  H   UNL     1      38.531 -20.345 -17.155  0.00  0.00    +0.211 HD
ENDBRANCH  19  20
BRANCH  19  22
ATOM     22  C   UNL     1      37.170 -22.500 -15.600  0.00  0.00    -0.047 C 
BRANCH  22  23
ATOM     23  N   UNL     1      37.868 -23.772 -15.537  0.00  0.00    +0.388 N 
ATOM     24  H   UNL     1      37.737 -24.270 -16.417  0.00  0.00    -0.084 HD
ATOM     25  H   UNL     1      38.860 -23.596 -15.375  0.00  0.00    -0.084 HD
BRANCH  23  26
ATOM     26  C   UNL     1      37.347 -24.592 -14.439  0.00  0.00    -0.046 C 
ATOM     27  C   UNL     1      36.505 -25.737 -15.013  0.00  0.00    -0.022 C 
ATOM     28  C   UNL     1      36.483 -23.705 -13.535  0.00  0.00    -0.022 C 
ATOM     29  C   UNL     1      38.531 -25.154 -13.645  0.00  0.00    -0.022 C 
ENDBRANCH  23  26
ENDBRANCH  22  23
ENDBRANCH  19  22
ENDBRANCH   1  19
TORSDOF 9
ENDMDL
MODEL 3
REMARK VINA RESULT:      -8.7      2.023      6.663
REMARK  Name = 54766
REMARK  9 active torsions:
REMARK  status: ('A' for Active; 'I' for Inactive)
REMARK    1  A    between atoms: C_1  and  C_19
REMARK    2  A    between atoms: C_4  and  O_7
REMARK    3  A    between atoms: C_5  and  O_13
REMARK    4  A    between atoms: O_7  and  C_10
REMARK    5  A    between atoms: O_13  and  C_16
REMARK    6  A    between atoms: C_19  and  O_20
REMARK    7  A    between atoms: C_19  and  C_22
REMARK    8  A    between atoms: C_22  and  N_23
REMARK    9  A    between atoms: N_23  and  C_26
REMARK                            x       y       z     vdW  Elec       q    Type
REMARK                         _______ _______ _______ _____ _____    ______ ____
ROOT
ATOM      1  C   UNL     1      34.061 -22.594 -18.063  0.00  0.00    +0.008 C 
ATOM      2  C   UNL     1      35.253 -22.733 -17.353  0.00  0.00    +0.036 C 
ATOM      3  C   UNL     1      32.838 -22.787 -17.418  0.00  0.00    +0.036 C 
ATOM      4  C   UNL     1      32.809 -23.121 -16.064  0.00  0.00    +0.153 C 
ATOM      5  C   UNL     1      35.223 -23.067 -15.999  0.00  0.00    +0.153 C 
ATOM      6  C   UNL     1      34.002 -23.260 -15.355  0.00  0.00    +0.075 C 
ENDROOT
BRANCH   4   7
ATOM      7  O   UNL     1      31.617 -23.311 -15.436  0.00  0.00    -0.410 OA
BRANCH   7  10
ATOM      8  O   UNL     1      30.339 -22.243 -17.042  0.00  0.00    -0.226 OA
ATOM      9  N   UNL     1      29.522 -24.189 -16.065  0.00  0.00    -0.242 N 
ATOM     10  C   UNL     1      30.470 -23.176 -16.250  0.00  0.00    +0.410 C 
ATOM     11  C   UNL     1      28.286 -24.186 -16.834  0.00  0.00    +0.118 C 
ATOM     12  C   UNL     1      29.689 -25.294 -15.125  0.00  0.00    +0.118 C 
ENDBRANCH   7  10
ENDBRANCH   4   7
BRANCH   5  13
ATOM     13  O   UNL     1      36.388 -23.202 -15.307  0.00  0.00    -0.410 OA
BRANCH  13  16
ATOM     14  O   UNL     1      36.657 -25.493 -15.487  0.00  0.00    -0.226 OA
ATOM     15  N   UNL     1      36.849 -24.498 -13.393  0.00  0.00    -0.242 N 
ATOM     16  C   UNL     1      36.637 -24.489 -14.776  0.00  0.00    +0.410 C 
ATOM     17  C   UNL     1      37.118 -25.752 -12.703  0.00  0.00    +0.118 C 
ATOM     18  C   UNL     1      36.826 -23.301 -12.560  0.00  0.00    +0.118 C 
ENDBRANCH  13  16
ENDBRANCH   5  13
BRANCH   1  19
ATOM     19  C   UNL     1      34.092 -22.231 -19.532  0.00  0.00    +0.112 C 
BRANCH  19  20
ATOM     20  O   UNL     1      32.748 -22.036 -19.972  0.00  0.00    -0.382 OA
ATOM     21  H   UNL     1      32.737 -21.925 -20.935  0.00  0.00    +0.211 HD
ENDBRANCH  19  20
BRANCH  19  22
ATOM     22  C   UNL     1      34.922 -20.966 -19.781  0.00  0.00    -0.047 C 
BRANCH  22  23
ATOM     23  N   UNL     1      34.163 -19.992 -20.546  0.00  0.00    +0.388 N 
ATOM     24  H   UNL     1      33.548 -20.481 -21.196  0.00  0.00    -0.084 HD
ATOM     25  H   UNL     1      33.613 -19.422 -19.902  0.00  0.00    -0.084 HD
BRANCH  23  26
ATOM     26  C   UNL     1      35.063 -19.116 -21.303  0.00  0.00    -0.046 C 
ATOM     27  C   UNL     1      34.930 -19.421 -22.799  0.00  0.00    -0.022 C 
ATOM     28  C   UNL     1      36.501 -19.375 -20.838  0.00  0.00    -0.022 C 
ATOM     29  C   UNL     1      34.676 -17.660 -21.025  0.00  0.00    -0.022 C 
ENDBRANCH  23  26
ENDBRANCH  22  23
ENDBRANCH  19  22
ENDBRANCH   1  19
TORSDOF 9
ENDMDL
MODEL 4
REMARK VINA RESULT:      -8.7      2.033      6.784
REMARK  Name = 54766
REMARK  9 active torsions:
REMARK  status: ('A' for Active; 'I' for Inactive)
REMARK    1  A    between atoms: C_1  and  C_19
REMARK    2  A    between atoms: C_4  and  O_7
REMARK    3  A    between atoms: C_5  and  O_13
REMARK    4  A    between atoms: O_7  and  C_10
REMARK    5  A    between atoms: O_13  and  C_16
REMARK    6  A    between atoms: C_19  and  O_20
REMARK    7  A    between atoms: C_19  and  C_22
REMARK    8  A    between atoms: C_22  and  N_23
REMARK    9  A    between atoms: N_23  and  C_26
REMARK                            x       y       z     vdW  Elec       q    Type
REMARK                         _______ _______ _______ _____ _____    ______ ____
ROOT
ATOM      1  C   UNL     1      34.049 -22.600 -18.049  0.00  0.00    +0.008 C 
ATOM      2  C   UNL     1      32.824 -22.787 -17.410  0.00  0.00    +0.036 C 
ATOM      3  C   UNL     1      35.238 -22.744 -17.334  0.00  0.00    +0.036 C 
ATOM      4  C   UNL     1      35.202 -23.076 -15.980  0.00  0.00    +0.153 C 
ATOM      5  C   UNL     1      32.788 -23.119 -16.055  0.00  0.00    +0.153 C 
ATOM      6  C   UNL     1      33.976 -23.263 -15.341  0.00  0.00    +0.075 C 
ENDROOT
BRANCH   4   7
ATOM      7  O   UNL     1      36.362 -23.216 -15.282  0.00  0.00    -0.410 OA
BRANCH   7  10
ATOM      8  O   UNL     1      36.648 -25.503 -15.484  0.00  0.00    -0.226 OA
ATOM      9  N   UNL     1      36.800 -24.532 -13.377  0.00  0.00    -0.242 N 
ATOM     10  C   UNL     1      36.609 -24.507 -14.763  0.00  0.00    +0.410 C 
ATOM     11  C   UNL     1      37.065 -25.791 -12.696  0.00  0.00    +0.118 C 
ATOM     12  C   UNL     1      36.756 -23.343 -12.530  0.00  0.00    +0.118 C 
ENDBRANCH   7  10
ENDBRANCH   4   7
BRANCH   5  13
ATOM     13  O   UNL     1      31.591 -23.302 -15.432  0.00  0.00    -0.410 OA
BRANCH  13  16
ATOM     14  O   UNL     1      30.323 -22.270 -17.068  0.00  0.00    -0.226 OA
ATOM     15  N   UNL     1      29.501 -24.195 -16.054  0.00  0.00    -0.242 N 
ATOM     16  C   UNL     1      30.449 -23.186 -16.256  0.00  0.00    +0.410 C 
ATOM     17  C   UNL     1      28.270 -24.209 -16.831  0.00  0.00    +0.118 C 
ATOM     18  C   UNL     1      29.662 -25.279 -15.091  0.00  0.00    +0.118 C 
ENDBRANCH  13  16
ENDBRANCH   5  13
BRANCH   1  19
ATOM     19  C   UNL     1      34.089 -22.241 -19.519  0.00  0.00    +0.112 C 
BRANCH  19  20
ATOM     20  O   UNL     1      32.749 -22.051 -19.969  0.00  0.00    -0.382 OA
ATOM     21  H   UNL     1      32.143 -22.556 -19.404  0.00  0.00    +0.211 HD
ENDBRANCH  19  20
BRANCH  19  22
ATOM     22  C   UNL     1      34.918 -20.975 -19.766  0.00  0.00    -0.047 C 
BRANCH  22  23
ATOM     23  N   UNL     1      34.160 -20.002 -20.533  0.00  0.00    +0.388 N 
ATOM     24  H   UNL     1      33.542 -20.492 -21.179  0.00  0.00    -0.084 HD
ATOM     25  H   UNL     1      33.614 -19.428 -19.890  0.00  0.00    -0.084 HD
BRANCH  23  26
ATOM     26  C   UNL     1      35.060 -19.132 -21.296  0.00  0.00    -0.046 C 
ATOM     27  C   UNL     1      34.916 -19.436 -22.791  0.00  0.00    -0.022 C 
ATOM     28  C   UNL     1      36.500 -19.399 -20.840  0.00  0.00    -0.022 C 
ATOM     29  C   UNL     1      34.684 -17.673 -21.015  0.00  0.00    -0.022 C 
ENDBRANCH  23  26
ENDBRANCH  22  23
ENDBRANCH  19  22
ENDBRANCH   1  19
TORSDOF 9
ENDMDL
MODEL 5
REMARK VINA RESULT:      -8.6      2.010      5.422
REMARK  Name = 54766
REMARK  9 active torsions:
REMARK  status: ('A' for Active; 'I' for Inactive)
REMARK    1  A    between atoms: C_1  and  C_19
REMARK    2  A    between atoms: C_4  and  O_7
REMARK    3  A    between atoms: C_5  and  O_13
REMARK    4  A    between atoms: O_7  and  C_10
REMARK    5  A    between atoms: O_13  and  C_16
REMARK    6  A    between atoms: C_19  and  O_20
REMARK    7  A    between atoms: C_19  and  C_22
REMARK    8  A    between atoms: C_22  and  N_23
REMARK    9  A    between atoms: N_23  and  C_26
REMARK                            x       y       z     vdW  Elec       q    Type
REMARK                         _______ _______ _______ _____ _____    ______ ____
ROOT
ATOM      1  C   UNL     1      34.541 -23.133 -15.644  0.00  0.00    +0.008 C 
ATOM      2  C   UNL     1      33.281 -23.082 -15.050  0.00  0.00    +0.036 C 
ATOM      3  C   UNL     1      34.665 -23.014 -17.029  0.00  0.00    +0.036 C 
ATOM      4  C   UNL     1      33.528 -22.844 -17.819  0.00  0.00    +0.153 C 
ATOM      5  C   UNL     1      32.144 -22.912 -15.839  0.00  0.00    +0.153 C 
ATOM      6  C   UNL     1      32.267 -22.792 -17.223  0.00  0.00    +0.075 C 
ENDROOT
BRANCH   4   7
ATOM      7  O   UNL     1      33.648 -22.728 -19.169  0.00  0.00    -0.410 OA
BRANCH   7  10
ATOM      8  O   UNL     1      32.467 -20.811 -19.700  0.00  0.00    -0.226 OA
ATOM      9  N   UNL     1      34.746 -20.891 -20.154  0.00  0.00    -0.242 N 
ATOM     10  C   UNL     1      33.539 -21.416 -19.681  0.00  0.00    +0.410 C 
ATOM     11  C   UNL     1      34.792 -19.546 -20.713  0.00  0.00    +0.118 C 
ATOM     12  C   UNL     1      36.014 -21.615 -20.124  0.00  0.00    +0.118 C 
ENDBRANCH   7  10
ENDBRANCH   4   7
BRANCH   5  13
ATOM     13  O   UNL     1      30.914 -22.861 -15.258  0.00  0.00    -0.410 OA
BRANCH  13  16
ATOM     14  O   UNL     1      29.420 -22.162 -16.881  0.00  0.00    -0.226 OA
ATOM     15  N   UNL     1      29.249 -24.329 -16.051  0.00  0.00    -0.242 N 
ATOM     16  C   UNL     1      29.818 -23.053 -16.131  0.00  0.00    +0.410 C 
ATOM     17  C   UNL     1      28.111 -24.676 -16.890  0.00  0.00    +0.118 C 
ATOM     18  C   UNL     1      29.731 -25.378 -15.160  0.00  0.00    +0.118 C 
ENDBRANCH  13  16
ENDBRANCH   5  13
BRANCH   1  19
ATOM     19  C   UNL     1      35.776 -23.317 -14.788  0.00  0.00    +0.112 C 
BRANCH  19  20
ATOM     20  O   UNL     1      35.370 -23.346 -13.420  0.00  0.00    -0.382 OA
ATOM     21  H   UNL     1      36.022 -22.871 -12.881  0.00  0.00    +0.211 HD
ENDBRANCH  19  20
BRANCH  19  22
ATOM     22  C   UNL     1      36.523 -24.607 -15.149  0.00  0.00    -0.047 C 
BRANCH  22  23
ATOM     23  N   UNL     1      37.959 -24.393 -15.136  0.00  0.00    +0.388 N 
ATOM     24  H   UNL     1      38.317 -24.461 -16.089  0.00  0.00    -0.084 HD
ATOM     25  H   UNL     1      38.151 -23.468 -14.752  0.00  0.00    -0.084 HD
BRANCH  23  26
ATOM     26  C   UNL     1      38.623 -25.399 -14.301  0.00  0.00    -0.046 C 
ATOM     27  C   UNL     1      40.057 -25.608 -14.799  0.00  0.00    -0.022 C 
ATOM     28  C   UNL     1      37.835 -26.711 -14.398  0.00  0.00    -0.022 C 
ATOM     29  C   UNL     1      38.635 -24.901 -12.852  0.00  0.00    -0.022 C 
ENDBRANCH  23  26
ENDBRANCH  22  23
ENDBRANCH  19  22
ENDBRANCH   1  19
TORSDOF 9
ENDMDL
MODEL 6
REMARK VINA RESULT:      -8.6      2.139      3.022
REMARK  Name = 54766
REMARK  9 active torsions:
REMARK  status: ('A' for Active; 'I' for Inactive)
REMARK    1  A    between atoms: C_1  and  C_19
REMARK    2  A    between atoms: C_4  and  O_7
REMARK    3  A    between atoms: C_5  and  O_13
REMARK    4  A    between atoms: O_7  and  C_10
REMARK    5  A    between atoms: O_13  and  C_16
REMARK    6  A    between atoms: C_19  and  O_20
REMARK    7  A    between atoms: C_19  and  C_22
REMARK    8  A    between atoms: C_22  and  N_23
REMARK    9  A    between atoms: N_23  and  C_26
REMARK                            x       y       z     vdW  Elec       q    Type
REMARK                         _______ _______ _______ _____ _____    ______ ____
ROOT
ATOM      1  C   UNL     1      34.601 -23.133 -15.599  0.00  0.00    +0.008 C 
ATOM      2  C   UNL     1      34.683 -22.985 -16.982  0.00  0.00    +0.036 C 
ATOM      3  C   UNL     1      33.353 -23.212 -14.978  0.00  0.00    +0.036 C 
ATOM      4  C   UNL     1      32.189 -23.142 -15.743  0.00  0.00    +0.153 C 
ATOM      5  C   UNL     1      33.519 -22.915 -17.747  0.00  0.00    +0.153 C 
ATOM      6  C   UNL     1      32.272 -22.994 -17.127  0.00  0.00    +0.075 C 
ENDROOT
BRANCH   4   7
ATOM      7  O   UNL     1      30.972 -23.218 -15.138  0.00  0.00    -0.410 OA
BRANCH   7  10
ATOM      8  O   UNL     1      30.357 -25.429 -15.428  0.00  0.00    -0.226 OA
ATOM      9  N   UNL     1      28.997 -23.759 -16.305  0.00  0.00    -0.242 N 
ATOM     10  C   UNL     1      30.116 -24.237 -15.615  0.00  0.00    +0.410 C 
ATOM     11  C   UNL     1      28.022 -24.690 -16.855  0.00  0.00    +0.118 C 
ATOM     12  C   UNL     1      28.719 -22.341 -16.518  0.00  0.00    +0.118 C 
ENDBRANCH   7  10
ENDBRANCH   4   7
BRANCH   5  13
ATOM     13  O   UNL     1      33.600 -22.770 -19.098  0.00  0.00    -0.410 OA
BRANCH  13  16
ATOM     14  O   UNL     1      32.450 -20.813 -19.542  0.00  0.00    -0.226 OA
ATOM     15  N   UNL     1      34.708 -20.940 -20.085  0.00  0.00    -0.242 N 
ATOM     16  C   UNL     1      33.505 -21.443 -19.577  0.00  0.00    +0.410 C 
ATOM     17  C   UNL     1      34.768 -19.585 -20.615  0.00  0.00    +0.118 C 
ATOM     18  C   UNL     1      35.955 -21.696 -20.120  0.00  0.00    +0.118 C 
ENDBRANCH  13  16
ENDBRANCH   5  13
BRANCH   1  19
ATOM     19  C   UNL     1      35.864 -23.210 -14.768  0.00  0.00    +0.112 C 
BRANCH  19  20
ATOM     20  O   UNL     1      35.496 -23.162 -13.390  0.00  0.00    -0.382 OA
ATOM     21  H   UNL     1      36.293 -23.210 -12.841  0.00  0.00    +0.211 HD
ENDBRANCH  19  20
BRANCH  19  22
ATOM     22  C   UNL     1      36.653 -24.491 -15.063  0.00  0.00    -0.047 C 
BRANCH  22  23
ATOM     23  N   UNL     1      38.067 -24.300 -14.795  0.00  0.00    +0.388 N 
ATOM     24  H   UNL     1      38.575 -24.262 -15.679  0.00  0.00    -0.084 HD
ATOM     25  H   UNL     1      38.191 -23.428 -14.280  0.00  0.00    -0.084 HD
BRANCH  23  26
ATOM     26  C   UNL     1      38.593 -25.405 -13.986  0.00  0.00    -0.046 C 
ATOM     27  C   UNL     1      40.088 -25.581 -14.274  0.00  0.00    -0.022 C 
ATOM     28  C   UNL     1      37.831 -26.684 -14.353  0.00  0.00    -0.022 C 
ATOM     29  C   UNL     1      38.376 -25.073 -12.506  0.00  0.00    -0.022 C 
ENDBRANCH  23  26
ENDBRANCH  22  23
ENDBRANCH  19  22
ENDBRANCH   1  19
TORSDOF 9
ENDMDL
MODEL 7
REMARK VINA RESULT:      -8.5      1.671      6.669
REMARK  Name = 54766
REMARK  9 active torsions:
REMARK  status: ('A' for Active; 'I' for Inactive)
REMARK    1  A    between atoms: C_1  and  C_19
REMARK    2  A    between atoms: C_4  and  O_7
REMARK    3  A    between atoms: C_5  and  O_13
REMARK    4  A    between atoms: O_7  and  C_10
REMARK    5  A    between atoms: O_13  and  C_16
REMARK    6  A    between atoms: C_19  and  O_20
REMARK    7  A    between atoms: C_19  and  C_22
REMARK    8  A    between atoms: C_22  and  N_23
REMARK    9  A    between atoms: N_23  and  C_26
REMARK                            x       y       z     vdW  Elec       q    Type
REMARK                         _______ _______ _______ _____ _____    ______ ____
ROOT
ATOM      1  C   UNL     1      36.022 -21.864 -18.030  0.00  0.00    +0.008 C 
ATOM      2  C   UNL     1      34.809 -22.551 -18.014  0.00  0.00    +0.036 C 
ATOM      3  C   UNL     1      36.869 -21.919 -16.922  0.00  0.00    +0.036 C 
ATOM      4  C   UNL     1      36.502 -22.659 -15.799  0.00  0.00    +0.153 C 
ATOM      5  C   UNL     1      34.441 -23.292 -16.890  0.00  0.00    +0.153 C 
ATOM      6  C   UNL     1      35.288 -23.346 -15.784  0.00  0.00    +0.075 C 
ENDROOT
BRANCH   4   7
ATOM      7  O   UNL     1      37.327 -22.712 -14.719  0.00  0.00    -0.410 OA
BRANCH   7  10
ATOM      8  O   UNL     1      38.242 -24.817 -15.006  0.00  0.00    -0.226 OA
ATOM      9  N   UNL     1      37.299 -24.271 -12.951  0.00  0.00    -0.242 N 
ATOM     10  C   UNL     1      37.670 -24.009 -14.275  0.00  0.00    +0.410 C 
ATOM     11  C   UNL     1      37.587 -25.566 -12.352  0.00  0.00    +0.118 C 
ATOM     12  C   UNL     1      36.624 -23.303 -12.091  0.00  0.00    +0.118 C 
ENDBRANCH   7  10
ENDBRANCH   4   7
BRANCH   5  13
ATOM     13  O   UNL     1      33.256 -23.962 -16.875  0.00  0.00    -0.410 OA
BRANCH  13  16
ATOM     14  O   UNL     1      31.661 -22.372 -17.399  0.00  0.00    -0.226 OA
ATOM     15  N   UNL     1      31.573 -23.413 -15.320  0.00  0.00    -0.242 N 
ATOM     16  C   UNL     1      32.115 -23.179 -16.589  0.00  0.00    +0.410 C 
ATOM     17  C   UNL     1      30.394 -22.679 -14.882  0.00  0.00    +0.118 C 
ATOM     18  C   UNL     1      32.119 -24.375 -14.369  0.00  0.00    +0.118 C 
ENDBRANCH  13  16
ENDBRANCH   5  13
BRANCH   1  19
ATOM     19  C   UNL     1      36.422 -21.061 -19.249  0.00  0.00    +0.112 C 
BRANCH  19  20
ATOM     20  O   UNL     1      37.239 -21.886 -20.078  0.00  0.00    -0.382 OA
ATOM     21  H   UNL     1      37.030 -22.818 -19.912  0.00  0.00    +0.211 HD
ENDBRANCH  19  20
BRANCH  19  22
ATOM     22  C   UNL     1      35.195 -20.573 -20.027  0.00  0.00    -0.047 C 
BRANCH  22  23
ATOM     23  N   UNL     1      35.462 -19.296 -20.665  0.00  0.00    +0.388 N 
ATOM     24  H   UNL     1      35.657 -18.597 -19.949  0.00  0.00    -0.084 HD
ATOM     25  H   UNL     1      36.266 -19.399 -21.286  0.00  0.00    -0.084 HD
BRANCH  23  26
ATOM     26  C   UNL     1      34.306 -18.862 -21.457  0.00  0.00    -0.046 C 
ATOM     27  C   UNL     1      33.055 -19.610 -20.982  0.00  0.00    -0.022 C 
ATOM     28  C   UNL     1      34.579 -19.177 -22.933  0.00  0.00    -0.022 C 
ATOM     29  C   UNL     1      34.122 -17.353 -21.268  0.00  0.00    -0.022 C 
ENDBRANCH  23  26
ENDBRANCH  22  23
ENDBRANCH  19  22
ENDBRANCH   1  19
TORSDOF 9
ENDMDL
MODEL 8
REMARK VINA RESULT:      -8.5      2.305      7.144
REMARK  Name = 54766
REMARK  9 active torsions:
REMARK  status: ('A' for Active; 'I' for Inactive)
REMARK    1  A    between atoms: C_1  and  C_19
REMARK    2  A    between atoms: C_4  and  O_7
REMARK    3  A    between atoms: C_5  and  O_13
REMARK    4  A    between atoms: O_7  and  C_10
REMARK    5  A    between atoms: O_13  and  C_16
REMARK    6  A    between atoms: C_19  and  O_20
REMARK    7  A    between atoms: C_19  and  C_22
REMARK    8  A    between atoms: C_22  and  N_23
REMARK    9  A    between atoms: N_23  and  C_26
REMARK                            x       y       z     vdW  Elec       q    Type
REMARK                         _______ _______ _______ _____ _____    ______ ____
ROOT
ATOM      1  C   UNL     1      33.707 -23.307 -15.406  0.00  0.00    +0.008 C 
ATOM      2  C   UNL     1      34.902 -23.174 -14.700  0.00  0.00    +0.036 C 
ATOM      3  C   UNL     1      33.691 -23.127 -16.790  0.00  0.00    +0.036 C 
ATOM      4  C   UNL     1      34.871 -22.815 -17.466  0.00  0.00    +0.153 C 
ATOM      5  C   UNL     1      36.081 -22.862 -15.376  0.00  0.00    +0.153 C 
ATOM      6  C   UNL     1      36.065 -22.683 -16.759  0.00  0.00    +0.075 C 
ENDROOT
BRANCH   4   7
ATOM      7  O   UNL     1      34.855 -22.639 -18.815  0.00  0.00    -0.410 OA
BRANCH   7  10
ATOM      8  O   UNL     1      32.641 -22.016 -19.068  0.00  0.00    -0.226 OA
ATOM      9  N   UNL     1      34.294 -20.733 -20.083  0.00  0.00    -0.242 N 
ATOM     10  C   UNL     1      33.829 -21.802 -19.309  0.00  0.00    +0.410 C 
ATOM     11  C   UNL     1      33.354 -19.783 -20.662  0.00  0.00    +0.118 C 
ATOM     12  C   UNL     1      35.706 -20.486 -20.360  0.00  0.00    +0.118 C 
ENDBRANCH   7  10
ENDBRANCH   4   7
BRANCH   5  13
ATOM     13  O   UNL     1      37.248 -22.733 -14.686  0.00  0.00    -0.410 OA
BRANCH  13  16
ATOM     14  O   UNL     1      38.226 -24.811 -14.966  0.00  0.00    -0.226 OA
ATOM     15  N   UNL     1      37.835 -24.032 -12.809  0.00  0.00    -0.242 N 
ATOM     16  C   UNL     1      37.809 -23.939 -14.205  0.00  0.00    +0.410 C 
ATOM     17  C   UNL     1      38.384 -25.217 -12.166  0.00  0.00    +0.118 C 
ATOM     18  C   UNL     1      37.340 -22.991 -11.916  0.00  0.00    +0.118 C 
ENDBRANCH  13  16
ENDBRANCH   5  13
BRANCH   1  19
ATOM     19  C   UNL     1      32.427 -23.647 -14.673  0.00  0.00    +0.112 C 
BRANCH  19  20
ATOM     20  O   UNL     1      32.609 -23.340 -13.291  0.00  0.00    -0.382 OA
ATOM     21  H   UNL     1      33.530 -23.515 -13.040  0.00  0.00    +0.211 HD
ENDBRANCH  19  20
BRANCH  19  22
ATOM     22  C   UNL     1      31.233 -22.868 -15.238  0.00  0.00    -0.047 C 
BRANCH  22  23
ATOM     23  N   UNL     1      30.489 -23.679 -16.186  0.00  0.00    +0.388 N 
ATOM     24  H   UNL     1      30.561 -23.262 -17.114  0.00  0.00    -0.084 HD
ATOM     25  H   UNL     1      30.880 -24.622 -16.192  0.00  0.00    -0.084 HD
BRANCH  23  26
ATOM     26  C   UNL     1      29.076 -23.756 -15.801  0.00  0.00    -0.046 C 
ATOM     27  C   UNL     1      28.225 -24.039 -17.045  0.00  0.00    -0.022 C 
ATOM     28  C   UNL     1      28.667 -22.417 -15.176  0.00  0.00    -0.022 C 
ATOM     29  C   UNL     1      28.908 -24.885 -14.779  0.00  0.00    -0.022 C 
ENDBRANCH  23  26
ENDBRANCH  22  23
ENDBRANCH  19  22
ENDBRANCH   1  19
TORSDOF 9
ENDMDL
MODEL 9
REMARK VINA RESULT:      -8.5      2.307      5.815
REMARK  Name = 54766
REMARK  9 active torsions:
REMARK  status: ('A' for Active; 'I' for Inactive)
REMARK    1  A    between atoms: C_1  and  C_19
REMARK    2  A    between atoms: C_4  and  O_7
REMARK    3  A    between atoms: C_5  and  O_13
REMARK    4  A    between atoms: O_7  and  C_10
REMARK    5  A    between atoms: O_13  and  C_16
REMARK    6  A    between atoms: C_19  and  O_20
REMARK    7  A    between atoms: C_19  and  C_22
REMARK    8  A    between atoms: C_22  and  N_23
REMARK    9  A    between atoms: N_23  and  C_26
REMARK                            x       y       z     vdW  Elec       q    Type
REMARK                         _______ _______ _______ _____ _____    ______ ____
ROOT
ATOM      1  C   UNL     1      33.711 -23.297 -15.413  0.00  0.00    +0.008 C 
ATOM      2  C   UNL     1      33.703 -23.125 -16.796  0.00  0.00    +0.036 C 
ATOM      3  C   UNL     1      34.902 -23.159 -14.699  0.00  0.00    +0.036 C 
ATOM      4  C   UNL     1      36.086 -22.850 -15.370  0.00  0.00    +0.153 C 
ATOM      5  C   UNL     1      34.886 -22.816 -17.467  0.00  0.00    +0.153 C 
ATOM      6  C   UNL     1      36.077 -22.678 -16.754  0.00  0.00    +0.075 C 
ENDROOT
BRANCH   4   7
ATOM      7  O   UNL     1      37.247 -22.717 -14.675  0.00  0.00    -0.410 OA
BRANCH   7  10
ATOM      8  O   UNL     1      38.245 -24.787 -14.945  0.00  0.00    -0.226 OA
ATOM      9  N   UNL     1      37.815 -24.017 -12.793  0.00  0.00    -0.242 N 
ATOM     10  C   UNL     1      37.809 -23.919 -14.189  0.00  0.00    +0.410 C 
ATOM     11  C   UNL     1      38.363 -25.200 -12.143  0.00  0.00    +0.118 C 
ATOM     12  C   UNL     1      37.299 -22.980 -11.904  0.00  0.00    +0.118 C 
ENDBRANCH   7  10
ENDBRANCH   4   7
BRANCH   5  13
ATOM     13  O   UNL     1      34.878 -22.647 -18.818  0.00  0.00    -0.410 OA
BRANCH  13  16
ATOM     14  O   UNL     1      32.659 -22.056 -19.095  0.00  0.00    -0.226 OA
ATOM     15  N   UNL     1      34.305 -20.751 -20.094  0.00  0.00    -0.242 N 
ATOM     16  C   UNL     1      33.845 -21.825 -19.324  0.00  0.00    +0.410 C 
ATOM     17  C   UNL     1      33.357 -19.815 -20.684  0.00  0.00    +0.118 C 
ATOM     18  C   UNL     1      35.715 -20.484 -20.357  0.00  0.00    +0.118 C 
ENDBRANCH  13  16
ENDBRANCH   5  13
BRANCH   1  19
ATOM     19  C   UNL     1      32.428 -23.632 -14.683  0.00  0.00    +0.112 C 
BRANCH  19  20
ATOM     20  O   UNL     1      32.601 -23.308 -13.304  0.00  0.00    -0.382 OA
ATOM     21  H   UNL     1      32.907 -22.391 -13.223  0.00  0.00    +0.211 HD
ENDBRANCH  19  20
BRANCH  19  22
ATOM     22  C   UNL     1      31.235 -22.863 -15.264  0.00  0.00    -0.047 C 
BRANCH  22  23
ATOM     23  N   UNL     1      30.484 -23.696 -16.186  0.00  0.00    +0.388 N 
ATOM     24  H   UNL     1      30.553 -23.304 -17.125  0.00  0.00    -0.084 HD
ATOM     25  H   UNL     1      30.871 -24.640 -16.169  0.00  0.00    -0.084 HD
BRANCH  23  26
ATOM     26  C   UNL     1      29.072 -23.757 -15.794  0.00  0.00    -0.046 C 
ATOM     27  C   UNL     1      28.660 -22.421 -15.165  0.00  0.00    -0.022 C 
ATOM     28  C   UNL     1      28.895 -24.893 -14.780  0.00  0.00    -0.022 C 
ATOM     29  C   UNL     1      28.229 -24.034 -17.043  0.00  0.00    -0.022 C 
ENDBRANCH  23  26
ENDBRANCH  22  23
ENDBRANCH  19  22
ENDBRANCH   1  19
TORSDOF 9
ENDMDL
