MODEL 1
REMARK VINA RESULT:     -12.1      0.000      0.000
REMARK  Name = 11507920
REMARK  4 active torsions:
REMARK  status: ('A' for Active; 'I' for Inactive)
REMARK    1  A    between atoms: C_1  and  C_8
REMARK    2  A    between atoms: C_2  and  C_17
REMARK    3  A    between atoms: C_17  and  N_18
REMARK    4  A    between atoms: N_18  and  C_21
REMARK                            x       y       z     vdW  Elec       q    Type
REMARK                         _______ _______ _______ _____ _____    ______ ____
ROOT
ATOM      1  C   UNL     1      34.725 -18.398 -22.429  0.00  0.00    -0.000 C 
ATOM      2  C   UNL     1      34.597 -16.067 -23.047  0.00  0.00    -0.003 C 
ATOM      3  C   UNL     1      34.673 -17.054 -22.064  0.00  0.00    -0.003 C 
ATOM      4  C   UNL     1      34.699 -18.758 -23.776  0.00  0.00    -0.000 C 
ATOM      5  C   UNL     1      34.572 -16.426 -24.395  0.00  0.00    -0.003 C 
ATOM      6  C   UNL     1      34.622 -17.772 -24.759  0.00  0.00    -0.000 C 
ENDROOT
BRANCH   1   8
ATOM      7  N   UNL     1      32.775 -21.704 -19.276  0.00  0.00    -0.312 N 
ATOM      8  C   UNL     1      34.803 -19.423 -21.408  0.00  0.00    +0.001 C 
ATOM      9  C   UNL     1      33.745 -20.979 -19.932  0.00  0.00    +0.048 C 
ATOM     10  C   UNL     1      34.980 -21.401 -19.434  0.00  0.00    +0.015 C 
ATOM     11  C   UNL     1      33.625 -19.993 -20.918  0.00  0.00    +0.015 C 
ATOM     12  C   UNL     1      36.049 -19.823 -20.929  0.00  0.00    +0.000 C 
ATOM     13  C   UNL     1      36.154 -20.810 -19.943  0.00  0.00    +0.001 C 
ATOM     14  C   UNL     1      34.716 -22.402 -18.459  0.00  0.00    +0.017 C 
ATOM     15  C   UNL     1      33.352 -22.566 -18.384  0.00  0.00    +0.062 C 
ATOM     16  H   UNL     1      31.806 -21.615 -19.428  0.00  0.00    +0.152 HD
ENDBRANCH   1   8
BRANCH   2  17
ATOM     17  C   UNL     1      34.542 -14.628 -22.659  0.00  0.00    +0.114 C 
BRANCH  17  18
ATOM     18  N   UNL     1      33.739 -13.848 -23.565  0.00  0.00    -0.327 N 
ATOM     19  H   UNL     1      33.636 -14.170 -24.489  0.00  0.00    +0.147 HD
BRANCH  18  21
ATOM     20  N   UNL     1      32.836 -10.257 -23.446  0.00  0.00    -0.228 NA
ATOM     21  C   UNL     1      33.102 -12.666 -23.210  0.00  0.00    +0.077 C 
ATOM     22  C   UNL     1      33.433 -11.428 -23.764  0.00  0.00    +0.139 C 
ATOM     23  C   UNL     1      32.074 -12.671 -22.258  0.00  0.00    +0.019 C 
ATOM     24  C   UNL     1      31.436 -11.487 -21.905  0.00  0.00    +0.022 C 
ATOM     25  C   UNL     1      31.850 -10.317 -22.522  0.00  0.00    +0.100 C 
ATOM     26  N   UNL     1      34.472 -11.397 -24.728  0.00  0.00    -0.342 N 
ATOM     27  H   UNL     1      34.733 -10.543 -25.142  0.00  0.00    +0.144 HD
ATOM     28  H   UNL     1      34.930 -12.229 -24.986  0.00  0.00    +0.144 HD
ENDBRANCH  18  21
ENDBRANCH  17  18
ENDBRANCH   2  17
TORSDOF 4
ENDMDL
MODEL 2
REMARK VINA RESULT:     -11.8      1.611      2.006
REMARK  Name = 11507920
REMARK  4 active torsions:
REMARK  status: ('A' for Active; 'I' for Inactive)
REMARK    1  A    between atoms: C_1  and  C_8
REMARK    2  A    between atoms: C_2  and  C_17
REMARK    3  A    between atoms: C_17  and  N_18
REMARK    4  A    between atoms: N_18  and  C_21
REMARK                            x       y       z     vdW  Elec       q    Type
REMARK                         _______ _______ _______ _____ _____    ______ ____
ROOT
ATOM      1  C   UNL     1      34.740 -18.987 -22.103  0.00  0.00    -0.000 C 
ATOM      2  C   UNL     1      34.474 -16.713 -22.873  0.00  0.00    -0.003 C 
ATOM      3  C   UNL     1      34.508 -17.639 -21.830  0.00  0.00    -0.003 C 
ATOM      4  C   UNL     1      34.938 -19.410 -23.416  0.00  0.00    -0.000 C 
ATOM      5  C   UNL     1      34.671 -17.135 -24.187  0.00  0.00    -0.003 C 
ATOM      6  C   UNL     1      34.903 -18.484 -24.459  0.00  0.00    -0.000 C 
ENDROOT
BRANCH   1   8
ATOM      7  N   UNL     1      32.652 -22.045 -18.793  0.00  0.00    -0.312 N 
ATOM      8  C   UNL     1      34.774 -19.948 -21.020  0.00  0.00    +0.001 C 
ATOM      9  C   UNL     1      33.651 -21.385 -19.473  0.00  0.00    +0.048 C 
ATOM     10  C   UNL     1      34.866 -21.806 -18.927  0.00  0.00    +0.015 C 
ATOM     11  C   UNL     1      33.574 -20.459 -20.518  0.00  0.00    +0.015 C 
ATOM     12  C   UNL     1      36.001 -20.349 -20.495  0.00  0.00    +0.000 C 
ATOM     13  C   UNL     1      36.063 -21.276 -19.448  0.00  0.00    +0.001 C 
ATOM     14  C   UNL     1      34.560 -22.739 -17.898  0.00  0.00    +0.017 C 
ATOM     15  C   UNL     1      33.192 -22.865 -17.839  0.00  0.00    +0.062 C 
ATOM     16  H   UNL     1      31.688 -21.941 -18.968  0.00  0.00    +0.152 HD
ENDBRANCH   1   8
BRANCH   2  17
ATOM     17  C   UNL     1      34.225 -15.271 -22.583  0.00  0.00    +0.114 C 
BRANCH  17  18
ATOM     18  N   UNL     1      33.193 -14.716 -23.419  0.00  0.00    -0.327 N 
ATOM     19  H   UNL     1      32.284 -15.086 -23.342  0.00  0.00    +0.147 HD
BRANCH  18  21
ATOM     20  N   UNL     1      33.349 -12.845 -26.613  0.00  0.00    -0.228 NA
ATOM     21  C   UNL     1      33.405 -13.688 -24.329  0.00  0.00    +0.077 C 
ATOM     22  C   UNL     1      33.157 -13.821 -25.697  0.00  0.00    +0.139 C 
ATOM     23  C   UNL     1      33.886 -12.445 -23.898  0.00  0.00    +0.019 C 
ATOM     24  C   UNL     1      34.097 -11.418 -24.811  0.00  0.00    +0.022 C 
ATOM     25  C   UNL     1      33.816 -11.666 -26.145  0.00  0.00    +0.100 C 
ATOM     26  N   UNL     1      32.671 -15.070 -26.157  0.00  0.00    -0.342 N 
ATOM     27  H   UNL     1      32.484 -15.203 -27.115  0.00  0.00    +0.144 HD
ATOM     28  H   UNL     1      32.518 -15.805 -25.520  0.00  0.00    +0.144 HD
ENDBRANCH  18  21
ENDBRANCH  17  18
ENDBRANCH   2  17
TORSDOF 4
ENDMDL
MODEL 3
REMARK VINA RESULT:     -11.5      2.499      9.503
REMARK  Name = 11507920
REMARK  4 active torsions:
REMARK  status: ('A' for Active; 'I' for Inactive)
REMARK    1  A    between atoms: C_1  and  C_8
REMARK    2  A    between atoms: C_2  and  C_17
REMARK    3  A    between atoms: C_17  and  N_18
REMARK    4  A    between atoms: N_18  and  C_21
REMARK                            x       y       z     vdW  Elec       q    Type
REMARK                         _______ _______ _______ _____ _____    ______ ____
ROOT
ATOM      1  C   UNL     1      35.174 -20.005 -20.641  0.00  0.00    -0.000 C 
ATOM      2  C   UNL     1      34.261 -21.661 -19.138  0.00  0.00    -0.003 C 
ATOM      3  C   UNL     1      34.073 -20.672 -20.103  0.00  0.00    -0.003 C 
ATOM      4  C   UNL     1      36.462 -20.326 -20.214  0.00  0.00    -0.000 C 
ATOM      5  C   UNL     1      35.549 -21.983 -18.710  0.00  0.00    -0.003 C 
ATOM      6  C   UNL     1      36.650 -21.314 -19.248  0.00  0.00    -0.000 C 
ENDROOT
BRANCH   1   8
ATOM      7  N   UNL     1      34.527 -15.316 -22.145  0.00  0.00    -0.312 N 
ATOM      8  C   UNL     1      34.978 -18.977 -21.642  0.00  0.00    +0.001 C 
ATOM      9  C   UNL     1      34.673 -16.682 -22.241  0.00  0.00    +0.048 C 
ATOM     10  C   UNL     1      34.601 -17.008 -23.597  0.00  0.00    +0.015 C 
ATOM     11  C   UNL     1      34.860 -17.643 -21.242  0.00  0.00    +0.015 C 
ATOM     12  C   UNL     1      34.910 -19.333 -22.988  0.00  0.00    +0.000 C 
ATOM     13  C   UNL     1      34.722 -18.360 -23.977  0.00  0.00    +0.001 C 
ATOM     14  C   UNL     1      34.408 -15.791 -24.309  0.00  0.00    +0.017 C 
ATOM     15  C   UNL     1      34.367 -14.770 -23.389  0.00  0.00    +0.062 C 
ATOM     16  H   UNL     1      34.538 -14.806 -21.302  0.00  0.00    +0.152 HD
ENDBRANCH   1   8
BRANCH   2  17
ATOM     17  C   UNL     1      33.085 -22.375 -18.562  0.00  0.00    +0.114 C 
BRANCH  17  18
ATOM     18  N   UNL     1      33.411 -23.071 -17.343  0.00  0.00    -0.327 N 
ATOM     19  H   UNL     1      34.292 -23.506 -17.278  0.00  0.00    +0.147 HD
BRANCH  18  21
ATOM     20  N   UNL     1      32.206 -23.309 -13.849  0.00  0.00    -0.228 NA
ATOM     21  C   UNL     1      32.555 -23.163 -16.254  0.00  0.00    +0.077 C 
ATOM     22  C   UNL     1      33.007 -23.220 -14.934  0.00  0.00    +0.139 C 
ATOM     23  C   UNL     1      31.167 -23.202 -16.442  0.00  0.00    +0.019 C 
ATOM     24  C   UNL     1      30.311 -23.294 -15.350  0.00  0.00    +0.022 C 
ATOM     25  C   UNL     1      30.875 -23.344 -14.086  0.00  0.00    +0.100 C 
ATOM     26  N   UNL     1      34.408 -23.184 -14.719  0.00  0.00    -0.342 N 
ATOM     27  H   UNL     1      34.765 -23.221 -13.802  0.00  0.00    +0.144 HD
ATOM     28  H   UNL     1      35.023 -23.119 -15.484  0.00  0.00    +0.144 HD
ENDBRANCH  18  21
ENDBRANCH  17  18
ENDBRANCH   2  17
TORSDOF 4
ENDMDL
MODEL 4
REMARK VINA RESULT:     -11.2      5.151      8.836
REMARK  Name = 11507920
REMARK  4 active torsions:
REMARK  status: ('A' for Active; 'I' for Inactive)
REMARK    1  A    between atoms: C_1  and  C_8
REMARK    2  A    between atoms: C_2  and  C_17
REMARK    3  A    between atoms: C_17  and  N_18
REMARK    4  A    between atoms: N_18  and  C_21
REMARK                            x       y       z     vdW  Elec       q    Type
REMARK                         _______ _______ _______ _____ _____    ______ ____
ROOT
ATOM      1  C   UNL     1      34.591 -23.378 -15.292  0.00  0.00    -0.000 C 
ATOM      2  C   UNL     1      36.258 -22.374 -16.723  0.00  0.00    -0.003 C 
ATOM      3  C   UNL     1      34.941 -22.781 -16.502  0.00  0.00    -0.003 C 
ATOM      4  C   UNL     1      35.554 -23.571 -14.302  0.00  0.00    -0.000 C 
ATOM      5  C   UNL     1      37.222 -22.567 -15.734  0.00  0.00    -0.003 C 
ATOM      6  C   UNL     1      36.870 -23.166 -14.523  0.00  0.00    -0.000 C 
ENDROOT
BRANCH   1   8
ATOM      7  N   UNL     1      29.747 -23.575 -16.373  0.00  0.00    -0.312 N 
ATOM      8  C   UNL     1      33.224 -23.801 -15.063  0.00  0.00    +0.001 C 
ATOM      9  C   UNL     1      30.916 -23.819 -15.687  0.00  0.00    +0.048 C 
ATOM     10  C   UNL     1      30.591 -24.631 -14.598  0.00  0.00    +0.015 C 
ATOM     11  C   UNL     1      32.222 -23.388 -15.945  0.00  0.00    +0.015 C 
ATOM     12  C   UNL     1      32.930 -24.611 -13.967  0.00  0.00    +0.000 C 
ATOM     13  C   UNL     1      31.619 -25.033 -13.722  0.00  0.00    +0.001 C 
ATOM     14  C   UNL     1      29.189 -24.864 -14.656  0.00  0.00    +0.017 C 
ATOM     15  C   UNL     1      28.699 -24.202 -15.757  0.00  0.00    +0.062 C 
ATOM     16  H   UNL     1      29.676 -23.028 -17.189  0.00  0.00    +0.152 HD
ENDBRANCH   1   8
BRANCH   2  17
ATOM     17  C   UNL     1      36.635 -21.735 -18.017  0.00  0.00    +0.114 C 
BRANCH  17  18
ATOM     18  N   UNL     1      35.686 -22.018 -19.063  0.00  0.00    -0.327 N 
ATOM     19  H   UNL     1      35.471 -22.960 -19.253  0.00  0.00    +0.147 HD
BRANCH  18  21
ATOM     20  N   UNL     1      33.019 -19.998 -20.652  0.00  0.00    -0.228 NA
ATOM     21  C   UNL     1      35.057 -21.039 -19.820  0.00  0.00    +0.077 C 
ATOM     22  C   UNL     1      33.668 -20.937 -19.927  0.00  0.00    +0.139 C 
ATOM     23  C   UNL     1      35.810 -20.089 -20.521  0.00  0.00    +0.019 C 
ATOM     24  C   UNL     1      35.178 -19.108 -21.278  0.00  0.00    +0.022 C 
ATOM     25  C   UNL     1      33.792 -19.106 -21.310  0.00  0.00    +0.100 C 
ATOM     26  N   UNL     1      32.884 -21.888 -19.227  0.00  0.00    -0.342 N 
ATOM     27  H   UNL     1      31.902 -21.848 -19.278  0.00  0.00    +0.144 HD
ATOM     28  H   UNL     1      33.321 -22.586 -18.689  0.00  0.00    +0.144 HD
ENDBRANCH  18  21
ENDBRANCH  17  18
ENDBRANCH   2  17
TORSDOF 4
ENDMDL
MODEL 5
REMARK VINA RESULT:     -11.1      1.308      8.782
REMARK  Name = 11507920
REMARK  4 active torsions:
REMARK  status: ('A' for Active; 'I' for Inactive)
REMARK    1  A    between atoms: C_1  and  C_8
REMARK    2  A    between atoms: C_2  and  C_17
REMARK    3  A    between atoms: C_17  and  N_18
REMARK    4  A    between atoms: N_18  and  C_21
REMARK                            x       y       z     vdW  Elec       q    Type
REMARK                         _______ _______ _______ _____ _____    ______ ____
ROOT
ATOM      1  C   UNL     1      33.956 -15.290 -23.242  0.00  0.00    -0.000 C 
ATOM      2  C   UNL     1      34.996 -17.305 -22.409  0.00  0.00    -0.003 C 
ATOM      3  C   UNL     1      34.440 -16.047 -22.175  0.00  0.00    -0.003 C 
ATOM      4  C   UNL     1      34.029 -15.788 -24.542  0.00  0.00    -0.000 C 
ATOM      5  C   UNL     1      35.070 -17.803 -23.710  0.00  0.00    -0.003 C 
ATOM      6  C   UNL     1      34.587 -17.044 -24.777  0.00  0.00    -0.000 C 
ENDROOT
BRANCH   1   8
ATOM      7  N   UNL     1      33.376 -10.439 -24.134  0.00  0.00    -0.312 N 
ATOM      8  C   UNL     1      33.379 -13.984 -22.998  0.00  0.00    +0.001 C 
ATOM      9  C   UNL     1      33.188 -11.659 -23.525  0.00  0.00    +0.048 C 
ATOM     10  C   UNL     1      32.249 -11.469 -22.508  0.00  0.00    +0.015 C 
ATOM     11  C   UNL     1      33.769 -12.903 -23.793  0.00  0.00    +0.015 C 
ATOM     12  C   UNL     1      32.445 -13.825 -21.976  0.00  0.00    +0.000 C 
ATOM     13  C   UNL     1      31.872 -12.574 -21.718  0.00  0.00    +0.001 C 
ATOM     14  C   UNL     1      31.883 -10.095 -22.530  0.00  0.00    +0.017 C 
ATOM     15  C   UNL     1      32.592  -9.488 -23.539  0.00  0.00    +0.062 C 
ATOM     16  H   UNL     1      33.987 -10.274 -24.889  0.00  0.00    +0.152 HD
ENDBRANCH   1   8
BRANCH   2  17
ATOM     17  C   UNL     1      35.515 -18.116 -21.270  0.00  0.00    +0.114 C 
BRANCH  17  18
ATOM     18  N   UNL     1      35.354 -19.531 -21.489  0.00  0.00    -0.327 N 
ATOM     19  H   UNL     1      35.538 -19.885 -22.388  0.00  0.00    +0.147 HD
BRANCH  18  21
ATOM     20  N   UNL     1      33.183 -21.539 -19.258  0.00  0.00    -0.228 NA
ATOM     21  C   UNL     1      34.953 -20.423 -20.504  0.00  0.00    +0.077 C 
ATOM     22  C   UNL     1      33.612 -20.677 -20.208  0.00  0.00    +0.139 C 
ATOM     23  C   UNL     1      35.904 -21.124 -19.750  0.00  0.00    +0.019 C 
ATOM     24  C   UNL     1      35.501 -22.018 -18.764  0.00  0.00    +0.022 C 
ATOM     25  C   UNL     1      34.141 -22.189 -18.559  0.00  0.00    +0.100 C 
ATOM     26  N   UNL     1      32.632 -19.979 -20.956  0.00  0.00    -0.342 N 
ATOM     27  H   UNL     1      31.676 -20.132 -20.777  0.00  0.00    +0.144 HD
ATOM     28  H   UNL     1      32.906 -19.344 -21.656  0.00  0.00    +0.144 HD
ENDBRANCH  18  21
ENDBRANCH  17  18
ENDBRANCH   2  17
TORSDOF 4
ENDMDL
MODEL 6
REMARK VINA RESULT:     -11.1      3.020      9.830
REMARK  Name = 11507920
REMARK  4 active torsions:
REMARK  status: ('A' for Active; 'I' for Inactive)
REMARK    1  A    between atoms: C_1  and  C_8
REMARK    2  A    between atoms: C_2  and  C_17
REMARK    3  A    between atoms: C_17  and  N_18
REMARK    4  A    between atoms: N_18  and  C_21
REMARK                            x       y       z     vdW  Elec       q    Type
REMARK                         _______ _______ _______ _____ _____    ______ ____
ROOT
ATOM      1  C   UNL     1      34.511 -20.109 -20.584  0.00  0.00    -0.000 C 
ATOM      2  C   UNL     1      35.589 -21.539 -18.963  0.00  0.00    -0.003 C 
ATOM      3  C   UNL     1      35.662 -20.519 -19.911  0.00  0.00    -0.003 C 
ATOM      4  C   UNL     1      33.288 -20.720 -20.312  0.00  0.00    -0.000 C 
ATOM      5  C   UNL     1      34.365 -22.151 -18.690  0.00  0.00    -0.003 C 
ATOM      6  C   UNL     1      33.214 -21.741 -19.365  0.00  0.00    -0.000 C 
ENDROOT
BRANCH   1   8
ATOM      7  N   UNL     1      34.314 -15.370 -22.056  0.00  0.00    -0.312 N 
ATOM      8  C   UNL     1      34.588 -19.051 -21.570  0.00  0.00    +0.001 C 
ATOM      9  C   UNL     1      34.466 -16.734 -22.154  0.00  0.00    +0.048 C 
ATOM     10  C   UNL     1      34.740 -17.022 -23.494  0.00  0.00    +0.015 C 
ATOM     11  C   UNL     1      34.384 -17.727 -21.171  0.00  0.00    +0.015 C 
ATOM     12  C   UNL     1      34.862 -19.367 -22.899  0.00  0.00    +0.000 C 
ATOM     13  C   UNL     1      34.941 -18.364 -23.872  0.00  0.00    +0.001 C 
ATOM     14  C   UNL     1      34.747 -15.783 -24.193  0.00  0.00    +0.017 C 
ATOM     15  C   UNL     1      34.482 -14.787 -23.282  0.00  0.00    +0.062 C 
ATOM     16  H   UNL     1      34.114 -14.884 -21.223  0.00  0.00    +0.152 HD
ENDBRANCH   1   8
BRANCH   2  17
ATOM     17  C   UNL     1      36.818 -21.979 -18.242  0.00  0.00    +0.114 C 
BRANCH  17  18
ATOM     18  N   UNL     1      36.735 -21.739 -16.824  0.00  0.00    -0.327 N 
ATOM     19  H   UNL     1      36.928 -20.832 -16.495  0.00  0.00    +0.147 HD
BRANCH  18  21
ATOM     20  N   UNL     1      37.027 -24.616 -14.510  0.00  0.00    -0.228 NA
ATOM     21  C   UNL     1      36.400 -22.714 -15.895  0.00  0.00    +0.077 C 
ATOM     22  C   UNL     1      37.315 -23.654 -15.415  0.00  0.00    +0.139 C 
ATOM     23  C   UNL     1      35.096 -22.795 -15.387  0.00  0.00    +0.019 C 
ATOM     24  C   UNL     1      34.763 -23.772 -14.456  0.00  0.00    +0.022 C 
ATOM     25  C   UNL     1      35.755 -24.651 -14.053  0.00  0.00    +0.100 C 
ATOM     26  N   UNL     1      38.640 -23.594 -15.915  0.00  0.00    -0.342 N 
ATOM     27  H   UNL     1      39.314 -24.239 -15.600  0.00  0.00    +0.144 HD
ATOM     28  H   UNL     1      38.887 -22.907 -16.575  0.00  0.00    +0.144 HD
ENDBRANCH  18  21
ENDBRANCH  17  18
ENDBRANCH   2  17
TORSDOF 4
ENDMDL
MODEL 7
REMARK VINA RESULT:     -11.1      1.641      8.522
REMARK  Name = 11507920
REMARK  4 active torsions:
REMARK  status: ('A' for Active; 'I' for Inactive)
REMARK    1  A    between atoms: C_1  and  C_8
REMARK    2  A    between atoms: C_2  and  C_17
REMARK    3  A    between atoms: C_17  and  N_18
REMARK    4  A    between atoms: N_18  and  C_21
REMARK                            x       y       z     vdW  Elec       q    Type
REMARK                         _______ _______ _______ _____ _____    ______ ____
ROOT
ATOM      1  C   UNL     1      34.145 -15.666 -23.227  0.00  0.00    -0.000 C 
ATOM      2  C   UNL     1      35.026 -17.668 -22.203  0.00  0.00    -0.003 C 
ATOM      3  C   UNL     1      34.480 -16.390 -22.084  0.00  0.00    -0.003 C 
ATOM      4  C   UNL     1      34.357 -16.217 -24.490  0.00  0.00    -0.000 C 
ATOM      5  C   UNL     1      35.238 -18.220 -23.467  0.00  0.00    -0.003 C 
ATOM      6  C   UNL     1      34.904 -17.494 -24.611  0.00  0.00    -0.000 C 
ENDROOT
BRANCH   1   8
ATOM      7  N   UNL     1      31.228 -12.246 -21.116  0.00  0.00    -0.312 N 
ATOM      8  C   UNL     1      33.580 -14.338 -23.103  0.00  0.00    +0.001 C 
ATOM      9  C   UNL     1      32.136 -12.783 -22.000  0.00  0.00    +0.048 C 
ATOM     10  C   UNL     1      32.500 -11.764 -22.884  0.00  0.00    +0.015 C 
ATOM     11  C   UNL     1      32.658 -14.078 -22.085  0.00  0.00    +0.015 C 
ATOM     12  C   UNL     1      33.961 -13.342 -24.000  0.00  0.00    +0.000 C 
ATOM     13  C   UNL     1      33.430 -12.050 -23.903  0.00  0.00    +0.001 C 
ATOM     14  C   UNL     1      31.779 -10.600 -22.498  0.00  0.00    +0.017 C 
ATOM     15  C   UNL     1      31.006 -10.928 -21.409  0.00  0.00    +0.062 C 
ATOM     16  H   UNL     1      30.800 -12.739 -20.378  0.00  0.00    +0.152 HD
ENDBRANCH   1   8
BRANCH   2  17
ATOM     17  C   UNL     1      35.385 -18.444 -20.982  0.00  0.00    +0.114 C 
BRANCH  17  18
ATOM     18  N   UNL     1      35.256 -19.865 -21.179  0.00  0.00    -0.327 N 
ATOM     19  H   UNL     1      35.545 -20.242 -22.042  0.00  0.00    +0.147 HD
BRANCH  18  21
ATOM     20  N   UNL     1      32.848 -21.791 -19.128  0.00  0.00    -0.228 NA
ATOM     21  C   UNL     1      34.748 -20.735 -20.224  0.00  0.00    +0.077 C 
ATOM     22  C   UNL     1      33.381 -20.953 -20.045  0.00  0.00    +0.139 C 
ATOM     23  C   UNL     1      35.611 -21.448 -19.381  0.00  0.00    +0.019 C 
ATOM     24  C   UNL     1      35.100 -22.319 -18.425  0.00  0.00    +0.022 C 
ATOM     25  C   UNL     1      33.724 -22.454 -18.339  0.00  0.00    +0.100 C 
ATOM     26  N   UNL     1      32.488 -20.242 -20.885  0.00  0.00    -0.342 N 
ATOM     27  H   UNL     1      31.516 -20.369 -20.790  0.00  0.00    +0.144 HD
ATOM     28  H   UNL     1      32.838 -19.622 -21.565  0.00  0.00    +0.144 HD
ENDBRANCH  18  21
ENDBRANCH  17  18
ENDBRANCH   2  17
TORSDOF 4
ENDMDL
MODEL 8
REMARK VINA RESULT:     -11.0      5.499      9.670
REMARK  Name = 11507920
REMARK  4 active torsions:
REMARK  status: ('A' for Active; 'I' for Inactive)
REMARK    1  A    between atoms: C_1  and  C_8
REMARK    2  A    between atoms: C_2  and  C_17
REMARK    3  A    between atoms: C_17  and  N_18
REMARK    4  A    between atoms: N_18  and  C_21
REMARK                            x       y       z     vdW  Elec       q    Type
REMARK                         _______ _______ _______ _____ _____    ______ ____
ROOT
ATOM      1  C   UNL     1      34.495 -24.097 -14.611  0.00  0.00    -0.000 C 
ATOM      2  C   UNL     1      32.924 -23.246 -16.236  0.00  0.00    -0.003 C 
ATOM      3  C   UNL     1      34.218 -23.648 -15.901  0.00  0.00    -0.003 C 
ATOM      4  C   UNL     1      33.482 -24.146 -13.655  0.00  0.00    -0.000 C 
ATOM      5  C   UNL     1      31.910 -23.293 -15.280  0.00  0.00    -0.003 C 
ATOM      6  C   UNL     1      32.189 -23.743 -13.989  0.00  0.00    -0.000 C 
ENDROOT
BRANCH   1   8
ATOM      7  N   UNL     1      39.315 -24.836 -15.553  0.00  0.00    -0.312 N 
ATOM      8  C   UNL     1      35.838 -24.513 -14.263  0.00  0.00    +0.001 C 
ATOM      9  C   UNL     1      38.139 -24.823 -14.838  0.00  0.00    +0.048 C 
ATOM     10  C   UNL     1      38.426 -25.324 -13.567  0.00  0.00    +0.015 C 
ATOM     11  C   UNL     1      36.856 -24.410 -15.215  0.00  0.00    +0.015 C 
ATOM     12  C   UNL     1      36.095 -25.010 -12.987  0.00  0.00    +0.000 C 
ATOM     13  C   UNL     1      37.383 -25.420 -12.624  0.00  0.00    +0.001 C 
ATOM     14  C   UNL     1      39.814 -25.637 -13.545  0.00  0.00    +0.017 C 
ATOM     15  C   UNL     1      40.332 -25.326 -14.781  0.00  0.00    +0.062 C 
ATOM     16  H   UNL     1      39.411 -24.535 -16.486  0.00  0.00    +0.152 HD
ENDBRANCH   1   8
BRANCH   2  17
ATOM     17  C   UNL     1      32.625 -22.764 -17.616  0.00  0.00    +0.114 C 
BRANCH  17  18
ATOM     18  N   UNL     1      33.811 -22.663 -18.428  0.00  0.00    -0.327 N 
ATOM     19  H   UNL     1      34.472 -23.390 -18.376  0.00  0.00    +0.147 HD
BRANCH  18  21
ATOM     20  N   UNL     1      35.659 -20.083 -20.338  0.00  0.00    -0.228 NA
ATOM     21  C   UNL     1      34.074 -21.599 -19.280  0.00  0.00    +0.077 C 
ATOM     22  C   UNL     1      35.363 -21.115 -19.516  0.00  0.00    +0.139 C 
ATOM     23  C   UNL     1      33.030 -20.954 -19.956  0.00  0.00    +0.019 C 
ATOM     24  C   UNL     1      33.296 -19.889 -20.810  0.00  0.00    +0.022 C 
ATOM     25  C   UNL     1      34.616 -19.495 -20.965  0.00  0.00    +0.100 C 
ATOM     26  N   UNL     1      36.435 -21.750 -18.841  0.00  0.00    -0.342 N 
ATOM     27  H   UNL     1      37.358 -21.437 -18.982  0.00  0.00    +0.144 HD
ATOM     28  H   UNL     1      36.259 -22.505 -18.235  0.00  0.00    +0.144 HD
ENDBRANCH  18  21
ENDBRANCH  17  18
ENDBRANCH   2  17
TORSDOF 4
ENDMDL
MODEL 9
REMARK VINA RESULT:     -10.8      3.095      9.482
REMARK  Name = 11507920
REMARK  4 active torsions:
REMARK  status: ('A' for Active; 'I' for Inactive)
REMARK    1  A    between atoms: C_1  and  C_8
REMARK    2  A    between atoms: C_2  and  C_17
REMARK    3  A    between atoms: C_17  and  N_18
REMARK    4  A    between atoms: N_18  and  C_21
REMARK                            x       y       z     vdW  Elec       q    Type
REMARK                         _______ _______ _______ _____ _____    ______ ____
ROOT
ATOM      1  C   UNL     1      35.067 -19.643 -20.822  0.00  0.00    -0.000 C 
ATOM      2  C   UNL     1      34.152 -21.409 -19.452  0.00  0.00    -0.003 C 
ATOM      3  C   UNL     1      33.965 -20.295 -20.271  0.00  0.00    -0.003 C 
ATOM      4  C   UNL     1      36.356 -20.102 -20.556  0.00  0.00    -0.000 C 
ATOM      5  C   UNL     1      35.442 -21.869 -19.184  0.00  0.00    -0.003 C 
ATOM      6  C   UNL     1      36.544 -21.215 -19.736  0.00  0.00    -0.000 C 
ENDROOT
BRANCH   1   8
ATOM      7  N   UNL     1      34.305 -17.395 -25.185  0.00  0.00    -0.312 N 
ATOM      8  C   UNL     1      34.873 -18.485 -21.671  0.00  0.00    +0.001 C 
ATOM      9  C   UNL     1      34.505 -17.522 -23.829  0.00  0.00    +0.048 C 
ATOM     10  C   UNL     1      34.500 -16.233 -23.292  0.00  0.00    +0.015 C 
ATOM     11  C   UNL     1      34.690 -18.665 -23.045  0.00  0.00    +0.015 C 
ATOM     12  C   UNL     1      34.872 -17.211 -21.107  0.00  0.00    +0.000 C 
ATOM     13  C   UNL     1      34.687 -16.075 -21.904  0.00  0.00    +0.001 C 
ATOM     14  C   UNL     1      34.288 -15.331 -24.372  0.00  0.00    +0.017 C 
ATOM     15  C   UNL     1      34.172 -16.076 -25.522  0.00  0.00    +0.062 C 
ATOM     16  H   UNL     1      34.262 -18.147 -25.821  0.00  0.00    +0.152 HD
ENDBRANCH   1   8
BRANCH   2  17
ATOM     17  C   UNL     1      32.975 -22.107 -18.861  0.00  0.00    +0.114 C 
BRANCH  17  18
ATOM     18  N   UNL     1      33.352 -23.281 -18.116  0.00  0.00    -0.327 N 
ATOM     19  H   UNL     1      33.719 -24.048 -18.612  0.00  0.00    +0.147 HD
BRANCH  18  21
ATOM     20  N   UNL     1      31.852 -23.337 -14.730  0.00  0.00    -0.228 NA
ATOM     21  C   UNL     1      33.229 -23.393 -16.737  0.00  0.00    +0.077 C 
ATOM     22  C   UNL     1      32.013 -23.235 -16.068  0.00  0.00    +0.139 C 
ATOM     23  C   UNL     1      34.347 -23.679 -15.944  0.00  0.00    +0.019 C 
ATOM     24  C   UNL     1      34.220 -23.791 -14.564  0.00  0.00    +0.022 C 
ATOM     25  C   UNL     1      32.962 -23.614 -14.010  0.00  0.00    +0.100 C 
ATOM     26  N   UNL     1      30.867 -22.943 -16.850  0.00  0.00    -0.342 N 
ATOM     27  H   UNL     1      29.992 -22.825 -16.415  0.00  0.00    +0.144 HD
ATOM     28  H   UNL     1      30.945 -22.861 -17.828  0.00  0.00    +0.144 HD
ENDBRANCH  18  21
ENDBRANCH  17  18
ENDBRANCH   2  17
TORSDOF 4
ENDMDL
