MODEL 1
REMARK VINA RESULT:     -11.9      0.000      0.000
REMARK  Name = 11234052
REMARK  6 active torsions:
REMARK  status: ('A' for Active; 'I' for Inactive)
REMARK    1  A    between atoms: C_6  and  O_11
REMARK    2  A    between atoms: C_8  and  O_17
REMARK    3  A    between atoms: O_11  and  C_12
REMARK    4  A    between atoms: C_12  and  C_13
REMARK    5  A    between atoms: C_13  and  O_15
REMARK    6  A    between atoms: O_17  and  C_22
REMARK                            x       y       z     vdW  Elec       q    Type
REMARK                         _______ _______ _______ _____ _____    ______ ____
ROOT
ATOM      1  N   UNL     1      34.303 -15.246 -22.689  0.00  0.00    -0.180 N 
ATOM      2  N   UNL     1      34.348 -14.677 -21.453  0.00  0.00    -0.151 NA
ATOM      3  N   UNL     1      35.169 -16.801 -20.639  0.00  0.00    -0.187 NA
ATOM      4  C   UNL     1      34.669 -16.543 -22.942  0.00  0.00    +0.126 C 
ATOM      5  C   UNL     1      34.502 -16.788 -24.286  0.00  0.00    +0.034 C 
ATOM      6  C   UNL     1      34.014 -15.587 -24.865  0.00  0.00    +0.153 C 
ATOM      7  C   UNL     1      33.901 -14.652 -23.857  0.00  0.00    +0.126 C 
ATOM      8  C   UNL     1      35.113 -17.306 -21.829  0.00  0.00    +0.247 C 
ATOM      9  C   UNL     1      34.760 -18.033 -25.038  0.00  0.00    +0.036 C 
ATOM     10  C   UNL     1      34.773 -15.478 -20.510  0.00  0.00    +0.220 C 
ENDROOT
BRANCH   6  11
ATOM     11  O   UNL     1      33.706 -15.355 -26.149  0.00  0.00    -0.472 OA
BRANCH  11  12
ATOM     12  C   UNL     1      32.614 -14.466 -26.409  0.00  0.00    +0.234 C 
BRANCH  12  13
ATOM     13  C   UNL     1      33.128 -13.264 -27.190  0.00  0.00    +0.154 C 
ATOM     14  C   UNL     1      33.619 -12.165 -26.261  0.00  0.00    +0.036 C 
BRANCH  13  15
ATOM     15  O   UNL     1      34.214 -13.694 -28.012  0.00  0.00    -0.381 OA
ATOM     16  H   UNL     1      33.874 -14.244 -28.733  0.00  0.00    +0.210 HD
ENDBRANCH  13  15
ENDBRANCH  12  13
ENDBRANCH  11  12
ENDBRANCH   6  11
BRANCH   8  17
ATOM     17  O   UNL     1      35.480 -18.589 -22.052  0.00  0.00    -0.433 OA
BRANCH  17  22
ATOM     18  F   UNL     1      36.805 -20.225 -20.288  0.00  0.00    -0.201 F 
ATOM     19  N   UNL     1      32.884 -22.137 -18.776  0.00  0.00    -0.316 N 
ATOM     20  C   UNL     1      34.738 -21.169 -19.554  0.00  0.00    +0.045 C 
ATOM     21  C   UNL     1      33.346 -21.195 -19.668  0.00  0.00    +0.050 C 
ATOM     22  C   UNL     1      34.781 -19.452 -21.262  0.00  0.00    +0.175 C 
ATOM     23  C   UNL     1      33.933 -22.706 -18.104  0.00  0.00    +0.026 C 
ATOM     24  C   UNL     1      35.468 -20.280 -20.368  0.00  0.00    +0.176 C 
ATOM     25  C   UNL     1      35.093 -22.128 -18.564  0.00  0.00    +0.014 C 
ATOM     26  C   UNL     1      32.646 -20.373 -20.558  0.00  0.00    +0.018 C 
ATOM     27  C   UNL     1      33.391 -19.500 -21.355  0.00  0.00    +0.041 C 
ATOM     28  C   UNL     1      33.715 -23.750 -17.085  0.00  0.00    +0.047 C 
ATOM     29  H   UNL     1      31.937 -22.368 -18.641  0.00  0.00    +0.152 HD
ENDBRANCH  17  22
ENDBRANCH   8  17
TORSDOF 6
ENDMDL
MODEL 2
REMARK VINA RESULT:     -11.3      2.333      3.111
REMARK  Name = 11234052
REMARK  6 active torsions:
REMARK  status: ('A' for Active; 'I' for Inactive)
REMARK    1  A    between atoms: C_6  and  O_11
REMARK    2  A    between atoms: C_8  and  O_17
REMARK    3  A    between atoms: O_11  and  C_12
REMARK    4  A    between atoms: C_12  and  C_13
REMARK    5  A    between atoms: C_13  and  O_15
REMARK    6  A    between atoms: O_17  and  C_22
REMARK                            x       y       z     vdW  Elec       q    Type
REMARK                         _______ _______ _______ _____ _____    ______ ____
ROOT
ATOM      1  N   UNL     1      34.000 -16.045 -24.444  0.00  0.00    -0.180 N 
ATOM      2  N   UNL     1      34.029 -16.893 -25.509  0.00  0.00    -0.151 NA
ATOM      3  N   UNL     1      35.195 -18.454 -24.079  0.00  0.00    -0.187 NA
ATOM      4  C   UNL     1      34.536 -16.346 -23.218  0.00  0.00    +0.126 C 
ATOM      5  C   UNL     1      34.332 -15.275 -22.380  0.00  0.00    +0.034 C 
ATOM      6  C   UNL     1      33.645 -14.287 -23.133  0.00  0.00    +0.153 C 
ATOM      7  C   UNL     1      33.453 -14.789 -24.404  0.00  0.00    +0.126 C 
ATOM      8  C   UNL     1      35.148 -17.621 -23.090  0.00  0.00    +0.247 C 
ATOM      9  C   UNL     1      34.728 -15.120 -20.964  0.00  0.00    +0.036 C 
ATOM     10  C   UNL     1      34.618 -18.035 -25.268  0.00  0.00    +0.220 C 
ENDROOT
BRANCH   6  11
ATOM     11  O   UNL     1      33.237 -13.075 -22.730  0.00  0.00    -0.472 OA
BRANCH  11  12
ATOM     12  C   UNL     1      31.990 -13.005 -22.029  0.00  0.00    +0.234 C 
BRANCH  12  13
ATOM     13  C   UNL     1      31.531 -11.554 -21.978  0.00  0.00    +0.154 C 
ATOM     14  C   UNL     1      31.448 -11.047 -20.547  0.00  0.00    +0.036 C 
BRANCH  13  15
ATOM     15  O   UNL     1      32.475 -10.760 -22.696  0.00  0.00    -0.381 OA
ATOM     16  H   UNL     1      32.013 -10.037 -23.147  0.00  0.00    +0.210 HD
ENDBRANCH  13  15
ENDBRANCH  12  13
ENDBRANCH  11  12
ENDBRANCH   6  11
BRANCH   8  17
ATOM     17  O   UNL     1      35.684 -17.944 -21.891  0.00  0.00    -0.433 OA
BRANCH  17  22
ATOM     18  F   UNL     1      36.888 -19.972 -20.483  0.00  0.00    -0.201 F 
ATOM     19  N   UNL     1      32.840 -21.772 -19.186  0.00  0.00    -0.316 N 
ATOM     20  C   UNL     1      34.759 -20.847 -19.850  0.00  0.00    +0.045 C 
ATOM     21  C   UNL     1      33.368 -20.732 -19.918  0.00  0.00    +0.050 C 
ATOM     22  C   UNL     1      34.925 -18.868 -21.237  0.00  0.00    +0.175 C 
ATOM     23  C   UNL     1      33.845 -22.538 -18.659  0.00  0.00    +0.026 C 
ATOM     24  C   UNL     1      35.551 -19.896 -20.524  0.00  0.00    +0.176 C 
ATOM     25  C   UNL     1      35.044 -21.991 -19.054  0.00  0.00    +0.014 C 
ATOM     26  C   UNL     1      32.728 -19.709 -20.627  0.00  0.00    +0.018 C 
ATOM     27  C   UNL     1      33.535 -18.778 -21.287  0.00  0.00    +0.041 C 
ATOM     28  C   UNL     1      33.553 -23.721 -17.829  0.00  0.00    +0.047 C 
ATOM     29  H   UNL     1      31.878 -21.939 -19.059  0.00  0.00    +0.152 HD
ENDBRANCH  17  22
ENDBRANCH   8  17
TORSDOF 6
ENDMDL
MODEL 3
REMARK VINA RESULT:     -11.1      1.049      1.516
REMARK  Name = 11234052
REMARK  6 active torsions:
REMARK  status: ('A' for Active; 'I' for Inactive)
REMARK    1  A    between atoms: C_6  and  O_11
REMARK    2  A    between atoms: C_8  and  O_17
REMARK    3  A    between atoms: O_11  and  C_12
REMARK    4  A    between atoms: C_12  and  C_13
REMARK    5  A    between atoms: C_13  and  O_15
REMARK    6  A    between atoms: O_17  and  C_22
REMARK                            x       y       z     vdW  Elec       q    Type
REMARK                         _______ _______ _______ _____ _____    ______ ____
ROOT
ATOM      1  N   UNL     1      34.192 -15.450 -22.579  0.00  0.00    -0.180 N 
ATOM      2  N   UNL     1      34.234 -15.000 -21.295  0.00  0.00    -0.151 NA
ATOM      3  N   UNL     1      35.215 -17.131 -20.710  0.00  0.00    -0.187 NA
ATOM      4  C   UNL     1      34.634 -16.689 -22.965  0.00  0.00    +0.126 C 
ATOM      5  C   UNL     1      34.446 -16.815 -24.322  0.00  0.00    +0.034 C 
ATOM      6  C   UNL     1      33.865 -15.600 -24.771  0.00  0.00    +0.153 C 
ATOM      7  C   UNL     1      33.719 -14.776 -23.675  0.00  0.00    +0.126 C 
ATOM      8  C   UNL     1      35.159 -17.522 -21.941  0.00  0.00    +0.247 C 
ATOM      9  C   UNL     1      34.764 -17.962 -25.197  0.00  0.00    +0.036 C 
ATOM     10  C   UNL     1      34.737 -15.856 -20.444  0.00  0.00    +0.220 C 
ENDROOT
BRANCH   6  11
ATOM     11  O   UNL     1      33.506 -15.267 -26.020  0.00  0.00    -0.472 OA
BRANCH  11  12
ATOM     12  C   UNL     1      32.538 -14.223 -26.165  0.00  0.00    +0.234 C 
BRANCH  12  13
ATOM     13  C   UNL     1      33.125 -13.120 -27.037  0.00  0.00    +0.154 C 
ATOM     14  C   UNL     1      33.797 -12.046 -26.198  0.00  0.00    +0.036 C 
BRANCH  13  15
ATOM     15  O   UNL     1      34.096 -13.705 -27.905  0.00  0.00    -0.381 OA
ATOM     16  H   UNL     1      34.148 -13.191 -28.725  0.00  0.00    +0.210 HD
ENDBRANCH  13  15
ENDBRANCH  12  13
ENDBRANCH  11  12
ENDBRANCH   6  11
BRANCH   8  17
ATOM     17  O   UNL     1      35.603 -18.750 -22.295  0.00  0.00    -0.433 OA
BRANCH  17  22
ATOM     18  F   UNL     1      33.163 -19.771 -21.556  0.00  0.00    -0.201 F 
ATOM     19  N   UNL     1      35.003 -22.303 -18.163  0.00  0.00    -0.316 N 
ATOM     20  C   UNL     1      34.183 -21.054 -19.820  0.00  0.00    +0.045 C 
ATOM     21  C   UNL     1      35.358 -21.416 -19.155  0.00  0.00    +0.050 C 
ATOM     22  C   UNL     1      35.515 -19.631 -21.259  0.00  0.00    +0.175 C 
ATOM     23  C   UNL     1      33.650 -22.514 -18.178  0.00  0.00    +0.026 C 
ATOM     24  C   UNL     1      34.266 -20.143 -20.893  0.00  0.00    +0.176 C 
ATOM     25  C   UNL     1      33.116 -21.754 -19.192  0.00  0.00    +0.014 C 
ATOM     26  C   UNL     1      36.614 -20.912 -19.511  0.00  0.00    +0.018 C 
ATOM     27  C   UNL     1      36.670 -20.010 -20.577  0.00  0.00    +0.041 C 
ATOM     28  C   UNL     1      33.006 -23.426 -17.215  0.00  0.00    +0.047 C 
ATOM     29  H   UNL     1      35.633 -22.725 -17.535  0.00  0.00    +0.152 HD
ENDBRANCH  17  22
ENDBRANCH   8  17
TORSDOF 6
ENDMDL
MODEL 4
REMARK VINA RESULT:     -10.7      2.230      3.113
REMARK  Name = 11234052
REMARK  6 active torsions:
REMARK  status: ('A' for Active; 'I' for Inactive)
REMARK    1  A    between atoms: C_6  and  O_11
REMARK    2  A    between atoms: C_8  and  O_17
REMARK    3  A    between atoms: O_11  and  C_12
REMARK    4  A    between atoms: C_12  and  C_13
REMARK    5  A    between atoms: C_13  and  O_15
REMARK    6  A    between atoms: O_17  and  C_22
REMARK                            x       y       z     vdW  Elec       q    Type
REMARK                         _______ _______ _______ _____ _____    ______ ____
ROOT
ATOM      1  N   UNL     1      33.921 -16.174 -24.969  0.00  0.00    -0.180 N 
ATOM      2  N   UNL     1      33.989 -17.323 -25.696  0.00  0.00    -0.151 NA
ATOM      3  N   UNL     1      35.070 -18.326 -23.780  0.00  0.00    -0.187 NA
ATOM      4  C   UNL     1      34.396 -16.055 -23.689  0.00  0.00    +0.126 C 
ATOM      5  C   UNL     1      34.168 -14.769 -23.257  0.00  0.00    +0.034 C 
ATOM      6  C   UNL     1      33.528 -14.085 -24.324  0.00  0.00    +0.153 C 
ATOM      7  C   UNL     1      33.388 -14.976 -25.368  0.00  0.00    +0.126 C 
ATOM      8  C   UNL     1      34.987 -17.216 -23.122  0.00  0.00    +0.247 C 
ATOM      9  C   UNL     1      34.499 -14.158 -21.953  0.00  0.00    +0.036 C 
ATOM     10  C   UNL     1      34.552 -18.322 -25.067  0.00  0.00    +0.220 C 
ENDROOT
BRANCH   6  11
ATOM     11  O   UNL     1      33.115 -12.809 -24.358  0.00  0.00    -0.472 OA
BRANCH  11  12
ATOM     12  C   UNL     1      33.866 -11.902 -25.173  0.00  0.00    +0.234 C 
BRANCH  12  13
ATOM     13  C   UNL     1      33.914 -10.543 -24.486  0.00  0.00    +0.154 C 
ATOM     14  C   UNL     1      32.942 -10.475 -23.318  0.00  0.00    +0.036 C 
BRANCH  13  15
ATOM     15  O   UNL     1      35.238 -10.334 -23.997  0.00  0.00    -0.381 OA
ATOM     16  H   UNL     1      35.199  -9.912 -23.126  0.00  0.00    +0.210 HD
ENDBRANCH  13  15
ENDBRANCH  12  13
ENDBRANCH  11  12
ENDBRANCH   6  11
BRANCH   8  17
ATOM     17  O   UNL     1      35.464 -17.126 -21.859  0.00  0.00    -0.433 OA
BRANCH  17  22
ATOM     18  F   UNL     1      33.130 -18.319 -21.036  0.00  0.00    -0.201 F 
ATOM     19  N   UNL     1      35.346 -22.020 -19.389  0.00  0.00    -0.316 N 
ATOM     20  C   UNL     1      34.342 -20.202 -20.206  0.00  0.00    +0.045 C 
ATOM     21  C   UNL     1      35.582 -20.817 -20.016  0.00  0.00    +0.050 C 
ATOM     22  C   UNL     1      35.496 -18.345 -21.249  0.00  0.00    +0.175 C 
ATOM     23  C   UNL     1      34.003 -22.186 -19.177  0.00  0.00    +0.026 C 
ATOM     24  C   UNL     1      34.300 -18.941 -20.835  0.00  0.00    +0.176 C 
ATOM     25  C   UNL     1      33.356 -21.078 -19.672  0.00  0.00    +0.014 C 
ATOM     26  C   UNL     1      36.786 -20.232 -20.425  0.00  0.00    +0.018 C 
ATOM     27  C   UNL     1      36.719 -18.981 -21.046  0.00  0.00    +0.041 C 
ATOM     28  C   UNL     1      33.476 -23.396 -18.519  0.00  0.00    +0.047 C 
ATOM     29  H   UNL     1      36.042 -22.666 -19.132  0.00  0.00    +0.152 HD
ENDBRANCH  17  22
ENDBRANCH   8  17
TORSDOF 6
ENDMDL
MODEL 5
REMARK VINA RESULT:     -10.6      3.839      9.290
REMARK  Name = 11234052
REMARK  6 active torsions:
REMARK  status: ('A' for Active; 'I' for Inactive)
REMARK    1  A    between atoms: C_6  and  O_11
REMARK    2  A    between atoms: C_8  and  O_17
REMARK    3  A    between atoms: O_11  and  C_12
REMARK    4  A    between atoms: C_12  and  C_13
REMARK    5  A    between atoms: C_13  and  O_15
REMARK    6  A    between atoms: O_17  and  C_22
REMARK                            x       y       z     vdW  Elec       q    Type
REMARK                         _______ _______ _______ _____ _____    ______ ____
ROOT
ATOM      1  N   UNL     1      34.009 -16.137 -25.149  0.00  0.00    -0.180 N 
ATOM      2  N   UNL     1      33.546 -15.761 -26.373  0.00  0.00    -0.151 NA
ATOM      3  N   UNL     1      32.607 -13.817 -25.285  0.00  0.00    -0.187 NA
ATOM      4  C   UNL     1      33.804 -15.412 -24.003  0.00  0.00    +0.126 C 
ATOM      5  C   UNL     1      34.401 -16.075 -22.956  0.00  0.00    +0.034 C 
ATOM      6  C   UNL     1      34.990 -17.249 -23.495  0.00  0.00    +0.153 C 
ATOM      7  C   UNL     1      34.733 -17.262 -24.850  0.00  0.00    +0.126 C 
ATOM      8  C   UNL     1      33.063 -14.208 -24.139  0.00  0.00    +0.247 C 
ATOM      9  C   UNL     1      34.454 -15.693 -21.530  0.00  0.00    +0.036 C 
ATOM     10  C   UNL     1      32.880 -14.636 -26.371  0.00  0.00    +0.220 C 
ENDROOT
BRANCH   6  11
ATOM     11  O   UNL     1      35.680 -18.200 -22.848  0.00  0.00    -0.472 OA
BRANCH  11  12
ATOM     12  C   UNL     1      34.965 -19.380 -22.464  0.00  0.00    +0.234 C 
BRANCH  12  13
ATOM     13  C   UNL     1      34.648 -19.305 -20.976  0.00  0.00    +0.154 C 
ATOM     14  C   UNL     1      33.426 -20.139 -20.625  0.00  0.00    +0.036 C 
BRANCH  13  15
ATOM     15  O   UNL     1      35.773 -19.805 -20.253  0.00  0.00    -0.381 OA
ATOM     16  H   UNL     1      35.577 -20.696 -19.926  0.00  0.00    +0.210 HD
ENDBRANCH  13  15
ENDBRANCH  12  13
ENDBRANCH  11  12
ENDBRANCH   6  11
BRANCH   8  17
ATOM     17  O   UNL     1      32.847 -13.473 -23.024  0.00  0.00    -0.433 OA
BRANCH  17  22
ATOM     18  F   UNL     1      31.132 -11.627 -21.931  0.00  0.00    -0.201 F 
ATOM     19  N   UNL     1      33.392  -8.077 -23.829  0.00  0.00    -0.316 N 
ATOM     20  C   UNL     1      32.350  -9.841 -22.943  0.00  0.00    +0.045 C 
ATOM     21  C   UNL     1      33.425  -9.452 -23.747  0.00  0.00    +0.050 C 
ATOM     22  C   UNL     1      33.032 -12.143 -23.259  0.00  0.00    +0.175 C 
ATOM     23  C   UNL     1      32.337  -7.586 -23.107  0.00  0.00    +0.026 C 
ATOM     24  C   UNL     1      32.151 -11.214 -22.696  0.00  0.00    +0.176 C 
ATOM     25  C   UNL     1      31.673  -8.653 -22.548  0.00  0.00    +0.014 C 
ATOM     26  C   UNL     1      34.314 -10.370 -24.316  0.00  0.00    +0.018 C 
ATOM     27  C   UNL     1      34.096 -11.726 -24.057  0.00  0.00    +0.041 C 
ATOM     28  C   UNL     1      32.073  -6.137 -23.027  0.00  0.00    +0.047 C 
ATOM     29  H   UNL     1      34.035  -7.529 -24.332  0.00  0.00    +0.152 HD
ENDBRANCH  17  22
ENDBRANCH   8  17
TORSDOF 6
ENDMDL
MODEL 6
REMARK VINA RESULT:     -10.5      4.209     10.533
REMARK  Name = 11234052
REMARK  6 active torsions:
REMARK  status: ('A' for Active; 'I' for Inactive)
REMARK    1  A    between atoms: C_6  and  O_11
REMARK    2  A    between atoms: C_8  and  O_17
REMARK    3  A    between atoms: O_11  and  C_12
REMARK    4  A    between atoms: C_12  and  C_13
REMARK    5  A    between atoms: C_13  and  O_15
REMARK    6  A    between atoms: O_17  and  C_22
REMARK                            x       y       z     vdW  Elec       q    Type
REMARK                         _______ _______ _______ _____ _____    ______ ____
ROOT
ATOM      1  N   UNL     1      33.711 -23.298 -15.346  0.00  0.00    -0.180 N 
ATOM      2  N   UNL     1      32.379 -23.439 -15.592  0.00  0.00    -0.151 NA
ATOM      3  N   UNL     1      32.898 -23.089 -17.927  0.00  0.00    -0.187 NA
ATOM      4  C   UNL     1      34.643 -23.060 -16.323  0.00  0.00    +0.126 C 
ATOM      5  C   UNL     1      35.882 -22.974 -15.731  0.00  0.00    +0.034 C 
ATOM      6  C   UNL     1      35.687 -23.167 -14.338  0.00  0.00    +0.153 C 
ATOM      7  C   UNL     1      34.338 -23.365 -14.128  0.00  0.00    +0.126 C 
ATOM      8  C   UNL     1      34.155 -22.961 -17.653  0.00  0.00    +0.247 C 
ATOM      9  C   UNL     1      37.195 -22.729 -16.364  0.00  0.00    +0.036 C 
ATOM     10  C   UNL     1      32.053 -23.327 -16.853  0.00  0.00    +0.220 C 
ENDROOT
BRANCH   6  11
ATOM     11  O   UNL     1      36.610 -23.166 -13.366  0.00  0.00    -0.472 OA
BRANCH  11  12
ATOM     12  C   UNL     1      36.519 -24.197 -12.377  0.00  0.00    +0.234 C 
BRANCH  12  13
ATOM     13  C   UNL     1      37.119 -25.479 -12.941  0.00  0.00    +0.154 C 
ATOM     14  C   UNL     1      38.619 -25.346 -13.152  0.00  0.00    +0.036 C 
BRANCH  13  15
ATOM     15  O   UNL     1      36.874 -26.535 -12.012  0.00  0.00    -0.381 OA
ATOM     16  H   UNL     1      36.536 -26.164 -11.183  0.00  0.00    +0.210 HD
ENDBRANCH  13  15
ENDBRANCH  12  13
ENDBRANCH  11  12
ENDBRANCH   6  11
BRANCH   8  17
ATOM     17  O   UNL     1      35.055 -22.727 -18.637  0.00  0.00    -0.433 OA
BRANCH  17  22
ATOM     18  F   UNL     1      36.999 -21.167 -19.790  0.00  0.00    -0.201 F 
ATOM     19  N   UNL     1      33.901 -18.310 -21.673  0.00  0.00    -0.316 N 
ATOM     20  C   UNL     1      35.341 -19.732 -20.733  0.00  0.00    +0.045 C 
ATOM     21  C   UNL     1      33.984 -19.440 -20.890  0.00  0.00    +0.050 C 
ATOM     22  C   UNL     1      34.708 -21.640 -19.382  0.00  0.00    +0.175 C 
ATOM     23  C   UNL     1      35.154 -17.879 -22.016  0.00  0.00    +0.026 C 
ATOM     24  C   UNL     1      35.708 -20.854 -19.964  0.00  0.00    +0.176 C 
ATOM     25  C   UNL     1      36.066 -18.739 -21.449  0.00  0.00    +0.014 C 
ATOM     26  C   UNL     1      32.972 -20.217 -20.314  0.00  0.00    +0.018 C 
ATOM     27  C   UNL     1      33.361 -21.325 -19.555  0.00  0.00    +0.041 C 
ATOM     28  C   UNL     1      35.350 -16.683 -22.856  0.00  0.00    +0.047 C 
ATOM     29  H   UNL     1      33.061 -17.876 -21.947  0.00  0.00    +0.152 HD
ENDBRANCH  17  22
ENDBRANCH   8  17
TORSDOF 6
ENDMDL
MODEL 7
REMARK VINA RESULT:     -10.3      2.703      8.876
REMARK  Name = 11234052
REMARK  6 active torsions:
REMARK  status: ('A' for Active; 'I' for Inactive)
REMARK    1  A    between atoms: C_6  and  O_11
REMARK    2  A    between atoms: C_8  and  O_17
REMARK    3  A    between atoms: O_11  and  C_12
REMARK    4  A    between atoms: C_12  and  C_13
REMARK    5  A    between atoms: C_13  and  O_15
REMARK    6  A    between atoms: O_17  and  C_22
REMARK                            x       y       z     vdW  Elec       q    Type
REMARK                         _______ _______ _______ _____ _____    ______ ____
ROOT
ATOM      1  N   UNL     1      34.023 -21.126 -19.618  0.00  0.00    -0.180 N 
ATOM      2  N   UNL     1      32.701 -21.000 -19.919  0.00  0.00    -0.151 NA
ATOM      3  N   UNL     1      33.365 -19.416 -21.621  0.00  0.00    -0.187 NA
ATOM      4  C   UNL     1      35.019 -20.442 -20.267  0.00  0.00    +0.126 C 
ATOM      5  C   UNL     1      36.226 -20.803 -19.715  0.00  0.00    +0.034 C 
ATOM      6  C   UNL     1      35.945 -21.744 -18.690  0.00  0.00    +0.153 C 
ATOM      7  C   UNL     1      34.577 -21.924 -18.651  0.00  0.00    +0.126 C 
ATOM      8  C   UNL     1      34.611 -19.563 -21.306  0.00  0.00    +0.247 C 
ATOM      9  C   UNL     1      37.582 -20.339 -20.073  0.00  0.00    +0.036 C 
ATOM     10  C   UNL     1      32.451 -20.163 -20.892  0.00  0.00    +0.220 C 
ENDROOT
BRANCH   6  11
ATOM     11  O   UNL     1      36.812 -22.369 -17.881  0.00  0.00    -0.472 OA
BRANCH  11  12
ATOM     12  C   UNL     1      37.170 -21.702 -16.665  0.00  0.00    +0.234 C 
BRANCH  12  13
ATOM     13  C   UNL     1      37.374 -22.742 -15.571  0.00  0.00    +0.154 C 
ATOM     14  C   UNL     1      36.215 -23.723 -15.513  0.00  0.00    +0.036 C 
BRANCH  13  15
ATOM     15  O   UNL     1      38.575 -23.461 -15.854  0.00  0.00    -0.381 OA
ATOM     16  H   UNL     1      39.007 -23.708 -15.023  0.00  0.00    +0.210 HD
ENDBRANCH  13  15
ENDBRANCH  12  13
ENDBRANCH  11  12
ENDBRANCH   6  11
BRANCH   8  17
ATOM     17  O   UNL     1      35.574 -18.876 -21.963  0.00  0.00    -0.433 OA
BRANCH  17  22
ATOM     18  F   UNL     1      34.910 -18.751 -24.625  0.00  0.00    -0.201 F 
ATOM     19  N   UNL     1      33.602 -14.334 -24.316  0.00  0.00    -0.316 N 
ATOM     20  C   UNL     1      34.251 -16.467 -24.391  0.00  0.00    +0.045 C 
ATOM     21  C   UNL     1      34.103 -15.362 -23.549  0.00  0.00    +0.050 C 
ATOM     22  C   UNL     1      35.087 -17.719 -22.493  0.00  0.00    +0.175 C 
ATOM     23  C   UNL     1      33.428 -14.750 -25.609  0.00  0.00    +0.026 C 
ATOM     24  C   UNL     1      34.753 -17.668 -23.851  0.00  0.00    +0.176 C 
ATOM     25  C   UNL     1      33.821 -16.065 -25.687  0.00  0.00    +0.014 C 
ATOM     26  C   UNL     1      34.433 -15.398 -22.190  0.00  0.00    +0.018 C 
ATOM     27  C   UNL     1      34.930 -16.600 -21.677  0.00  0.00    +0.041 C 
ATOM     28  C   UNL     1      32.900 -13.839 -26.642  0.00  0.00    +0.047 C 
ATOM     29  H   UNL     1      33.397 -13.431 -23.982  0.00  0.00    +0.152 HD
ENDBRANCH  17  22
ENDBRANCH   8  17
TORSDOF 6
ENDMDL
MODEL 8
REMARK VINA RESULT:      -9.9      4.850      6.867
REMARK  Name = 11234052
REMARK  6 active torsions:
REMARK  status: ('A' for Active; 'I' for Inactive)
REMARK    1  A    between atoms: C_6  and  O_11
REMARK    2  A    between atoms: C_8  and  O_17
REMARK    3  A    between atoms: O_11  and  C_12
REMARK    4  A    between atoms: C_12  and  C_13
REMARK    5  A    between atoms: C_13  and  O_15
REMARK    6  A    between atoms: O_17  and  C_22
REMARK                            x       y       z     vdW  Elec       q    Type
REMARK                         _______ _______ _______ _____ _____    ______ ____
ROOT
ATOM      1  N   UNL     1      33.547 -10.013 -23.659  0.00  0.00    -0.180 N 
ATOM      2  N   UNL     1      34.464 -10.179 -24.651  0.00  0.00    -0.151 NA
ATOM      3  N   UNL     1      33.803 -12.504 -24.707  0.00  0.00    -0.187 NA
ATOM      4  C   UNL     1      32.761 -11.027 -23.173  0.00  0.00    +0.126 C 
ATOM      5  C   UNL     1      31.954 -10.515 -22.184  0.00  0.00    +0.034 C 
ATOM      6  C   UNL     1      32.267  -9.136 -22.069  0.00  0.00    +0.153 C 
ATOM      7  C   UNL     1      33.254  -8.853 -22.991  0.00  0.00    +0.126 C 
ATOM      8  C   UNL     1      32.942 -12.307 -23.762  0.00  0.00    +0.247 C 
ATOM      9  C   UNL     1      30.940 -11.212 -21.365  0.00  0.00    +0.036 C 
ATOM     10  C   UNL     1      34.538 -11.400 -25.113  0.00  0.00    +0.220 C 
ENDROOT
BRANCH   6  11
ATOM     11  O   UNL     1      31.732  -8.233 -21.234  0.00  0.00    -0.472 OA
BRANCH  11  12
ATOM     12  C   UNL     1      32.111  -6.865 -21.421  0.00  0.00    +0.234 C 
BRANCH  12  13
ATOM     13  C   UNL     1      31.116  -6.199 -22.363  0.00  0.00    +0.154 C 
ATOM     14  C   UNL     1      30.310  -5.124 -21.652  0.00  0.00    +0.036 C 
BRANCH  13  15
ATOM     15  O   UNL     1      31.845  -5.599 -23.434  0.00  0.00    -0.381 OA
ATOM     16  H   UNL     1      32.683  -5.248 -23.097  0.00  0.00    +0.210 HD
ENDBRANCH  13  15
ENDBRANCH  12  13
ENDBRANCH  11  12
ENDBRANCH   6  11
BRANCH   8  17
ATOM     17  O   UNL     1      32.178 -13.324 -23.301  0.00  0.00    -0.433 OA
BRANCH  17  22
ATOM     18  F   UNL     1      33.370 -15.475 -24.525  0.00  0.00    -0.201 F 
ATOM     19  N   UNL     1      35.179 -17.006 -20.563  0.00  0.00    -0.316 N 
ATOM     20  C   UNL     1      34.274 -16.208 -22.440  0.00  0.00    +0.045 C 
ATOM     21  C   UNL     1      34.400 -15.988 -21.066  0.00  0.00    +0.050 C 
ATOM     22  C   UNL     1      32.913 -14.208 -22.569  0.00  0.00    +0.175 C 
ATOM     23  C   UNL     1      35.549 -17.859 -21.569  0.00  0.00    +0.026 C 
ATOM     24  C   UNL     1      33.515 -15.299 -23.205  0.00  0.00    +0.176 C 
ATOM     25  C   UNL     1      35.003 -17.392 -22.742  0.00  0.00    +0.014 C 
ATOM     26  C   UNL     1      33.804 -14.901 -20.417  0.00  0.00    +0.018 C 
ATOM     27  C   UNL     1      33.056 -14.014 -21.196  0.00  0.00    +0.041 C 
ATOM     28  C   UNL     1      36.390 -19.040 -21.301  0.00  0.00    +0.047 C 
ATOM     29  H   UNL     1      35.434 -17.105 -19.618  0.00  0.00    +0.152 HD
ENDBRANCH  17  22
ENDBRANCH   8  17
TORSDOF 6
ENDMDL
MODEL 9
REMARK VINA RESULT:      -9.7      4.066      9.757
REMARK  Name = 11234052
REMARK  6 active torsions:
REMARK  status: ('A' for Active; 'I' for Inactive)
REMARK    1  A    between atoms: C_6  and  O_11
REMARK    2  A    between atoms: C_8  and  O_17
REMARK    3  A    between atoms: O_11  and  C_12
REMARK    4  A    between atoms: C_12  and  C_13
REMARK    5  A    between atoms: C_13  and  O_15
REMARK    6  A    between atoms: O_17  and  C_22
REMARK                            x       y       z     vdW  Elec       q    Type
REMARK                         _______ _______ _______ _____ _____    ______ ____
ROOT
ATOM      1  N   UNL     1      35.677 -22.512 -15.588  0.00  0.00    -0.180 N 
ATOM      2  N   UNL     1      36.903 -21.925 -15.507  0.00  0.00    -0.151 NA
ATOM      3  N   UNL     1      36.875 -21.815 -17.922  0.00  0.00    -0.187 NA
ATOM      4  C   UNL     1      35.031 -22.762 -16.772  0.00  0.00    +0.126 C 
ATOM      5  C   UNL     1      33.824 -23.359 -16.491  0.00  0.00    +0.034 C 
ATOM      6  C   UNL     1      33.740 -23.473 -15.079  0.00  0.00    +0.153 C 
ATOM      7  C   UNL     1      34.897 -22.942 -14.547  0.00  0.00    +0.126 C 
ATOM      8  C   UNL     1      35.710 -22.375 -17.958  0.00  0.00    +0.247 C 
ATOM      9  C   UNL     1      32.778 -23.816 -17.430  0.00  0.00    +0.036 C 
ATOM     10  C   UNL     1      37.425 -21.614 -16.664  0.00  0.00    +0.220 C 
ENDROOT
BRANCH   6  11
ATOM     11  O   UNL     1      32.742 -23.992 -14.349  0.00  0.00    -0.472 OA
BRANCH  11  12
ATOM     12  C   UNL     1      31.701 -23.099 -13.936  0.00  0.00    +0.234 C 
BRANCH  12  13
ATOM     13  C   UNL     1      30.413 -23.891 -13.754  0.00  0.00    +0.154 C 
ATOM     14  C   UNL     1      29.931 -24.479 -15.070  0.00  0.00    +0.036 C 
BRANCH  13  15
ATOM     15  O   UNL     1      30.665 -24.954 -12.837  0.00  0.00    -0.381 OA
ATOM     16  H   UNL     1      31.108 -24.604 -12.049  0.00  0.00    +0.210 HD
ENDBRANCH  13  15
ENDBRANCH  12  13
ENDBRANCH  11  12
ENDBRANCH   6  11
BRANCH   8  17
ATOM     17  O   UNL     1      35.094 -22.610 -19.140  0.00  0.00    -0.433 OA
BRANCH  17  22
ATOM     18  F   UNL     1      36.948 -21.068 -20.454  0.00  0.00    -0.201 F 
ATOM     19  N   UNL     1      33.800 -17.907 -21.643  0.00  0.00    -0.316 N 
ATOM     20  C   UNL     1      35.267 -19.474 -21.033  0.00  0.00    +0.045 C 
ATOM     21  C   UNL     1      33.923 -19.099 -20.964  0.00  0.00    +0.050 C 
ATOM     22  C   UNL     1      34.714 -21.449 -19.745  0.00  0.00    +0.175 C 
ATOM     23  C   UNL     1      35.016 -17.517 -22.137  0.00  0.00    +0.026 C 
ATOM     24  C   UNL     1      35.668 -20.673 -20.411  0.00  0.00    +0.176 C 
ATOM     25  C   UNL     1      35.944 -18.467 -21.776  0.00  0.00    +0.014 C 
ATOM     26  C   UNL     1      32.957 -19.865 -20.302  0.00  0.00    +0.018 C 
ATOM     27  C   UNL     1      33.380 -21.050 -19.691  0.00  0.00    +0.041 C 
ATOM     28  C   UNL     1      35.165 -16.269 -22.908  0.00  0.00    +0.047 C 
ATOM     29  H   UNL     1      32.960 -17.408 -21.756  0.00  0.00    +0.152 HD
ENDBRANCH  17  22
ENDBRANCH   8  17
TORSDOF 6
ENDMDL
