MODEL 1
REMARK VINA RESULT:      -8.5      0.000      0.000
REMARK  Name = 3037
REMARK  4 active torsions:
REMARK  status: ('A' for Active; 'I' for Inactive)
REMARK    1  A    between atoms: C_1  and  C_3
REMARK    2  A    between atoms: C_1  and  C_12
REMARK    3  A    between atoms: C_4  and  O_9
REMARK    4  A    between atoms: C_13  and  O_18
REMARK                            x       y       z     vdW  Elec       q    Type
REMARK                         _______ _______ _______ _____ _____    ______ ____
ROOT
ATOM      1  C   UNL     1      35.297 -18.032 -23.701  0.00  0.00    +0.059 C 
ENDROOT
BRANCH   1   3
ATOM      2 CL   UNL     1      33.196 -14.468 -20.565  0.00  0.00    -0.082 Cl
ATOM      3  C   UNL     1      34.552 -16.746 -23.561  0.00  0.00    +0.017 C 
ATOM      4  C   UNL     1      34.152 -16.027 -24.688  0.00  0.00    +0.130 C 
ATOM      5  C   UNL     1      34.256 -16.264 -22.286  0.00  0.00    +0.010 C 
ATOM      6  C   UNL     1      33.457 -14.827 -24.540  0.00  0.00    +0.037 C 
ATOM      7  C   UNL     1      33.561 -15.063 -22.138  0.00  0.00    +0.058 C 
ATOM      8  C   UNL     1      33.161 -14.346 -23.265  0.00  0.00    +0.014 C 
BRANCH   4   9
ATOM      9  O   UNL     1      34.433 -16.484 -25.941  0.00  0.00    -0.506 OA
ATOM     10  H   UNL     1      34.414 -17.403 -26.119  0.00  0.00    +0.292 HD
ENDBRANCH   4   9
ENDBRANCH   1   3
BRANCH   1  12
ATOM     11 CL   UNL     1      32.944 -20.877 -20.051  0.00  0.00    -0.082 Cl
ATOM     12  C   UNL     1      35.408 -18.820 -22.412  0.00  0.00    +0.017 C 
ATOM     13  C   UNL     1      36.633 -18.940 -21.780  0.00  0.00    +0.130 C 
ATOM     14  C   UNL     1      34.266 -19.407 -21.896  0.00  0.00    +0.010 C 
ATOM     15  C   UNL     1      36.718 -19.670 -20.594  0.00  0.00    +0.037 C 
ATOM     16  C   UNL     1      34.351 -20.138 -20.710  0.00  0.00    +0.058 C 
ATOM     17  C   UNL     1      35.578 -20.269 -20.059  0.00  0.00    +0.014 C 
BRANCH  13  18
ATOM     18  O   UNL     1      37.757 -18.364 -22.288  0.00  0.00    -0.506 OA
ATOM     19  H   UNL     1      37.725 -17.921 -23.114  0.00  0.00    +0.292 HD
ENDBRANCH  13  18
ENDBRANCH   1  12
TORSDOF 4
ENDMDL
MODEL 2
REMARK VINA RESULT:      -8.5      0.009      5.293
REMARK  Name = 3037
REMARK  4 active torsions:
REMARK  status: ('A' for Active; 'I' for Inactive)
REMARK    1  A    between atoms: C_1  and  C_3
REMARK    2  A    between atoms: C_1  and  C_12
REMARK    3  A    between atoms: C_4  and  O_9
REMARK    4  A    between atoms: C_13  and  O_18
REMARK                            x       y       z     vdW  Elec       q    Type
REMARK                         _______ _______ _______ _____ _____    ______ ____
ROOT
ATOM      1  C   UNL     1      35.299 -18.033 -23.696  0.00  0.00    +0.059 C 
ENDROOT
BRANCH   1   3
ATOM      2 CL   UNL     1      32.943 -20.875 -20.045  0.00  0.00    -0.082 Cl
ATOM      3  C   UNL     1      35.408 -18.809 -22.425  0.00  0.00    +0.017 C 
ATOM      4  C   UNL     1      36.634 -18.943 -21.774  0.00  0.00    +0.130 C 
ATOM      5  C   UNL     1      34.266 -19.407 -21.891  0.00  0.00    +0.010 C 
ATOM      6  C   UNL     1      36.720 -19.673 -20.589  0.00  0.00    +0.037 C 
ATOM      7  C   UNL     1      34.351 -20.137 -20.705  0.00  0.00    +0.058 C 
ATOM      8  C   UNL     1      35.578 -20.270 -20.054  0.00  0.00    +0.014 C 
BRANCH   4   9
ATOM      9  O   UNL     1      37.759 -18.366 -22.283  0.00  0.00    -0.506 OA
ATOM     10  H   UNL     1      38.202 -18.763 -23.007  0.00  0.00    +0.292 HD
ENDBRANCH   4   9
ENDBRANCH   1   3
BRANCH   1  12
ATOM     11 CL   UNL     1      33.204 -14.463 -20.562  0.00  0.00    -0.082 Cl
ATOM     12  C   UNL     1      34.543 -16.728 -23.554  0.00  0.00    +0.017 C 
ATOM     13  C   UNL     1      34.153 -16.031 -24.684  0.00  0.00    +0.130 C 
ATOM     14  C   UNL     1      34.261 -16.262 -22.282  0.00  0.00    +0.010 C 
ATOM     15  C   UNL     1      33.458 -14.830 -24.537  0.00  0.00    +0.037 C 
ATOM     16  C   UNL     1      33.566 -15.061 -22.134  0.00  0.00    +0.058 C 
ATOM     17  C   UNL     1      33.165 -14.345 -23.263  0.00  0.00    +0.014 C 
BRANCH  13  18
ATOM     18  O   UNL     1      34.432 -16.488 -25.936  0.00  0.00    -0.506 OA
ATOM     19  H   UNL     1      34.041 -17.282 -26.243  0.00  0.00    +0.292 HD
ENDBRANCH  13  18
ENDBRANCH   1  12
TORSDOF 4
ENDMDL
MODEL 3
REMARK VINA RESULT:      -8.2      3.207      6.846
REMARK  Name = 3037
REMARK  4 active torsions:
REMARK  status: ('A' for Active; 'I' for Inactive)
REMARK    1  A    between atoms: C_1  and  C_3
REMARK    2  A    between atoms: C_1  and  C_12
REMARK    3  A    between atoms: C_4  and  O_9
REMARK    4  A    between atoms: C_13  and  O_18
REMARK                            x       y       z     vdW  Elec       q    Type
REMARK                         _______ _______ _______ _____ _____    ______ ____
ROOT
ATOM      1  C   UNL     1      32.520 -14.042 -24.532  0.00  0.00    +0.059 C 
ENDROOT
BRANCH   1   3
ATOM      2 CL   UNL     1      34.999 -16.534 -20.712  0.00  0.00    -0.082 Cl
ATOM      3  C   UNL     1      33.457 -15.131 -24.126  0.00  0.00    +0.017 C 
ATOM      4  C   UNL     1      34.031 -15.971 -25.081  0.00  0.00    +0.130 C 
ATOM      5  C   UNL     1      33.756 -15.305 -22.775  0.00  0.00    +0.010 C 
ATOM      6  C   UNL     1      34.904 -16.984 -24.686  0.00  0.00    +0.037 C 
ATOM      7  C   UNL     1      34.630 -16.319 -22.379  0.00  0.00    +0.058 C 
ATOM      8  C   UNL     1      35.203 -17.157 -23.334  0.00  0.00    +0.014 C 
BRANCH   4   9
ATOM      9  O   UNL     1      33.748 -15.815 -26.405  0.00  0.00    -0.506 OA
ATOM     10  H   UNL     1      33.626 -16.568 -26.950  0.00  0.00    +0.292 HD
ENDBRANCH   4   9
ENDBRANCH   1   3
BRANCH   1  12
ATOM     11 CL   UNL     1      35.728 -10.318 -26.202  0.00  0.00    -0.082 Cl
ATOM     12  C   UNL     1      33.081 -12.648 -24.347  0.00  0.00    +0.017 C 
ATOM     13  C   UNL     1      32.647 -11.864 -23.292  0.00  0.00    +0.130 C 
ATOM     14  C   UNL     1      34.026 -12.190 -25.248  0.00  0.00    +0.010 C 
ATOM     15  C   UNL     1      33.174 -10.581 -23.135  0.00  0.00    +0.037 C 
ATOM     16  C   UNL     1      34.553 -10.907 -25.092  0.00  0.00    +0.058 C 
ATOM     17  C   UNL     1      34.126 -10.103 -24.035  0.00  0.00    +0.014 C 
BRANCH  13  18
ATOM     18  O   UNL     1      31.716 -12.313 -22.405  0.00  0.00    -0.506 OA
ATOM     19  H   UNL     1      31.983 -12.617 -21.559  0.00  0.00    +0.292 HD
ENDBRANCH  13  18
ENDBRANCH   1  12
TORSDOF 4
ENDMDL
MODEL 4
REMARK VINA RESULT:      -8.2      3.208      5.107
REMARK  Name = 3037
REMARK  4 active torsions:
REMARK  status: ('A' for Active; 'I' for Inactive)
REMARK    1  A    between atoms: C_1  and  C_3
REMARK    2  A    between atoms: C_1  and  C_12
REMARK    3  A    between atoms: C_4  and  O_9
REMARK    4  A    between atoms: C_13  and  O_18
REMARK                            x       y       z     vdW  Elec       q    Type
REMARK                         _______ _______ _______ _____ _____    ______ ____
ROOT
ATOM      1  C   UNL     1      32.538 -14.034 -24.569  0.00  0.00    +0.059 C 
ENDROOT
BRANCH   1   3
ATOM      2 CL   UNL     1      35.736 -10.293 -26.221  0.00  0.00    -0.082 Cl
ATOM      3  C   UNL     1      33.092 -12.661 -24.376  0.00  0.00    +0.017 C 
ATOM      4  C   UNL     1      32.670 -11.865 -23.311  0.00  0.00    +0.130 C 
ATOM      5  C   UNL     1      34.040 -12.175 -25.276  0.00  0.00    +0.010 C 
ATOM      6  C   UNL     1      33.196 -10.584 -23.145  0.00  0.00    +0.037 C 
ATOM      7  C   UNL     1      34.567 -10.893 -25.111  0.00  0.00    +0.058 C 
ATOM      8  C   UNL     1      34.145 -10.098 -24.045  0.00  0.00    +0.014 C 
BRANCH   4   9
ATOM      9  O   UNL     1      31.744 -12.324 -22.422  0.00  0.00    -0.506 OA
ATOM     10  H   UNL     1      31.476 -11.784 -21.704  0.00  0.00    +0.292 HD
ENDBRANCH   4   9
ENDBRANCH   1   3
BRANCH   1  12
ATOM     11 CL   UNL     1      34.972 -16.496 -20.700  0.00  0.00    -0.082 Cl
ATOM     12  C   UNL     1      33.477 -15.140 -24.136  0.00  0.00    +0.017 C 
ATOM     13  C   UNL     1      34.037 -15.980 -25.083  0.00  0.00    +0.130 C 
ATOM     14  C   UNL     1      33.753 -15.284 -22.787  0.00  0.00    +0.010 C 
ATOM     15  C   UNL     1      34.900 -16.995 -24.668  0.00  0.00    +0.037 C 
ATOM     16  C   UNL     1      34.616 -16.299 -22.372  0.00  0.00    +0.058 C 
ATOM     17  C   UNL     1      35.189 -17.154 -23.313  0.00  0.00    +0.014 C 
BRANCH  13  18
ATOM     18  O   UNL     1      33.764 -15.840 -26.410  0.00  0.00    -0.506 OA
ATOM     19  H   UNL     1      33.006 -16.249 -26.778  0.00  0.00    +0.292 HD
ENDBRANCH  13  18
ENDBRANCH   1  12
TORSDOF 4
ENDMDL
MODEL 5
REMARK VINA RESULT:      -8.2      2.442      5.786
REMARK  Name = 3037
REMARK  4 active torsions:
REMARK  status: ('A' for Active; 'I' for Inactive)
REMARK    1  A    between atoms: C_1  and  C_3
REMARK    2  A    between atoms: C_1  and  C_12
REMARK    3  A    between atoms: C_4  and  O_9
REMARK    4  A    between atoms: C_13  and  O_18
REMARK                            x       y       z     vdW  Elec       q    Type
REMARK                         _______ _______ _______ _____ _____    ______ ____
ROOT
ATOM      1  C   UNL     1      34.930 -15.544 -21.145  0.00  0.00    +0.059 C 
ENDROOT
BRANCH   1   3
ATOM      2 CL   UNL     1      33.018 -20.326 -20.495  0.00  0.00    -0.082 Cl
ATOM      3  C   UNL     1      34.735 -16.918 -21.695  0.00  0.00    +0.017 C 
ATOM      4  C   UNL     1      35.225 -17.258 -22.956  0.00  0.00    +0.130 C 
ATOM      5  C   UNL     1      34.052 -17.867 -20.934  0.00  0.00    +0.010 C 
ATOM      6  C   UNL     1      35.033 -18.546 -23.456  0.00  0.00    +0.037 C 
ATOM      7  C   UNL     1      33.860 -19.155 -21.433  0.00  0.00    +0.058 C 
ATOM      8  C   UNL     1      34.351 -19.494 -22.694  0.00  0.00    +0.014 C 
BRANCH   4   9
ATOM      9  O   UNL     1      35.893 -16.343 -23.713  0.00  0.00    -0.506 OA
ATOM     10  H   UNL     1      36.830 -16.355 -23.744  0.00  0.00    +0.292 HD
ENDBRANCH   4   9
ENDBRANCH   1   3
BRANCH   1  12
ATOM     11 CL   UNL     1      33.760 -12.118 -24.866  0.00  0.00    -0.082 Cl
ATOM     12  C   UNL     1      33.958 -14.520 -21.692  0.00  0.00    +0.017 C 
ATOM     13  C   UNL     1      32.786 -14.247 -21.009  0.00  0.00    +0.130 C 
ATOM     14  C   UNL     1      34.273 -13.876 -22.876  0.00  0.00    +0.010 C 
ATOM     15  C   UNL     1      31.901 -13.301 -21.527  0.00  0.00    +0.037 C 
ATOM     16  C   UNL     1      33.388 -12.930 -23.394  0.00  0.00    +0.058 C 
ATOM     17  C   UNL     1      32.202 -12.643 -22.719  0.00  0.00    +0.014 C 
BRANCH  13  18
ATOM     18  O   UNL     1      32.475 -14.881 -19.845  0.00  0.00    -0.506 OA
ATOM     19  H   UNL     1      32.873 -15.704 -19.639  0.00  0.00    +0.292 HD
ENDBRANCH  13  18
ENDBRANCH   1  12
TORSDOF 4
ENDMDL
MODEL 6
REMARK VINA RESULT:      -8.2      2.450      3.311
REMARK  Name = 3037
REMARK  4 active torsions:
REMARK  status: ('A' for Active; 'I' for Inactive)
REMARK    1  A    between atoms: C_1  and  C_3
REMARK    2  A    between atoms: C_1  and  C_12
REMARK    3  A    between atoms: C_4  and  O_9
REMARK    4  A    between atoms: C_13  and  O_18
REMARK                            x       y       z     vdW  Elec       q    Type
REMARK                         _______ _______ _______ _____ _____    ______ ____
ROOT
ATOM      1  C   UNL     1      34.900 -15.569 -21.110  0.00  0.00    +0.059 C 
ENDROOT
BRANCH   1   3
ATOM      2 CL   UNL     1      33.759 -12.128 -24.825  0.00  0.00    -0.082 Cl
ATOM      3  C   UNL     1      33.951 -14.550 -21.647  0.00  0.00    +0.017 C 
ATOM      4  C   UNL     1      32.768 -14.251 -20.971  0.00  0.00    +0.130 C 
ATOM      5  C   UNL     1      34.258 -13.893 -22.839  0.00  0.00    +0.010 C 
ATOM      6  C   UNL     1      31.891 -13.296 -21.487  0.00  0.00    +0.037 C 
ATOM      7  C   UNL     1      33.381 -12.938 -23.355  0.00  0.00    +0.058 C 
ATOM      8  C   UNL     1      32.199 -12.640 -22.679  0.00  0.00    +0.014 C 
BRANCH   4   9
ATOM      9  O   UNL     1      32.452 -14.883 -19.806  0.00  0.00    -0.506 OA
ATOM     10  H   UNL     1      33.080 -14.927 -19.112  0.00  0.00    +0.292 HD
ENDBRANCH   4   9
ENDBRANCH   1   3
BRANCH   1  12
ATOM     11 CL   UNL     1      32.964 -20.353 -20.544  0.00  0.00    -0.082 Cl
ATOM     12  C   UNL     1      34.703 -16.956 -21.688  0.00  0.00    +0.017 C 
ATOM     13  C   UNL     1      35.211 -17.260 -22.939  0.00  0.00    +0.130 C 
ATOM     14  C   UNL     1      34.012 -17.892 -20.939  0.00  0.00    +0.010 C 
ATOM     15  C   UNL     1      35.020 -18.541 -23.457  0.00  0.00    +0.037 C 
ATOM     16  C   UNL     1      33.821 -19.173 -21.458  0.00  0.00    +0.058 C 
ATOM     17  C   UNL     1      34.326 -19.497 -22.717  0.00  0.00    +0.014 C 
BRANCH  13  18
ATOM     18  O   UNL     1      35.890 -16.338 -23.676  0.00  0.00    -0.506 OA
ATOM     19  H   UNL     1      35.819 -16.341 -24.610  0.00  0.00    +0.292 HD
ENDBRANCH  13  18
ENDBRANCH   1  12
TORSDOF 4
ENDMDL
MODEL 7
REMARK VINA RESULT:      -8.1      6.964      9.482
REMARK  Name = 3037
REMARK  4 active torsions:
REMARK  status: ('A' for Active; 'I' for Inactive)
REMARK    1  A    between atoms: C_1  and  C_3
REMARK    2  A    between atoms: C_1  and  C_12
REMARK    3  A    between atoms: C_4  and  O_9
REMARK    4  A    between atoms: C_13  and  O_18
REMARK                            x       y       z     vdW  Elec       q    Type
REMARK                         _______ _______ _______ _____ _____    ______ ____
ROOT
ATOM      1  C   UNL     1      35.776 -22.853 -15.114  0.00  0.00    +0.059 C 
ENDROOT
BRANCH   1   3
ATOM      2 CL   UNL     1      36.785 -21.162 -19.917  0.00  0.00    -0.082 Cl
ATOM      3  C   UNL     1      35.301 -22.655 -16.515  0.00  0.00    +0.017 C 
ATOM      4  C   UNL     1      34.017 -23.046 -16.895  0.00  0.00    +0.130 C 
ATOM      5  C   UNL     1      36.157 -22.072 -17.450  0.00  0.00    +0.010 C 
ATOM      6  C   UNL     1      33.589 -22.855 -18.209  0.00  0.00    +0.037 C 
ATOM      7  C   UNL     1      35.729 -21.880 -18.764  0.00  0.00    +0.058 C 
ATOM      8  C   UNL     1      34.445 -22.272 -19.143  0.00  0.00    +0.014 C 
BRANCH   4   9
ATOM      9  O   UNL     1      33.168 -23.618 -15.995  0.00  0.00    -0.506 OA
ATOM     10  H   UNL     1      32.520 -24.229 -16.285  0.00  0.00    +0.292 HD
ENDBRANCH   4   9
ENDBRANCH   1   3
BRANCH   1  12
ATOM     11 CL   UNL     1      40.444 -25.121 -15.009  0.00  0.00    -0.082 Cl
ATOM     12  C   UNL     1      36.590 -24.114 -14.914  0.00  0.00    +0.017 C 
ATOM     13  C   UNL     1      35.954 -25.306 -14.614  0.00  0.00    +0.130 C 
ATOM     14  C   UNL     1      37.966 -24.039 -15.040  0.00  0.00    +0.010 C 
ATOM     15  C   UNL     1      36.719 -26.458 -14.432  0.00  0.00    +0.037 C 
ATOM     16  C   UNL     1      38.731 -25.192 -14.858  0.00  0.00    +0.058 C 
ATOM     17  C   UNL     1      38.107 -26.402 -14.555  0.00  0.00    +0.014 C 
BRANCH  13  18
ATOM     18  O   UNL     1      34.600 -25.379 -14.489  0.00  0.00    -0.506 OA
ATOM     19  H   UNL     1      34.112 -25.977 -15.021  0.00  0.00    +0.292 HD
ENDBRANCH  13  18
ENDBRANCH   1  12
TORSDOF 4
ENDMDL
MODEL 8
REMARK VINA RESULT:      -8.0      4.039      5.664
REMARK  Name = 3037
REMARK  4 active torsions:
REMARK  status: ('A' for Active; 'I' for Inactive)
REMARK    1  A    between atoms: C_1  and  C_3
REMARK    2  A    between atoms: C_1  and  C_12
REMARK    3  A    between atoms: C_4  and  O_9
REMARK    4  A    between atoms: C_13  and  O_18
REMARK                            x       y       z     vdW  Elec       q    Type
REMARK                         _______ _______ _______ _____ _____    ______ ____
ROOT
ATOM      1  C   UNL     1      32.192 -13.273 -23.243  0.00  0.00    +0.059 C 
ENDROOT
BRANCH   1   3
ATOM      2 CL   UNL     1      35.651 -10.398 -25.836  0.00  0.00    -0.082 Cl
ATOM      3  C   UNL     1      32.820 -11.937 -23.465  0.00  0.00    +0.017 C 
ATOM      4  C   UNL     1      32.416 -10.827 -22.722  0.00  0.00    +0.130 C 
ATOM      5  C   UNL     1      33.820 -11.804 -24.428  0.00  0.00    +0.010 C 
ATOM      6  C   UNL     1      33.012  -9.586 -22.942  0.00  0.00    +0.037 C 
ATOM      7  C   UNL     1      34.417 -10.562 -24.648  0.00  0.00    +0.058 C 
ATOM      8  C   UNL     1      34.013  -9.454 -23.905  0.00  0.00    +0.014 C 
BRANCH   4   9
ATOM      9  O   UNL     1      31.440 -10.939 -21.778  0.00  0.00    -0.506 OA
ATOM     10  H   UNL     1      31.566 -11.500 -21.038  0.00  0.00    +0.292 HD
ENDBRANCH   4   9
ENDBRANCH   1   3
BRANCH   1  12
ATOM     11 CL   UNL     1      35.535 -17.239 -23.470  0.00  0.00    -0.082 Cl
ATOM     12  C   UNL     1      33.079 -14.254 -22.504  0.00  0.00    +0.017 C 
ATOM     13  C   UNL     1      33.150 -14.213 -21.123  0.00  0.00    +0.130 C 
ATOM     14  C   UNL     1      33.803 -15.175 -23.240  0.00  0.00    +0.010 C 
ATOM     15  C   UNL     1      33.972 -15.123 -20.457  0.00  0.00    +0.037 C 
ATOM     16  C   UNL     1      34.626 -16.085 -22.575  0.00  0.00    +0.058 C 
ATOM     17  C   UNL     1      34.709 -16.058 -21.182  0.00  0.00    +0.014 C 
BRANCH  13  18
ATOM     18  O   UNL     1      32.439 -13.306 -20.398  0.00  0.00    -0.506 OA
ATOM     19  H   UNL     1      31.878 -12.695 -20.834  0.00  0.00    +0.292 HD
ENDBRANCH  13  18
ENDBRANCH   1  12
TORSDOF 4
ENDMDL
MODEL 9
REMARK VINA RESULT:      -8.0      4.080      7.589
REMARK  Name = 3037
REMARK  4 active torsions:
REMARK  status: ('A' for Active; 'I' for Inactive)
REMARK    1  A    between atoms: C_1  and  C_3
REMARK    2  A    between atoms: C_1  and  C_12
REMARK    3  A    between atoms: C_4  and  O_9
REMARK    4  A    between atoms: C_13  and  O_18
REMARK                            x       y       z     vdW  Elec       q    Type
REMARK                         _______ _______ _______ _____ _____    ______ ____
ROOT
ATOM      1  C   UNL     1      32.188 -13.162 -23.242  0.00  0.00    +0.059 C 
ENDROOT
BRANCH   1   3
ATOM      2 CL   UNL     1      35.513 -17.138 -23.530  0.00  0.00    -0.082 Cl
ATOM      3  C   UNL     1      33.048 -14.151 -22.527  0.00  0.00    +0.017 C 
ATOM      4  C   UNL     1      33.117 -14.161 -21.134  0.00  0.00    +0.130 C 
ATOM      5  C   UNL     1      33.789 -15.072 -23.268  0.00  0.00    +0.010 C 
ATOM      6  C   UNL     1      33.927 -15.091 -20.481  0.00  0.00    +0.037 C 
ATOM      7  C   UNL     1      34.599 -16.003 -22.616  0.00  0.00    +0.058 C 
ATOM      8  C   UNL     1      34.667 -16.012 -21.223  0.00  0.00    +0.014 C 
BRANCH   4   9
ATOM      9  O   UNL     1      32.401 -13.268 -20.395  0.00  0.00    -0.506 OA
ATOM     10  H   UNL     1      31.504 -13.098 -20.606  0.00  0.00    +0.292 HD
ENDBRANCH   4   9
ENDBRANCH   1   3
BRANCH   1  12
ATOM     11 CL   UNL     1      35.682 -10.410 -25.918  0.00  0.00    -0.082 Cl
ATOM     12  C   UNL     1      32.861 -11.828 -23.488  0.00  0.00    +0.017 C 
ATOM     13  C   UNL     1      32.494 -10.722 -22.741  0.00  0.00    +0.130 C 
ATOM     14  C   UNL     1      33.837 -11.751 -24.466  0.00  0.00    +0.010 C 
ATOM     15  C   UNL     1      33.124  -9.501 -22.981  0.00  0.00    +0.037 C 
ATOM     16  C   UNL     1      34.466 -10.529 -24.706  0.00  0.00    +0.058 C 
ATOM     17  C   UNL     1      34.110  -9.404 -23.962  0.00  0.00    +0.014 C 
BRANCH  13  18
ATOM     18  O   UNL     1      31.533 -10.798 -21.779  0.00  0.00    -0.506 OA
ATOM     19  H   UNL     1      31.553 -10.210 -21.050  0.00  0.00    +0.292 HD
ENDBRANCH  13  18
ENDBRANCH   1  12
TORSDOF 4
ENDMDL
