MODEL 1
REMARK VINA RESULT:     -12.7      0.000      0.000
REMARK  Name = 24808489
REMARK  4 active torsions:
REMARK  status: ('A' for Active; 'I' for Inactive)
REMARK    1  A    between atoms: N_1  and  C_10
REMARK    2  A    between atoms: N_1  and  C_21
REMARK    3  A    between atoms: C_18  and  C_24
REMARK    4  A    between atoms: C_24  and  N_25
REMARK                            x       y       z     vdW  Elec       q    Type
REMARK                         _______ _______ _______ _____ _____    ______ ____
ROOT
ATOM      1  N   UNL     1      34.303 -22.471 -18.895  0.00  0.00    -0.311 N 
ATOM      2  H   UNL     1      34.915 -23.237 -18.972  0.00  0.00    +0.152 HD
ENDROOT
BRANCH   1  10
ATOM      3 BR   UNL     1      27.866 -22.845 -16.367  0.00  0.00    -0.049 Br
ATOM      4  O   UNL     1      35.628 -23.225 -16.865  0.00  0.00    -0.270 OA
ATOM      5  O   UNL     1      33.578 -24.360 -12.919  0.00  0.00    -0.270 OA
ATOM      6  N   UNL     1      34.564 -23.783 -14.912  0.00  0.00    -0.248 N 
ATOM      7  C   UNL     1      33.232 -23.073 -16.812  0.00  0.00    +0.068 C 
ATOM      8  C   UNL     1      32.014 -23.255 -15.993  0.00  0.00    +0.010 C 
ATOM      9  C   UNL     1      32.138 -23.694 -14.665  0.00  0.00    +0.054 C 
ATOM     10  C   UNL     1      33.234 -22.658 -18.091  0.00  0.00    +0.066 C 
ATOM     11  C   UNL     1      34.583 -23.356 -16.232  0.00  0.00    +0.253 C 
ATOM     12  C   UNL     1      30.718 -23.006 -16.480  0.00  0.00    +0.007 C 
ATOM     13  C   UNL     1      33.468 -23.977 -14.080  0.00  0.00    +0.252 C 
ATOM     14  C   UNL     1      31.005 -23.879 -13.855  0.00  0.00    +0.005 C 
ATOM     15  C   UNL     1      29.591 -23.190 -15.673  0.00  0.00    +0.035 C 
ATOM     16  C   UNL     1      29.734 -23.626 -14.362  0.00  0.00    +0.007 C 
ATOM     17  H   UNL     1      35.443 -23.976 -14.513  0.00  0.00    +0.158 HD
ENDBRANCH   1  10
BRANCH   1  21
ATOM     18  C   UNL     1      35.364 -19.065 -21.109  0.00  0.00    -0.043 C 
ATOM     19  C   UNL     1      34.019 -19.402 -20.948  0.00  0.00    -0.005 C 
ATOM     20  C   UNL     1      36.355 -19.860 -20.535  0.00  0.00    -0.005 C 
ATOM     21  C   UNL     1      34.659 -21.329 -19.639  0.00  0.00    +0.048 C 
ATOM     22  C   UNL     1      33.668 -20.534 -20.213  0.00  0.00    +0.014 C 
ATOM     23  C   UNL     1      36.004 -20.992 -19.800  0.00  0.00    +0.014 C 
BRANCH  18  24
ATOM     24  C   UNL     1      35.740 -17.856 -21.896  0.00  0.00    -0.050 C 
BRANCH  24  25
ATOM     25  N   UNL     1      34.835 -17.615 -23.010  0.00  0.00    +0.390 N 
ATOM     26  C   UNL     1      34.980 -16.270 -23.566  0.00  0.00    -0.077 C 
ATOM     27  C   UNL     1      35.080 -18.519 -24.133  0.00  0.00    -0.077 C 
ATOM     28  C   UNL     1      34.263 -16.375 -24.904  0.00  0.00    -0.025 C 
ATOM     29  C   UNL     1      34.327 -17.854 -25.276  0.00  0.00    -0.025 C 
ATOM     30  H   UNL     1      33.907 -17.757 -22.610  0.00  0.00    -0.079 HD
ENDBRANCH  24  25
ENDBRANCH  18  24
ENDBRANCH   1  21
TORSDOF 4
ENDMDL
MODEL 2
REMARK VINA RESULT:     -12.7      0.883      1.667
REMARK  Name = 24808489
REMARK  4 active torsions:
REMARK  status: ('A' for Active; 'I' for Inactive)
REMARK    1  A    between atoms: N_1  and  C_10
REMARK    2  A    between atoms: N_1  and  C_21
REMARK    3  A    between atoms: C_18  and  C_24
REMARK    4  A    between atoms: C_24  and  N_25
REMARK                            x       y       z     vdW  Elec       q    Type
REMARK                         _______ _______ _______ _____ _____    ______ ____
ROOT
ATOM      1  N   UNL     1      34.550 -22.448 -18.802  0.00  0.00    -0.311 N 
ATOM      2  H   UNL     1      35.227 -23.162 -18.791  0.00  0.00    +0.152 HD
ENDROOT
BRANCH   1  10
ATOM      3 BR   UNL     1      28.039 -23.041 -16.517  0.00  0.00    -0.049 Br
ATOM      4  O   UNL     1      35.822 -23.149 -16.720  0.00  0.00    -0.270 OA
ATOM      5  O   UNL     1      33.665 -24.343 -12.849  0.00  0.00    -0.270 OA
ATOM      6  N   UNL     1      34.705 -23.738 -14.806  0.00  0.00    -0.248 N 
ATOM      7  C   UNL     1      33.423 -23.082 -16.757  0.00  0.00    +0.068 C 
ATOM      8  C   UNL     1      32.181 -23.303 -15.985  0.00  0.00    +0.010 C 
ATOM      9  C   UNL     1      32.271 -23.734 -14.650  0.00  0.00    +0.054 C 
ATOM     10  C   UNL     1      33.459 -22.670 -18.037  0.00  0.00    +0.066 C 
ATOM     11  C   UNL     1      34.760 -23.315 -16.126  0.00  0.00    +0.253 C 
ATOM     12  C   UNL     1      30.897 -23.102 -16.521  0.00  0.00    +0.007 C 
ATOM     13  C   UNL     1      33.586 -23.968 -14.014  0.00  0.00    +0.252 C 
ATOM     14  C   UNL     1      31.115 -23.956 -13.884  0.00  0.00    +0.005 C 
ATOM     15  C   UNL     1      29.747 -23.323 -15.757  0.00  0.00    +0.035 C 
ATOM     16  C   UNL     1      29.856 -23.749 -14.439  0.00  0.00    +0.007 C 
ATOM     17  H   UNL     1      35.575 -23.899 -14.373  0.00  0.00    +0.158 HD
ENDBRANCH   1  10
BRANCH   1  21
ATOM     18  C   UNL     1      35.444 -19.131 -21.214  0.00  0.00    -0.043 C 
ATOM     19  C   UNL     1      36.470 -19.822 -20.570  0.00  0.00    -0.005 C 
ATOM     20  C   UNL     1      34.121 -19.542 -21.056  0.00  0.00    -0.005 C 
ATOM     21  C   UNL     1      34.850 -21.335 -19.610  0.00  0.00    +0.048 C 
ATOM     22  C   UNL     1      36.173 -20.924 -19.768  0.00  0.00    +0.014 C 
ATOM     23  C   UNL     1      33.823 -20.643 -20.254  0.00  0.00    +0.014 C 
BRANCH  18  24
ATOM     24  C   UNL     1      35.762 -17.952 -22.070  0.00  0.00    -0.050 C 
BRANCH  24  25
ATOM     25  N   UNL     1      34.739 -16.920 -21.996  0.00  0.00    +0.390 N 
ATOM     26  C   UNL     1      34.820 -16.140 -20.762  0.00  0.00    -0.077 C 
ATOM     27  C   UNL     1      34.857 -15.939 -23.074  0.00  0.00    -0.077 C 
ATOM     28  C   UNL     1      33.958 -14.924 -21.069  0.00  0.00    -0.025 C 
ATOM     29  C   UNL     1      33.981 -14.794 -22.589  0.00  0.00    -0.025 C 
ATOM     30  H   UNL     1      33.862 -17.438 -22.056  0.00  0.00    -0.079 HD
ENDBRANCH  24  25
ENDBRANCH  18  24
ENDBRANCH   1  21
TORSDOF 4
ENDMDL
MODEL 3
REMARK VINA RESULT:     -12.5      4.046      9.856
REMARK  Name = 24808489
REMARK  4 active torsions:
REMARK  status: ('A' for Active; 'I' for Inactive)
REMARK    1  A    between atoms: N_1  and  C_10
REMARK    2  A    between atoms: N_1  and  C_21
REMARK    3  A    between atoms: C_18  and  C_24
REMARK    4  A    between atoms: C_24  and  N_25
REMARK                            x       y       z     vdW  Elec       q    Type
REMARK                         _______ _______ _______ _____ _____    ______ ____
ROOT
ATOM      1  N   UNL     1      35.463 -18.640 -21.382  0.00  0.00    -0.311 N 
ATOM      2  H   UNL     1      36.357 -18.706 -21.785  0.00  0.00    +0.152 HD
ENDROOT
BRANCH   1  10
ATOM      3 BR   UNL     1      32.086 -12.655 -20.521  0.00  0.00    -0.049 Br
ATOM      4  O   UNL     1      35.566 -18.737 -23.916  0.00  0.00    -0.270 OA
ATOM      5  O   UNL     1      33.756 -15.438 -26.544  0.00  0.00    -0.270 OA
ATOM      6  N   UNL     1      34.649 -17.067 -25.192  0.00  0.00    -0.248 N 
ATOM      7  C   UNL     1      34.514 -16.906 -22.775  0.00  0.00    +0.068 C 
ATOM      8  C   UNL     1      33.796 -15.621 -22.926  0.00  0.00    +0.010 C 
ATOM      9  C   UNL     1      33.540 -15.126 -24.216  0.00  0.00    +0.054 C 
ATOM     10  C   UNL     1      34.812 -17.475 -21.594  0.00  0.00    +0.066 C 
ATOM     11  C   UNL     1      34.965 -17.668 -23.982  0.00  0.00    +0.253 C 
ATOM     12  C   UNL     1      33.347 -14.859 -21.833  0.00  0.00    +0.007 C 
ATOM     13  C   UNL     1      33.980 -15.870 -25.417  0.00  0.00    +0.252 C 
ATOM     14  C   UNL     1      32.861 -13.910 -24.401  0.00  0.00    +0.005 C 
ATOM     15  C   UNL     1      32.671 -13.649 -22.019  0.00  0.00    +0.035 C 
ATOM     16  C   UNL     1      32.428 -13.175 -23.302  0.00  0.00    +0.007 C 
ATOM     17  H   UNL     1      34.939 -17.553 -25.998  0.00  0.00    +0.158 HD
ENDBRANCH   1  10
BRANCH   1  21
ATOM     18  C   UNL     1      34.185 -22.012 -19.232  0.00  0.00    -0.043 C 
ATOM     19  C   UNL     1      35.549 -21.764 -19.396  0.00  0.00    -0.005 C 
ATOM     20  C   UNL     1      33.247 -21.139 -19.782  0.00  0.00    -0.005 C 
ATOM     21  C   UNL     1      35.034 -19.771 -20.661  0.00  0.00    +0.048 C 
ATOM     22  C   UNL     1      35.972 -20.644 -20.111  0.00  0.00    +0.014 C 
ATOM     23  C   UNL     1      33.671 -20.019 -20.497  0.00  0.00    +0.014 C 
BRANCH  18  24
ATOM     24  C   UNL     1      33.733 -23.210 -18.469  0.00  0.00    -0.050 C 
BRANCH  24  25
ATOM     25  N   UNL     1      33.409 -22.897 -17.085  0.00  0.00    +0.390 N 
ATOM     26  C   UNL     1      32.027 -23.235 -16.744  0.00  0.00    -0.077 C 
ATOM     27  C   UNL     1      34.229 -23.649 -16.136  0.00  0.00    -0.077 C 
ATOM     28  C   UNL     1      32.033 -23.201 -15.223  0.00  0.00    -0.025 C 
ATOM     29  C   UNL     1      33.480 -23.470 -14.823  0.00  0.00    -0.025 C 
ATOM     30  H   UNL     1      33.578 -21.893 -17.013  0.00  0.00    -0.079 HD
ENDBRANCH  24  25
ENDBRANCH  18  24
ENDBRANCH   1  21
TORSDOF 4
ENDMDL
MODEL 4
REMARK VINA RESULT:     -12.3      2.651      3.528
REMARK  Name = 24808489
REMARK  4 active torsions:
REMARK  status: ('A' for Active; 'I' for Inactive)
REMARK    1  A    between atoms: N_1  and  C_10
REMARK    2  A    between atoms: N_1  and  C_21
REMARK    3  A    between atoms: C_18  and  C_24
REMARK    4  A    between atoms: C_24  and  N_25
REMARK                            x       y       z     vdW  Elec       q    Type
REMARK                         _______ _______ _______ _____ _____    ______ ____
ROOT
ATOM      1  N   UNL     1      33.278 -22.433 -18.763  0.00  0.00    -0.311 N 
ATOM      2  H   UNL     1      32.422 -22.855 -19.003  0.00  0.00    +0.152 HD
ENDROOT
BRANCH   1  10
ATOM      3 BR   UNL     1      37.863 -24.810 -14.149  0.00  0.00    -0.049 Br
ATOM      4  O   UNL     1      31.172 -22.437 -17.347  0.00  0.00    -0.270 OA
ATOM      5  O   UNL     1      31.200 -23.808 -12.967  0.00  0.00    -0.270 OA
ATOM      6  N   UNL     1      31.230 -23.130 -15.161  0.00  0.00    -0.248 N 
ATOM      7  C   UNL     1      33.283 -23.152 -16.453  0.00  0.00    +0.068 C 
ATOM      8  C   UNL     1      33.996 -23.668 -15.265  0.00  0.00    +0.010 C 
ATOM      9  C   UNL     1      33.279 -23.890 -14.077  0.00  0.00    +0.054 C 
ATOM     10  C   UNL     1      33.864 -22.903 -17.640  0.00  0.00    +0.066 C 
ATOM     11  C   UNL     1      31.814 -22.868 -16.392  0.00  0.00    +0.253 C 
ATOM     12  C   UNL     1      35.373 -23.953 -15.259  0.00  0.00    +0.007 C 
ATOM     13  C   UNL     1      31.827 -23.614 -14.003  0.00  0.00    +0.252 C 
ATOM     14  C   UNL     1      33.920 -24.379 -12.927  0.00  0.00    +0.005 C 
ATOM     15  C   UNL     1      36.010 -24.440 -14.113  0.00  0.00    +0.035 C 
ATOM     16  C   UNL     1      35.284 -24.653 -12.949  0.00  0.00    +0.007 C 
ATOM     17  H   UNL     1      30.264 -22.948 -15.100  0.00  0.00    +0.158 HD
ENDBRANCH   1  10
BRANCH   1  21
ATOM     18  C   UNL     1      34.615 -19.421 -21.364  0.00  0.00    -0.043 C 
ATOM     19  C   UNL     1      33.249 -19.585 -21.130  0.00  0.00    -0.005 C 
ATOM     20  C   UNL     1      35.536 -20.258 -20.734  0.00  0.00    -0.005 C 
ATOM     21  C   UNL     1      33.727 -21.423 -19.636  0.00  0.00    +0.048 C 
ATOM     22  C   UNL     1      32.806 -20.587 -20.266  0.00  0.00    +0.014 C 
ATOM     23  C   UNL     1      35.092 -21.259 -19.871  0.00  0.00    +0.014 C 
BRANCH  18  24
ATOM     24  C   UNL     1      35.089 -18.351 -22.288  0.00  0.00    -0.050 C 
BRANCH  24  25
ATOM     25  N   UNL     1      34.441 -17.073 -22.036  0.00  0.00    +0.390 N 
ATOM     26  C   UNL     1      34.883 -16.461 -20.782  0.00  0.00    -0.077 C 
ATOM     27  C   UNL     1      34.741 -16.081 -23.069  0.00  0.00    -0.077 C 
ATOM     28  C   UNL     1      34.405 -15.022 -20.918  0.00  0.00    -0.025 C 
ATOM     29  C   UNL     1      34.309 -14.774 -22.420  0.00  0.00    -0.025 C 
ATOM     30  H   UNL     1      33.447 -17.300 -22.011  0.00  0.00    -0.079 HD
ENDBRANCH  24  25
ENDBRANCH  18  24
ENDBRANCH   1  21
TORSDOF 4
ENDMDL
MODEL 5
REMARK VINA RESULT:     -12.2      1.407      1.812
REMARK  Name = 24808489
REMARK  4 active torsions:
REMARK  status: ('A' for Active; 'I' for Inactive)
REMARK    1  A    between atoms: N_1  and  C_10
REMARK    2  A    between atoms: N_1  and  C_21
REMARK    3  A    between atoms: C_18  and  C_24
REMARK    4  A    between atoms: C_24  and  N_25
REMARK                            x       y       z     vdW  Elec       q    Type
REMARK                         _______ _______ _______ _____ _____    ______ ____
ROOT
ATOM      1  N   UNL     1      34.884 -22.272 -19.157  0.00  0.00    -0.311 N 
ATOM      2  H   UNL     1      35.587 -22.937 -19.337  0.00  0.00    +0.152 HD
ENDROOT
BRANCH   1  10
ATOM      3 BR   UNL     1      28.889 -23.970 -16.133  0.00  0.00    -0.049 Br
ATOM      4  O   UNL     1      36.471 -22.547 -17.195  0.00  0.00    -0.270 OA
ATOM      5  O   UNL     1      34.995 -23.850 -13.049  0.00  0.00    -0.270 OA
ATOM      6  N   UNL     1      35.691 -23.200 -15.139  0.00  0.00    -0.248 N 
ATOM      7  C   UNL     1      34.117 -22.960 -16.969  0.00  0.00    +0.068 C 
ATOM      8  C   UNL     1      33.029 -23.364 -16.052  0.00  0.00    +0.010 C 
ATOM      9  C   UNL     1      33.335 -23.667 -14.715  0.00  0.00    +0.054 C 
ATOM     10  C   UNL     1      33.942 -22.647 -18.265  0.00  0.00    +0.066 C 
ATOM     11  C   UNL     1      35.528 -22.876 -16.478  0.00  0.00    +0.253 C 
ATOM     12  C   UNL     1      31.684 -23.463 -16.452  0.00  0.00    +0.007 C 
ATOM     13  C   UNL     1      34.726 -23.586 -14.217  0.00  0.00    +0.252 C 
ATOM     14  C   UNL     1      32.330 -24.055 -13.813  0.00  0.00    +0.005 C 
ATOM     15  C   UNL     1      30.685 -23.849 -15.554  0.00  0.00    +0.035 C 
ATOM     16  C   UNL     1      31.007 -24.145 -14.236  0.00  0.00    +0.007 C 
ATOM     17  H   UNL     1      36.614 -23.152 -14.798  0.00  0.00    +0.158 HD
ENDBRANCH   1  10
BRANCH   1  21
ATOM     18  C   UNL     1      35.219 -18.655 -21.261  0.00  0.00    -0.043 C 
ATOM     19  C   UNL     1      33.962 -19.209 -21.022  0.00  0.00    -0.005 C 
ATOM     20  C   UNL     1      36.366 -19.303 -20.802  0.00  0.00    -0.005 C 
ATOM     21  C   UNL     1      34.997 -21.059 -19.864  0.00  0.00    +0.048 C 
ATOM     22  C   UNL     1      33.851 -20.411 -20.323  0.00  0.00    +0.014 C 
ATOM     23  C   UNL     1      36.255 -20.505 -20.103  0.00  0.00    +0.014 C 
BRANCH  18  24
ATOM     24  C   UNL     1      35.338 -17.371 -22.009  0.00  0.00    -0.050 C 
BRANCH  24  25
ATOM     25  N   UNL     1      34.216 -16.477 -21.759  0.00  0.00    +0.390 N 
ATOM     26  C   UNL     1      34.482 -15.537 -20.671  0.00  0.00    -0.077 C 
ATOM     27  C   UNL     1      33.901 -15.640 -22.916  0.00  0.00    -0.077 C 
ATOM     28  C   UNL     1      33.389 -14.493 -20.847  0.00  0.00    -0.025 C 
ATOM     29  C   UNL     1      33.006 -14.563 -22.322  0.00  0.00    -0.025 C 
ATOM     30  H   UNL     1      33.446 -17.107 -21.531  0.00  0.00    -0.079 HD
ENDBRANCH  24  25
ENDBRANCH  18  24
ENDBRANCH   1  21
TORSDOF 4
ENDMDL
MODEL 6
REMARK VINA RESULT:     -11.3      3.408      4.700
REMARK  Name = 24808489
REMARK  4 active torsions:
REMARK  status: ('A' for Active; 'I' for Inactive)
REMARK    1  A    between atoms: N_1  and  C_10
REMARK    2  A    between atoms: N_1  and  C_21
REMARK    3  A    between atoms: C_18  and  C_24
REMARK    4  A    between atoms: C_24  and  N_25
REMARK                            x       y       z     vdW  Elec       q    Type
REMARK                         _______ _______ _______ _____ _____    ______ ____
ROOT
ATOM      1  N   UNL     1      34.499 -22.747 -17.303  0.00  0.00    -0.311 N 
ATOM      2  H   UNL     1      33.573 -22.897 -17.005  0.00  0.00    +0.152 HD
ENDROOT
BRANCH   1  10
ATOM      3 BR   UNL     1      40.442 -25.499 -15.052  0.00  0.00    -0.049 Br
ATOM      4  O   UNL     1      33.082 -22.963 -15.208  0.00  0.00    -0.270 OA
ATOM      5  O   UNL     1      34.734 -24.809 -11.345  0.00  0.00    -0.270 OA
ATOM      6  N   UNL     1      33.947 -23.892 -13.298  0.00  0.00    -0.248 N 
ATOM      7  C   UNL     1      35.361 -23.716 -15.261  0.00  0.00    +0.068 C 
ATOM      8  C   UNL     1      36.460 -24.342 -14.495  0.00  0.00    +0.010 C 
ATOM      9  C   UNL     1      36.240 -24.713 -13.158  0.00  0.00    +0.054 C 
ATOM     10  C   UNL     1      35.456 -23.323 -16.544  0.00  0.00    +0.066 C 
ATOM     11  C   UNL     1      34.029 -23.479 -14.620  0.00  0.00    +0.253 C 
ATOM     12  C   UNL     1      37.732 -24.590 -15.040  0.00  0.00    +0.007 C 
ATOM     13  C   UNL     1      34.928 -24.485 -12.512  0.00  0.00    +0.252 C 
ATOM     14  C   UNL     1      37.258 -25.309 -12.396  0.00  0.00    +0.005 C 
ATOM     15  C   UNL     1      38.745 -25.184 -14.281  0.00  0.00    +0.035 C 
ATOM     16  C   UNL     1      38.509 -25.543 -12.960  0.00  0.00    +0.007 C 
ATOM     17  H   UNL     1      33.078 -23.743 -12.858  0.00  0.00    +0.158 HD
ENDBRANCH   1  10
BRANCH   1  21
ATOM     18  C   UNL     1      34.938 -20.410 -20.762  0.00  0.00    -0.043 C 
ATOM     19  C   UNL     1      36.066 -20.843 -20.065  0.00  0.00    -0.005 C 
ATOM     20  C   UNL     1      33.664 -20.753 -20.310  0.00  0.00    -0.005 C 
ATOM     21  C   UNL     1      34.646 -21.962 -18.463  0.00  0.00    +0.048 C 
ATOM     22  C   UNL     1      35.919 -21.619 -18.916  0.00  0.00    +0.014 C 
ATOM     23  C   UNL     1      33.518 -21.529 -19.160  0.00  0.00    +0.014 C 
BRANCH  18  24
ATOM     24  C   UNL     1      35.094 -19.579 -21.991  0.00  0.00    -0.050 C 
BRANCH  24  25
ATOM     25  N   UNL     1      34.514 -18.253 -21.842  0.00  0.00    +0.390 N 
ATOM     26  C   UNL     1      35.238 -17.432 -20.873  0.00  0.00    -0.077 C 
ATOM     27  C   UNL     1      34.545 -17.487 -23.088  0.00  0.00    -0.077 C 
ATOM     28  C   UNL     1      34.727 -16.029 -21.165  0.00  0.00    -0.025 C 
ATOM     29  C   UNL     1      34.269 -16.066 -22.620  0.00  0.00    -0.025 C 
ATOM     30  H   UNL     1      33.557 -18.435 -21.538  0.00  0.00    -0.079 HD
ENDBRANCH  24  25
ENDBRANCH  18  24
ENDBRANCH   1  21
TORSDOF 4
ENDMDL
MODEL 7
REMARK VINA RESULT:     -10.3      4.011      9.629
REMARK  Name = 24808489
REMARK  4 active torsions:
REMARK  status: ('A' for Active; 'I' for Inactive)
REMARK    1  A    between atoms: N_1  and  C_10
REMARK    2  A    between atoms: N_1  and  C_21
REMARK    3  A    between atoms: C_18  and  C_24
REMARK    4  A    between atoms: C_24  and  N_25
REMARK                            x       y       z     vdW  Elec       q    Type
REMARK                         _______ _______ _______ _____ _____    ______ ____
ROOT
ATOM      1  N   UNL     1      34.830 -20.076 -21.142  0.00  0.00    -0.311 N 
ATOM      2  H   UNL     1      35.306 -20.488 -21.897  0.00  0.00    +0.152 HD
ENDROOT
BRANCH   1  10
ATOM      3 BR   UNL     1      32.436 -13.646 -20.192  0.00  0.00    -0.049 Br
ATOM      4  O   UNL     1      35.344 -20.001 -23.626  0.00  0.00    -0.270 OA
ATOM      5  O   UNL     1      34.601 -16.236 -26.143  0.00  0.00    -0.270 OA
ATOM      6  N   UNL     1      34.958 -18.099 -24.847  0.00  0.00    -0.248 N 
ATOM      7  C   UNL     1      34.444 -18.096 -22.476  0.00  0.00    +0.068 C 
ATOM      8  C   UNL     1      33.993 -16.692 -22.601  0.00  0.00    +0.010 C 
ATOM      9  C   UNL     1      34.049 -16.063 -23.856  0.00  0.00    +0.054 C 
ATOM     10  C   UNL     1      34.435 -18.798 -21.329  0.00  0.00    +0.066 C 
ATOM     11  C   UNL     1      34.956 -18.836 -23.672  0.00  0.00    +0.253 C 
ATOM     12  C   UNL     1      33.504 -15.944 -21.517  0.00  0.00    +0.007 C 
ATOM     13  C   UNL     1      34.552 -16.785 -25.046  0.00  0.00    +0.252 C 
ATOM     14  C   UNL     1      33.631 -14.731 -24.016  0.00  0.00    +0.005 C 
ATOM     15  C   UNL     1      33.088 -14.618 -21.677  0.00  0.00    +0.035 C 
ATOM     16  C   UNL     1      33.151 -14.013 -22.925  0.00  0.00    +0.007 C 
ATOM     17  H   UNL     1      35.292 -18.569 -25.645  0.00  0.00    +0.158 HD
ENDBRANCH   1  10
BRANCH   1  21
ATOM     18  C   UNL     1      34.298 -22.527 -17.775  0.00  0.00    -0.043 C 
ATOM     19  C   UNL     1      33.191 -22.091 -18.503  0.00  0.00    -0.005 C 
ATOM     20  C   UNL     1      35.582 -22.148 -18.166  0.00  0.00    -0.005 C 
ATOM     21  C   UNL     1      34.652 -20.897 -20.012  0.00  0.00    +0.048 C 
ATOM     22  C   UNL     1      33.368 -21.277 -19.621  0.00  0.00    +0.014 C 
ATOM     23  C   UNL     1      35.759 -21.333 -19.284  0.00  0.00    +0.014 C 
BRANCH  18  24
ATOM     24  C   UNL     1      34.108 -23.397 -16.580  0.00  0.00    -0.050 C 
BRANCH  24  25
ATOM     25  N   UNL     1      35.351 -23.626 -15.857  0.00  0.00    +0.390 N 
ATOM     26  C   UNL     1      35.357 -22.987 -14.541  0.00  0.00    -0.077 C 
ATOM     27  C   UNL     1      35.589 -25.044 -15.591  0.00  0.00    -0.077 C 
ATOM     28  C   UNL     1      36.526 -23.661 -13.839  0.00  0.00    -0.025 C 
ATOM     29  C   UNL     1      36.681 -25.012 -14.531  0.00  0.00    -0.025 C 
ATOM     30  H   UNL     1      36.067 -23.233 -16.467  0.00  0.00    -0.079 HD
ENDBRANCH  24  25
ENDBRANCH  18  24
ENDBRANCH   1  21
TORSDOF 4
ENDMDL
MODEL 8
REMARK VINA RESULT:     -10.3     10.813     16.001
REMARK  Name = 24808489
REMARK  4 active torsions:
REMARK  status: ('A' for Active; 'I' for Inactive)
REMARK    1  A    between atoms: N_1  and  C_10
REMARK    2  A    between atoms: N_1  and  C_21
REMARK    3  A    between atoms: C_18  and  C_24
REMARK    4  A    between atoms: C_24  and  N_25
REMARK                            x       y       z     vdW  Elec       q    Type
REMARK                         _______ _______ _______ _____ _____    ______ ____
ROOT
ATOM      1  N   UNL     1      33.072  -8.537 -22.841  0.00  0.00    -0.311 N 
ATOM      2  H   UNL     1      33.200  -8.303 -21.894  0.00  0.00    +0.152 HD
ENDROOT
BRANCH   1  10
ATOM      3 BR   UNL     1      33.119  -4.322 -28.337  0.00  0.00    -0.049 Br
ATOM      4  O   UNL     1      31.739  -7.126 -21.205  0.00  0.00    -0.270 OA
ATOM      5  O   UNL     1      30.131  -2.978 -22.331  0.00  0.00    -0.270 OA
ATOM      6  N   UNL     1      30.954  -5.058 -21.808  0.00  0.00    -0.248 N 
ATOM      7  C   UNL     1      32.219  -6.350 -23.425  0.00  0.00    +0.068 C 
ATOM      8  C   UNL     1      32.051  -5.249 -24.398  0.00  0.00    +0.010 C 
ATOM      9  C   UNL     1      31.338  -4.100 -24.019  0.00  0.00    +0.054 C 
ATOM     10  C   UNL     1      32.881  -7.493 -23.677  0.00  0.00    +0.066 C 
ATOM     11  C   UNL     1      31.633  -6.243 -22.052  0.00  0.00    +0.253 C 
ATOM     12  C   UNL     1      32.577  -5.290 -25.702  0.00  0.00    +0.007 C 
ATOM     13  C   UNL     1      30.754  -3.981 -22.664  0.00  0.00    +0.252 C 
ATOM     14  C   UNL     1      31.157  -3.033 -24.914  0.00  0.00    +0.005 C 
ATOM     15  C   UNL     1      32.396  -4.227 -26.592  0.00  0.00    +0.035 C 
ATOM     16  C   UNL     1      31.687  -3.099 -26.199  0.00  0.00    +0.007 C 
ATOM     17  H   UNL     1      30.560  -4.969 -20.910  0.00  0.00    +0.158 HD
ENDBRANCH   1  10
BRANCH   1  21
ATOM     18  C   UNL     1      33.196 -12.636 -23.738  0.00  0.00    -0.043 C 
ATOM     19  C   UNL     1      32.312 -12.160 -22.769  0.00  0.00    -0.005 C 
ATOM     20  C   UNL     1      34.039 -11.750 -24.408  0.00  0.00    -0.005 C 
ATOM     21  C   UNL     1      33.115  -9.912 -23.142  0.00  0.00    +0.048 C 
ATOM     22  C   UNL     1      32.271 -10.798 -22.472  0.00  0.00    +0.014 C 
ATOM     23  C   UNL     1      33.999 -10.388 -24.110  0.00  0.00    +0.014 C 
BRANCH  18  24
ATOM     24  C   UNL     1      33.240 -14.092 -24.056  0.00  0.00    -0.050 C 
BRANCH  24  25
ATOM     25  N   UNL     1      34.206 -14.810 -23.237  0.00  0.00    +0.390 N 
ATOM     26  C   UNL     1      33.650 -15.220 -21.948  0.00  0.00    -0.077 C 
ATOM     27  C   UNL     1      34.659 -16.050 -23.867  0.00  0.00    -0.077 C 
ATOM     28  C   UNL     1      34.656 -16.250 -21.455  0.00  0.00    -0.025 C 
ATOM     29  C   UNL     1      35.321 -16.793 -22.716  0.00  0.00    -0.025 C 
ATOM     30  H   UNL     1      34.972 -14.147 -23.121  0.00  0.00    -0.079 HD
ENDBRANCH  24  25
ENDBRANCH  18  24
ENDBRANCH   1  21
TORSDOF 4
ENDMDL
MODEL 9
REMARK VINA RESULT:     -10.3      3.461      4.883
REMARK  Name = 24808489
REMARK  4 active torsions:
REMARK  status: ('A' for Active; 'I' for Inactive)
REMARK    1  A    between atoms: N_1  and  C_10
REMARK    2  A    between atoms: N_1  and  C_21
REMARK    3  A    between atoms: C_18  and  C_24
REMARK    4  A    between atoms: C_24  and  N_25
REMARK                            x       y       z     vdW  Elec       q    Type
REMARK                         _______ _______ _______ _____ _____    ______ ____
ROOT
ATOM      1  N   UNL     1      33.957 -23.724 -16.964  0.00  0.00    -0.311 N 
ATOM      2  H   UNL     1      33.155 -24.259 -16.768  0.00  0.00    +0.152 HD
ENDROOT
BRANCH   1  10
ATOM      3 BR   UNL     1      40.372 -25.484 -15.038  0.00  0.00    -0.049 Br
ATOM      4  O   UNL     1      32.858 -23.471 -14.690  0.00  0.00    -0.270 OA
ATOM      5  O   UNL     1      35.172 -24.173 -10.789  0.00  0.00    -0.270 OA
ATOM      6  N   UNL     1      34.051 -23.831 -12.765  0.00  0.00    -0.248 N 
ATOM      7  C   UNL     1      35.168 -24.090 -14.903  0.00  0.00    +0.068 C 
ATOM      8  C   UNL     1      36.412 -24.438 -14.182  0.00  0.00    +0.010 C 
ATOM      9  C   UNL     1      36.407 -24.465 -12.778  0.00  0.00    +0.054 C 
ATOM     10  C   UNL     1      35.055 -24.034 -16.242  0.00  0.00    +0.066 C 
ATOM     11  C   UNL     1      33.918 -23.768 -14.144  0.00  0.00    +0.253 C 
ATOM     12  C   UNL     1      37.617 -24.749 -14.837  0.00  0.00    +0.007 C 
ATOM     13  C   UNL     1      35.177 -24.149 -12.016  0.00  0.00    +0.252 C 
ATOM     14  C   UNL     1      37.568 -24.790 -12.057  0.00  0.00    +0.005 C 
ATOM     15  C   UNL     1      38.772 -25.073 -14.118  0.00  0.00    +0.035 C 
ATOM     16  C   UNL     1      38.747 -25.094 -12.730  0.00  0.00    +0.007 C 
ATOM     17  H   UNL     1      33.239 -23.621 -12.248  0.00  0.00    +0.158 HD
ENDBRANCH   1  10
BRANCH   1  21
ATOM     18  C   UNL     1      33.501 -20.789 -19.932  0.00  0.00    -0.043 C 
ATOM     19  C   UNL     1      32.393 -21.222 -19.202  0.00  0.00    -0.005 C 
ATOM     20  C   UNL     1      34.760 -21.332 -19.675  0.00  0.00    -0.005 C 
ATOM     21  C   UNL     1      33.804 -22.740 -17.960  0.00  0.00    +0.048 C 
ATOM     22  C   UNL     1      32.545 -22.197 -18.217  0.00  0.00    +0.014 C 
ATOM     23  C   UNL     1      34.912 -22.308 -18.690  0.00  0.00    +0.014 C 
BRANCH  18  24
ATOM     24  C   UNL     1      33.339 -19.747 -20.985  0.00  0.00    -0.050 C 
BRANCH  24  25
ATOM     25  N   UNL     1      34.611 -19.334 -21.558  0.00  0.00    +0.390 N 
ATOM     26  C   UNL     1      34.589 -19.323 -23.021  0.00  0.00    -0.077 C 
ATOM     27  C   UNL     1      34.980 -17.971 -21.174  0.00  0.00    -0.077 C 
ATOM     28  C   UNL     1      35.827 -18.514 -23.376  0.00  0.00    -0.025 C 
ATOM     29  C   UNL     1      36.086 -17.628 -22.161  0.00  0.00    -0.025 C 
ATOM     30  H   UNL     1      35.277 -20.018 -21.199  0.00  0.00    -0.079 HD
ENDBRANCH  24  25
ENDBRANCH  18  24
ENDBRANCH   1  21
TORSDOF 4
ENDMDL
