MODEL 1
REMARK VINA RESULT:      -9.8      0.000      0.000
REMARK  Name = 25113145
REMARK  2 active torsions:
REMARK  status: ('A' for Active; 'I' for Inactive)
REMARK    1  A    between atoms: N_3  and  C_13
REMARK    2  A    between atoms: C_18  and  C_20
REMARK                            x       y       z     vdW  Elec       q    Type
REMARK                         _______ _______ _______ _____ _____    ______ ____
ROOT
ATOM      1  O   UNL     1      32.827 -19.932 -21.241  0.00  0.00    -0.269 OA
ATOM      2  O   UNL     1      37.335 -18.793 -21.584  0.00  0.00    -0.269 OA
ATOM      3  N   UNL     1      34.970 -19.038 -21.792  0.00  0.00    -0.201 N 
ATOM      4  C   UNL     1      34.773 -20.576 -20.116  0.00  0.00    +0.055 C 
ATOM      5  C   UNL     1      36.112 -20.262 -20.239  0.00  0.00    +0.058 C 
ATOM      6  C   UNL     1      34.032 -19.804 -21.110  0.00  0.00    +0.259 C 
ATOM      7  C   UNL     1      36.250 -19.272 -21.305  0.00  0.00    +0.259 C 
ATOM      8  C   UNL     1      34.319 -21.488 -19.184  0.00  0.00    -0.017 C 
ATOM      9  C   UNL     1      37.074 -20.838 -19.434  0.00  0.00    +0.005 C 
ATOM     10  C   UNL     1      35.274 -22.085 -18.357  0.00  0.00    -0.004 C 
ATOM     11  C   UNL     1      36.639 -21.764 -18.480  0.00  0.00    -0.000 C 
ATOM     12  C   UNL     1      32.881 -21.842 -19.042  0.00  0.00    +0.031 C 
ENDROOT
BRANCH   3  13
ATOM     13  C   UNL     1      34.658 -18.127 -22.855  0.00  0.00    +0.061 C 
ATOM     14  C   UNL     1      34.430 -16.780 -22.575  0.00  0.00    +0.016 C 
ATOM     15  C   UNL     1      34.582 -18.589 -24.169  0.00  0.00    +0.016 C 
ATOM     16  C   UNL     1      34.127 -15.894 -23.609  0.00  0.00    +0.012 C 
ATOM     17  C   UNL     1      34.279 -17.704 -25.203  0.00  0.00    +0.012 C 
ATOM     18  C   UNL     1      34.051 -16.356 -24.923  0.00  0.00    +0.069 C 
BRANCH  18  20
ATOM     19  N   UNL     1      33.488 -14.711 -26.843  0.00  0.00    -0.191 NA
ATOM     20  C   UNL     1      33.740 -15.448 -25.982  0.00  0.00    +0.100 C 
ENDBRANCH  18  20
ENDBRANCH   3  13
TORSDOF 2
ENDMDL
MODEL 2
REMARK VINA RESULT:      -9.7      4.374      6.516
REMARK  Name = 25113145
REMARK  2 active torsions:
REMARK  status: ('A' for Active; 'I' for Inactive)
REMARK    1  A    between atoms: N_3  and  C_13
REMARK    2  A    between atoms: C_18  and  C_20
REMARK                            x       y       z     vdW  Elec       q    Type
REMARK                         _______ _______ _______ _____ _____    ______ ____
ROOT
ATOM      1  O   UNL     1      34.262 -14.662 -21.303  0.00  0.00    -0.269 OA
ATOM      2  O   UNL     1      33.093 -14.337 -25.804  0.00  0.00    -0.269 OA
ATOM      3  N   UNL     1      33.523 -14.018 -23.478  0.00  0.00    -0.201 N 
ATOM      4  C   UNL     1      34.366 -16.111 -23.133  0.00  0.00    +0.055 C 
ATOM      5  C   UNL     1      33.991 -16.025 -24.459  0.00  0.00    +0.058 C 
ATOM      6  C   UNL     1      34.065 -14.834 -22.492  0.00  0.00    +0.259 C 
ATOM      7  C   UNL     1      33.456 -14.687 -24.694  0.00  0.00    +0.259 C 
ATOM      8  C   UNL     1      34.915 -17.262 -22.602  0.00  0.00    -0.017 C 
ATOM      9  C   UNL     1      34.146 -17.084 -25.332  0.00  0.00    +0.005 C 
ATOM     10  C   UNL     1      35.083 -18.348 -23.466  0.00  0.00    -0.004 C 
ATOM     11  C   UNL     1      34.702 -18.260 -24.819  0.00  0.00    -0.000 C 
ATOM     12  C   UNL     1      35.320 -17.373 -21.175  0.00  0.00    +0.031 C 
ENDROOT
BRANCH   3  13
ATOM     13  C   UNL     1      33.093 -12.666 -23.268  0.00  0.00    +0.061 C 
ATOM     14  C   UNL     1      33.718 -11.622 -23.949  0.00  0.00    +0.016 C 
ATOM     15  C   UNL     1      32.049 -12.396 -22.383  0.00  0.00    +0.016 C 
ATOM     16  C   UNL     1      33.298 -10.307 -23.744  0.00  0.00    +0.012 C 
ATOM     17  C   UNL     1      31.630 -11.082 -22.179  0.00  0.00    +0.012 C 
ATOM     18  C   UNL     1      32.255 -10.037 -22.859  0.00  0.00    +0.069 C 
BRANCH  18  20
ATOM     19  N   UNL     1      31.479  -7.595 -22.480  0.00  0.00    -0.191 NA
ATOM     20  C   UNL     1      31.826  -8.690 -22.650  0.00  0.00    +0.100 C 
ENDBRANCH  18  20
ENDBRANCH   3  13
TORSDOF 2
ENDMDL
MODEL 3
REMARK VINA RESULT:      -9.7      2.069      6.962
REMARK  Name = 25113145
REMARK  2 active torsions:
REMARK  status: ('A' for Active; 'I' for Inactive)
REMARK    1  A    between atoms: N_3  and  C_13
REMARK    2  A    between atoms: C_18  and  C_20
REMARK                            x       y       z     vdW  Elec       q    Type
REMARK                         _______ _______ _______ _____ _____    ______ ____
ROOT
ATOM      1  O   UNL     1      34.023 -15.757 -21.182  0.00  0.00    -0.269 OA
ATOM      2  O   UNL     1      34.811 -18.723 -24.692  0.00  0.00    -0.269 OA
ATOM      3  N   UNL     1      34.568 -17.596 -22.602  0.00  0.00    -0.201 N 
ATOM      4  C   UNL     1      33.795 -15.647 -23.506  0.00  0.00    +0.055 C 
ATOM      5  C   UNL     1      34.059 -16.514 -24.547  0.00  0.00    +0.058 C 
ATOM      6  C   UNL     1      34.125 -16.325 -22.255  0.00  0.00    +0.259 C 
ATOM      7  C   UNL     1      34.547 -17.769 -23.981  0.00  0.00    +0.259 C 
ATOM      8  C   UNL     1      33.314 -14.371 -23.722  0.00  0.00    -0.017 C 
ATOM      9  C   UNL     1      33.851 -16.158 -25.865  0.00  0.00    +0.005 C 
ATOM     10  C   UNL     1      33.095 -13.986 -25.048  0.00  0.00    -0.004 C 
ATOM     11  C   UNL     1      33.362 -14.871 -26.110  0.00  0.00    -0.000 C 
ATOM     12  C   UNL     1      33.030 -13.421 -22.612  0.00  0.00    +0.031 C 
ENDROOT
BRANCH   3  13
ATOM     13  C   UNL     1      34.990 -18.594 -21.663  0.00  0.00    +0.061 C 
ATOM     14  C   UNL     1      34.054 -19.464 -21.103  0.00  0.00    +0.016 C 
ATOM     15  C   UNL     1      36.335 -18.695 -21.309  0.00  0.00    +0.016 C 
ATOM     16  C   UNL     1      34.465 -20.435 -20.189  0.00  0.00    +0.012 C 
ATOM     17  C   UNL     1      36.745 -19.665 -20.396  0.00  0.00    +0.012 C 
ATOM     18  C   UNL     1      35.810 -20.536 -19.836  0.00  0.00    +0.069 C 
BRANCH  18  20
ATOM     19  N   UNL     1      36.570 -22.339 -18.139  0.00  0.00    -0.191 NA
ATOM     20  C   UNL     1      36.229 -21.531 -18.899  0.00  0.00    +0.100 C 
ENDBRANCH  18  20
ENDBRANCH   3  13
TORSDOF 2
ENDMDL
MODEL 4
REMARK VINA RESULT:      -9.7      2.076      6.967
REMARK  Name = 25113145
REMARK  2 active torsions:
REMARK  status: ('A' for Active; 'I' for Inactive)
REMARK    1  A    between atoms: N_3  and  C_13
REMARK    2  A    between atoms: C_18  and  C_20
REMARK                            x       y       z     vdW  Elec       q    Type
REMARK                         _______ _______ _______ _____ _____    ______ ____
ROOT
ATOM      1  O   UNL     1      34.216 -15.703 -21.214  0.00  0.00    -0.269 OA
ATOM      2  O   UNL     1      34.693 -18.787 -24.677  0.00  0.00    -0.269 OA
ATOM      3  N   UNL     1      34.604 -17.599 -22.608  0.00  0.00    -0.201 N 
ATOM      4  C   UNL     1      33.880 -15.638 -23.526  0.00  0.00    +0.055 C 
ATOM      5  C   UNL     1      34.052 -16.542 -24.555  0.00  0.00    +0.058 C 
ATOM      6  C   UNL     1      34.238 -16.301 -22.275  0.00  0.00    +0.259 C 
ATOM      7  C   UNL     1      34.509 -17.805 -23.980  0.00  0.00    +0.259 C 
ATOM      8  C   UNL     1      33.449 -14.346 -23.753  0.00  0.00    -0.017 C 
ATOM      9  C   UNL     1      33.797 -16.208 -25.871  0.00  0.00    +0.005 C 
ATOM     10  C   UNL     1      33.184 -13.983 -25.076  0.00  0.00    -0.004 C 
ATOM     11  C   UNL     1      33.357 -14.906 -26.126  0.00  0.00    -0.000 C 
ATOM     12  C   UNL     1      33.264 -13.358 -22.656  0.00  0.00    +0.031 C 
ENDROOT
BRANCH   3  13
ATOM     13  C   UNL     1      35.024 -18.594 -21.664  0.00  0.00    +0.061 C 
ATOM     14  C   UNL     1      36.368 -18.687 -21.302  0.00  0.00    +0.016 C 
ATOM     15  C   UNL     1      34.090 -19.468 -21.110  0.00  0.00    +0.016 C 
ATOM     16  C   UNL     1      36.776 -19.655 -20.383  0.00  0.00    +0.012 C 
ATOM     17  C   UNL     1      34.498 -20.434 -20.192  0.00  0.00    +0.012 C 
ATOM     18  C   UNL     1      35.842 -20.529 -19.829  0.00  0.00    +0.069 C 
BRANCH  18  20
ATOM     19  N   UNL     1      36.601 -22.325 -18.125  0.00  0.00    -0.191 NA
ATOM     20  C   UNL     1      36.261 -21.520 -18.889  0.00  0.00    +0.100 C 
ENDBRANCH  18  20
ENDBRANCH   3  13
TORSDOF 2
ENDMDL
MODEL 5
REMARK VINA RESULT:      -9.6      7.906     10.442
REMARK  Name = 25113145
REMARK  2 active torsions:
REMARK  status: ('A' for Active; 'I' for Inactive)
REMARK    1  A    between atoms: N_3  and  C_13
REMARK    2  A    between atoms: C_18  and  C_20
REMARK                            x       y       z     vdW  Elec       q    Type
REMARK                         _______ _______ _______ _____ _____    ______ ____
ROOT
ATOM      1  O   UNL     1      33.512 -24.648 -13.063  0.00  0.00    -0.269 OA
ATOM      2  O   UNL     1      34.472 -23.438 -17.461  0.00  0.00    -0.269 OA
ATOM      3  N   UNL     1      34.476 -24.197 -15.198  0.00  0.00    -0.201 N 
ATOM      4  C   UNL     1      32.272 -23.736 -14.821  0.00  0.00    +0.055 C 
ATOM      5  C   UNL     1      32.564 -23.348 -16.114  0.00  0.00    +0.058 C 
ATOM      6  C   UNL     1      33.490 -24.274 -14.222  0.00  0.00    +0.259 C 
ATOM      7  C   UNL     1      33.971 -23.645 -16.370  0.00  0.00    +0.259 C 
ATOM      8  C   UNL     1      31.010 -23.585 -14.281  0.00  0.00    -0.017 C 
ATOM      9  C   UNL     1      31.610 -22.793 -16.942  0.00  0.00    +0.005 C 
ATOM     10  C   UNL     1      30.027 -23.024 -15.100  0.00  0.00    -0.004 C 
ATOM     11  C   UNL     1      30.324 -22.631 -16.419  0.00  0.00    -0.000 C 
ATOM     12  C   UNL     1      30.680 -23.992 -12.888  0.00  0.00    +0.031 C 
ENDROOT
BRANCH   3  13
ATOM     13  C   UNL     1      35.832 -24.630 -15.021  0.00  0.00    +0.061 C 
ATOM     14  C   UNL     1      36.140 -25.989 -15.057  0.00  0.00    +0.016 C 
ATOM     15  C   UNL     1      36.841 -23.691 -14.811  0.00  0.00    +0.016 C 
ATOM     16  C   UNL     1      37.459 -26.410 -14.885  0.00  0.00    +0.012 C 
ATOM     17  C   UNL     1      38.159 -24.111 -14.639  0.00  0.00    +0.012 C 
ATOM     18  C   UNL     1      38.468 -25.471 -14.676  0.00  0.00    +0.069 C 
BRANCH  18  20
ATOM     19  N   UNL     1      40.916 -26.254 -14.355  0.00  0.00    -0.191 NA
ATOM     20  C   UNL     1      39.819 -25.903 -14.499  0.00  0.00    +0.100 C 
ENDBRANCH  18  20
ENDBRANCH   3  13
TORSDOF 2
ENDMDL
MODEL 6
REMARK VINA RESULT:      -9.6      3.904      5.560
REMARK  Name = 25113145
REMARK  2 active torsions:
REMARK  status: ('A' for Active; 'I' for Inactive)
REMARK    1  A    between atoms: N_3  and  C_13
REMARK    2  A    between atoms: C_18  and  C_20
REMARK                            x       y       z     vdW  Elec       q    Type
REMARK                         _______ _______ _______ _____ _____    ______ ____
ROOT
ATOM      1  O   UNL     1      33.486 -15.542 -24.899  0.00  0.00    -0.269 OA
ATOM      2  O   UNL     1      34.626 -14.792 -20.441  0.00  0.00    -0.269 OA
ATOM      3  N   UNL     1      33.869 -14.692 -22.702  0.00  0.00    -0.201 N 
ATOM      4  C   UNL     1      34.483 -16.829 -23.221  0.00  0.00    +0.055 C 
ATOM      5  C   UNL     1      34.849 -16.596 -21.910  0.00  0.00    +0.058 C 
ATOM      6  C   UNL     1      33.861 -15.614 -23.742  0.00  0.00    +0.259 C 
ATOM      7  C   UNL     1      34.454 -15.233 -21.564  0.00  0.00    +0.259 C 
ATOM      8  C   UNL     1      34.722 -18.039 -23.842  0.00  0.00    -0.017 C 
ATOM      9  C   UNL     1      35.470 -17.561 -21.143  0.00  0.00    +0.005 C 
ATOM     10  C   UNL     1      35.350 -19.033 -23.087  0.00  0.00    -0.004 C 
ATOM     11  C   UNL     1      35.721 -18.796 -21.749  0.00  0.00    -0.000 C 
ATOM     12  C   UNL     1      34.339 -18.305 -25.255  0.00  0.00    +0.031 C 
ENDROOT
BRANCH   3  13
ATOM     13  C   UNL     1      33.342 -13.361 -22.792  0.00  0.00    +0.061 C 
ATOM     14  C   UNL     1      32.264 -12.983 -21.993  0.00  0.00    +0.016 C 
ATOM     15  C   UNL     1      33.908 -12.446 -23.679  0.00  0.00    +0.016 C 
ATOM     16  C   UNL     1      31.752 -11.688 -22.081  0.00  0.00    +0.012 C 
ATOM     17  C   UNL     1      33.397 -11.152 -23.766  0.00  0.00    +0.012 C 
ATOM     18  C   UNL     1      32.318 -10.772 -22.968  0.00  0.00    +0.069 C 
BRANCH  18  20
ATOM     19  N   UNL     1      31.367  -8.369 -23.130  0.00  0.00    -0.191 NA
ATOM     20  C   UNL     1      31.793  -9.446 -23.057  0.00  0.00    +0.100 C 
ENDBRANCH  18  20
ENDBRANCH   3  13
TORSDOF 2
ENDMDL
MODEL 7
REMARK VINA RESULT:      -9.4      5.830      9.652
REMARK  Name = 25113145
REMARK  2 active torsions:
REMARK  status: ('A' for Active; 'I' for Inactive)
REMARK    1  A    between atoms: N_3  and  C_13
REMARK    2  A    between atoms: C_18  and  C_20
REMARK                            x       y       z     vdW  Elec       q    Type
REMARK                         _______ _______ _______ _____ _____    ______ ____
ROOT
ATOM      1  O   UNL     1      34.775 -10.473 -24.867  0.00  0.00    -0.269 OA
ATOM      2  O   UNL     1      31.532 -11.970 -21.872  0.00  0.00    -0.269 OA
ATOM      3  N   UNL     1      33.242 -11.704 -23.515  0.00  0.00    -0.201 N 
ATOM      4  C   UNL     1      33.358  -9.432 -23.328  0.00  0.00    +0.055 C 
ATOM      5  C   UNL     1      32.376  -9.872 -22.464  0.00  0.00    +0.058 C 
ATOM      6  C   UNL     1      33.916 -10.595 -24.013  0.00  0.00    +0.259 C 
ATOM      7  C   UNL     1      32.296 -11.327 -22.569  0.00  0.00    +0.259 C 
ATOM      8  C   UNL     1      33.674  -8.093 -23.454  0.00  0.00    -0.017 C 
ATOM      9  C   UNL     1      31.656  -9.000 -21.672  0.00  0.00    +0.005 C 
ATOM     10  C   UNL     1      32.959  -7.190 -22.662  0.00  0.00    -0.004 C 
ATOM     11  C   UNL     1      31.958  -7.639 -21.779  0.00  0.00    -0.000 C 
ATOM     12  C   UNL     1      34.726  -7.601 -24.384  0.00  0.00    +0.031 C 
ENDROOT
BRANCH   3  13
ATOM     13  C   UNL     1      33.490 -13.056 -23.924  0.00  0.00    +0.061 C 
ATOM     14  C   UNL     1      34.190 -13.921 -23.083  0.00  0.00    +0.016 C 
ATOM     15  C   UNL     1      33.031 -13.507 -25.161  0.00  0.00    +0.016 C 
ATOM     16  C   UNL     1      34.431 -15.236 -23.480  0.00  0.00    +0.012 C 
ATOM     17  C   UNL     1      33.271 -14.821 -25.558  0.00  0.00    +0.012 C 
ATOM     18  C   UNL     1      33.972 -15.686 -24.717  0.00  0.00    +0.069 C 
BRANCH  18  20
ATOM     19  N   UNL     1      34.421 -18.129 -25.454  0.00  0.00    -0.191 NA
ATOM     20  C   UNL     1      34.220 -17.034 -25.124  0.00  0.00    +0.100 C 
ENDBRANCH  18  20
ENDBRANCH   3  13
TORSDOF 2
ENDMDL
MODEL 8
REMARK VINA RESULT:      -9.3      1.370      2.908
REMARK  Name = 25113145
REMARK  2 active torsions:
REMARK  status: ('A' for Active; 'I' for Inactive)
REMARK    1  A    between atoms: N_3  and  C_13
REMARK    2  A    between atoms: C_18  and  C_20
REMARK                            x       y       z     vdW  Elec       q    Type
REMARK                         _______ _______ _______ _____ _____    ______ ____
ROOT
ATOM      1  O   UNL     1      36.854 -20.126 -19.721  0.00  0.00    -0.269 OA
ATOM      2  O   UNL     1      32.370 -21.021 -20.632  0.00  0.00    -0.269 OA
ATOM      3  N   UNL     1      34.630 -20.255 -20.577  0.00  0.00    -0.201 N 
ATOM      4  C   UNL     1      35.223 -21.490 -18.750  0.00  0.00    +0.055 C 
ATOM      5  C   UNL     1      33.887 -21.730 -19.001  0.00  0.00    +0.058 C 
ATOM      6  C   UNL     1      35.709 -20.541 -19.748  0.00  0.00    +0.259 C 
ATOM      7  C   UNL     1      33.497 -20.951 -20.173  0.00  0.00    +0.259 C 
ATOM      8  C   UNL     1      35.889 -22.089 -17.699  0.00  0.00    -0.017 C 
ATOM      9  C   UNL     1      33.140 -22.589 -18.218  0.00  0.00    +0.005 C 
ATOM     10  C   UNL     1      35.155 -22.963 -16.892  0.00  0.00    -0.004 C 
ATOM     11  C   UNL     1      33.793 -23.210 -17.149  0.00  0.00    -0.000 C 
ATOM     12  C   UNL     1      37.327 -21.837 -17.412  0.00  0.00    +0.031 C 
ENDROOT
BRANCH   3  13
ATOM     13  C   UNL     1      34.680 -19.363 -21.698  0.00  0.00    +0.061 C 
ATOM     14  C   UNL     1      34.565 -17.987 -21.500  0.00  0.00    +0.016 C 
ATOM     15  C   UNL     1      34.843 -19.870 -22.987  0.00  0.00    +0.016 C 
ATOM     16  C   UNL     1      34.613 -17.119 -22.591  0.00  0.00    +0.012 C 
ATOM     17  C   UNL     1      34.892 -19.003 -24.077  0.00  0.00    +0.012 C 
ATOM     18  C   UNL     1      34.776 -17.627 -23.879  0.00  0.00    +0.069 C 
BRANCH  18  20
ATOM     19  N   UNL     1      34.865 -16.015 -25.905  0.00  0.00    -0.191 NA
ATOM     20  C   UNL     1      34.826 -16.737 -24.997  0.00  0.00    +0.100 C 
ENDBRANCH  18  20
ENDBRANCH   3  13
TORSDOF 2
ENDMDL
MODEL 9
REMARK VINA RESULT:      -9.2      7.632     10.761
REMARK  Name = 25113145
REMARK  2 active torsions:
REMARK  status: ('A' for Active; 'I' for Inactive)
REMARK    1  A    between atoms: N_3  and  C_13
REMARK    2  A    between atoms: C_18  and  C_20
REMARK                            x       y       z     vdW  Elec       q    Type
REMARK                         _______ _______ _______ _____ _____    ______ ____
ROOT
ATOM      1  O   UNL     1      34.673 -23.732 -16.923  0.00  0.00    -0.269 OA
ATOM      2  O   UNL     1      34.020 -24.589 -12.388  0.00  0.00    -0.269 OA
ATOM      3  N   UNL     1      34.828 -24.329 -14.619  0.00  0.00    -0.201 N 
ATOM      4  C   UNL     1      32.882 -23.469 -15.445  0.00  0.00    +0.055 C 
ATOM      5  C   UNL     1      32.679 -23.752 -14.109  0.00  0.00    +0.058 C 
ATOM      6  C   UNL     1      34.253 -23.841 -15.785  0.00  0.00    +0.259 C 
ATOM      7  C   UNL     1      33.920 -24.297 -13.566  0.00  0.00    +0.259 C 
ATOM      8  C   UNL     1      31.886 -22.935 -16.239  0.00  0.00    -0.017 C 
ATOM      9  C   UNL     1      31.469 -23.513 -13.488  0.00  0.00    +0.005 C 
ATOM     10  C   UNL     1      30.651 -22.684 -15.633  0.00  0.00    -0.004 C 
ATOM     11  C   UNL     1      30.445 -22.970 -14.270  0.00  0.00    -0.000 C 
ATOM     12  C   UNL     1      32.086 -22.629 -17.681  0.00  0.00    +0.031 C 
ENDROOT
BRANCH   3  13
ATOM     13  C   UNL     1      36.178 -24.803 -14.514  0.00  0.00    +0.061 C 
ATOM     14  C   UNL     1      37.160 -23.989 -13.948  0.00  0.00    +0.016 C 
ATOM     15  C   UNL     1      36.509 -26.075 -14.979  0.00  0.00    +0.016 C 
ATOM     16  C   UNL     1      38.473 -24.450 -13.846  0.00  0.00    +0.012 C 
ATOM     17  C   UNL     1      37.821 -26.535 -14.877  0.00  0.00    +0.012 C 
ATOM     18  C   UNL     1      38.804 -25.722 -14.311  0.00  0.00    +0.069 C 
BRANCH  18  20
ATOM     19  N   UNL     1      41.241 -26.576 -14.122  0.00  0.00    -0.191 NA
ATOM     20  C   UNL     1      40.149 -26.193 -14.207  0.00  0.00    +0.100 C 
ENDBRANCH  18  20
ENDBRANCH   3  13
TORSDOF 2
ENDMDL
