MODEL 1
REMARK VINA RESULT:      -4.7      0.000      0.000
REMARK  Name = 448503
REMARK  4 active torsions:
REMARK  status: ('A' for Active; 'I' for Inactive)
REMARK    1  A    between atoms: N_1  and  C_10
REMARK    2  A    between atoms: C_10  and  C_11
REMARK    3  A    between atoms: C_11  and  C_12
REMARK    4  A    between atoms: C_12  and  O_13
REMARK                            x       y       z     vdW  Elec       q    Type
REMARK                         _______ _______ _______ _____ _____    ______ ____
ROOT
ATOM      1  N   UNL     1      36.877 -26.157 -13.155  0.00  0.00    -0.347 N 
ATOM      2  N   UNL     1      36.095 -26.990 -15.304  0.00  0.00    -0.372 N 
ATOM      3  N   UNL     1      38.018 -25.559 -15.186  0.00  0.00    -0.372 N 
ATOM      4  C   UNL     1      36.988 -26.241 -14.545  0.00  0.00    +0.167 C 
ATOM      5  H   UNL     1      36.145 -26.641 -12.708  0.00  0.00    +0.163 HD
ATOM      6  H   UNL     1      35.362 -27.477 -14.863  0.00  0.00    +0.159 HD
ATOM      7  H   UNL     1      36.196 -27.033 -16.282  0.00  0.00    +0.159 HD
ATOM      8  H   UNL     1      38.657 -25.026 -14.661  0.00  0.00    +0.159 HD
ATOM      9  H   UNL     1      38.107 -25.611 -16.165  0.00  0.00    +0.159 HD
ENDROOT
BRANCH   1  10
ATOM     10  C   UNL     1      37.805 -25.376 -12.342  0.00  0.00    +0.103 C 
BRANCH  10  11
ATOM     11  C   UNL     1      37.134 -24.158 -11.723  0.00  0.00    +0.056 C 
BRANCH  11  12
ATOM     12  C   UNL     1      35.621 -24.307 -11.634  0.00  0.00    +0.139 C 
BRANCH  12  13
ATOM     13  O   UNL     1      35.308 -25.155 -10.537  0.00  0.00    -0.382 OA
ATOM     14  H   UNL     1      36.127 -25.437 -10.101  0.00  0.00    +0.210 HD
ENDBRANCH  12  13
ENDBRANCH  11  12
ENDBRANCH  10  11
ENDBRANCH   1  10
TORSDOF 4
ENDMDL
MODEL 2
REMARK VINA RESULT:      -4.5     12.414     13.208
REMARK  Name = 448503
REMARK  4 active torsions:
REMARK  status: ('A' for Active; 'I' for Inactive)
REMARK    1  A    between atoms: N_1  and  C_10
REMARK    2  A    between atoms: C_10  and  C_11
REMARK    3  A    between atoms: C_11  and  C_12
REMARK    4  A    between atoms: C_12  and  O_13
REMARK                            x       y       z     vdW  Elec       q    Type
REMARK                         _______ _______ _______ _____ _____    ______ ____
ROOT
ATOM      1  N   UNL     1      41.792 -13.028 -15.755  0.00  0.00    -0.347 N 
ATOM      2  N   UNL     1      40.643 -13.165 -13.614  0.00  0.00    -0.372 N 
ATOM      3  N   UNL     1      40.541 -14.994 -15.163  0.00  0.00    -0.372 N 
ATOM      4  C   UNL     1      40.994 -13.719 -14.840  0.00  0.00    +0.167 C 
ATOM      5  H   UNL     1      42.109 -12.125 -15.520  0.00  0.00    +0.163 HD
ATOM      6  H   UNL     1      40.957 -12.263 -13.373  0.00  0.00    +0.159 HD
ATOM      7  H   UNL     1      40.080 -13.673 -12.988  0.00  0.00    +0.159 HD
ATOM      8  H   UNL     1      40.783 -15.399 -16.028  0.00  0.00    +0.159 HD
ATOM      9  H   UNL     1      39.978 -15.492 -14.527  0.00  0.00    +0.159 HD
ENDROOT
BRANCH   1  10
ATOM     10  C   UNL     1      42.171 -13.593 -17.047  0.00  0.00    +0.103 C 
BRANCH  10  11
ATOM     11  C   UNL     1      43.569 -14.194 -17.018  0.00  0.00    +0.056 C 
BRANCH  11  12
ATOM     12  C   UNL     1      43.569 -15.690 -17.302  0.00  0.00    +0.139 C 
BRANCH  12  13
ATOM     13  O   UNL     1      43.002 -16.368 -16.188  0.00  0.00    -0.382 OA
ATOM     14  H   UNL     1      43.161 -17.320 -16.273  0.00  0.00    +0.210 HD
ENDBRANCH  12  13
ENDBRANCH  11  12
ENDBRANCH  10  11
ENDBRANCH   1  10
TORSDOF 4
ENDMDL
MODEL 3
REMARK VINA RESULT:      -4.5      3.340      3.988
REMARK  Name = 448503
REMARK  4 active torsions:
REMARK  status: ('A' for Active; 'I' for Inactive)
REMARK    1  A    between atoms: N_1  and  C_10
REMARK    2  A    between atoms: C_10  and  C_11
REMARK    3  A    between atoms: C_11  and  C_12
REMARK    4  A    between atoms: C_12  and  O_13
REMARK                            x       y       z     vdW  Elec       q    Type
REMARK                         _______ _______ _______ _____ _____    ______ ____
ROOT
ATOM      1  N   UNL     1      37.885 -25.550 -15.207  0.00  0.00    -0.347 N 
ATOM      2  N   UNL     1      35.938 -27.010 -15.182  0.00  0.00    -0.372 N 
ATOM      3  N   UNL     1      36.406 -25.583 -13.311  0.00  0.00    -0.372 N 
ATOM      4  C   UNL     1      36.744 -26.053 -14.576  0.00  0.00    +0.167 C 
ATOM      5  H   UNL     1      38.119 -25.887 -16.102  0.00  0.00    +0.163 HD
ATOM      6  H   UNL     1      36.166 -27.350 -16.078  0.00  0.00    +0.159 HD
ATOM      7  H   UNL     1      35.140 -27.348 -14.717  0.00  0.00    +0.159 HD
ATOM      8  H   UNL     1      36.967 -24.905 -12.871  0.00  0.00    +0.159 HD
ATOM      9  H   UNL     1      35.604 -25.929 -12.856  0.00  0.00    +0.159 HD
ENDROOT
BRANCH   1  10
ATOM     10  C   UNL     1      38.743 -24.545 -14.586  0.00  0.00    +0.103 C 
BRANCH  10  11
ATOM     11  C   UNL     1      39.914 -25.174 -13.846  0.00  0.00    +0.056 C 
BRANCH  11  12
ATOM     12  C   UNL     1      40.568 -26.301 -14.636  0.00  0.00    +0.139 C 
BRANCH  12  13
ATOM     13  O   UNL     1      40.538 -25.968 -16.017  0.00  0.00    -0.382 OA
ATOM     14  H   UNL     1      41.440 -25.799 -16.329  0.00  0.00    +0.210 HD
ENDBRANCH  12  13
ENDBRANCH  11  12
ENDBRANCH  10  11
ENDBRANCH   1  10
TORSDOF 4
ENDMDL
MODEL 4
REMARK VINA RESULT:      -4.5      2.174      2.616
REMARK  Name = 448503
REMARK  4 active torsions:
REMARK  status: ('A' for Active; 'I' for Inactive)
REMARK    1  A    between atoms: N_1  and  C_10
REMARK    2  A    between atoms: C_10  and  C_11
REMARK    3  A    between atoms: C_11  and  C_12
REMARK    4  A    between atoms: C_12  and  O_13
REMARK                            x       y       z     vdW  Elec       q    Type
REMARK                         _______ _______ _______ _____ _____    ______ ____
ROOT
ATOM      1  N   UNL     1      38.377 -26.012 -13.151  0.00  0.00    -0.347 N 
ATOM      2  N   UNL     1      40.558 -26.372 -14.169  0.00  0.00    -0.372 N 
ATOM      3  N   UNL     1      38.987 -24.861 -15.172  0.00  0.00    -0.372 N 
ATOM      4  C   UNL     1      39.311 -25.755 -14.157  0.00  0.00    +0.167 C 
ATOM      5  H   UNL     1      38.613 -26.647 -12.436  0.00  0.00    +0.163 HD
ATOM      6  H   UNL     1      40.800 -27.007 -13.457  0.00  0.00    +0.159 HD
ATOM      7  H   UNL     1      41.198 -26.173 -14.890  0.00  0.00    +0.159 HD
ATOM      8  H   UNL     1      38.108 -24.417 -15.176  0.00  0.00    +0.159 HD
ATOM      9  H   UNL     1      39.637 -24.671 -15.887  0.00  0.00    +0.159 HD
ENDROOT
BRANCH   1  10
ATOM     10  C   UNL     1      37.063 -25.375 -13.122  0.00  0.00    +0.103 C 
BRANCH  10  11
ATOM     11  C   UNL     1      36.856 -24.555 -11.857  0.00  0.00    +0.056 C 
BRANCH  11  12
ATOM     12  C   UNL     1      37.456 -23.159 -11.960  0.00  0.00    +0.139 C 
BRANCH  12  13
ATOM     13  O   UNL     1      38.846 -23.236 -11.672  0.00  0.00    -0.382 OA
ATOM     14  H   UNL     1      39.352 -23.150 -12.494  0.00  0.00    +0.210 HD
ENDBRANCH  12  13
ENDBRANCH  11  12
ENDBRANCH  10  11
ENDBRANCH   1  10
TORSDOF 4
ENDMDL
MODEL 5
REMARK VINA RESULT:      -4.4      3.961      4.739
REMARK  Name = 448503
REMARK  4 active torsions:
REMARK  status: ('A' for Active; 'I' for Inactive)
REMARK    1  A    between atoms: N_1  and  C_10
REMARK    2  A    between atoms: C_10  and  C_11
REMARK    3  A    between atoms: C_11  and  C_12
REMARK    4  A    between atoms: C_12  and  O_13
REMARK                            x       y       z     vdW  Elec       q    Type
REMARK                         _______ _______ _______ _____ _____    ______ ____
ROOT
ATOM      1  N   UNL     1      38.239 -23.631 -15.684  0.00  0.00    -0.347 N 
ATOM      2  N   UNL     1      37.394 -21.469 -16.415  0.00  0.00    -0.372 N 
ATOM      3  N   UNL     1      36.006 -22.937 -15.122  0.00  0.00    -0.372 N 
ATOM      4  C   UNL     1      37.222 -22.676 -15.746  0.00  0.00    +0.167 C 
ATOM      5  H   UNL     1      39.096 -23.440 -16.128  0.00  0.00    +0.163 HD
ATOM      6  H   UNL     1      38.250 -21.271 -16.861  0.00  0.00    +0.159 HD
ATOM      7  H   UNL     1      36.662 -20.813 -16.444  0.00  0.00    +0.159 HD
ATOM      8  H   UNL     1      35.870 -23.787 -14.644  0.00  0.00    +0.159 HD
ATOM      9  H   UNL     1      35.281 -22.271 -15.158  0.00  0.00    +0.159 HD
ENDROOT
BRANCH   1  10
ATOM     10  C   UNL     1      38.075 -24.903 -14.986  0.00  0.00    +0.103 C 
BRANCH  10  11
ATOM     11  C   UNL     1      39.191 -25.149 -13.981  0.00  0.00    +0.056 C 
BRANCH  11  12
ATOM     12  C   UNL     1      40.367 -25.905 -14.587  0.00  0.00    +0.139 C 
BRANCH  12  13
ATOM     13  O   UNL     1      40.285 -25.821 -16.003  0.00  0.00    -0.382 OA
ATOM     14  H   UNL     1      41.170 -25.678 -16.371  0.00  0.00    +0.210 HD
ENDBRANCH  12  13
ENDBRANCH  11  12
ENDBRANCH  10  11
ENDBRANCH   1  10
TORSDOF 4
ENDMDL
MODEL 6
REMARK VINA RESULT:      -4.4      1.518      1.637
REMARK  Name = 448503
REMARK  4 active torsions:
REMARK  status: ('A' for Active; 'I' for Inactive)
REMARK    1  A    between atoms: N_1  and  C_10
REMARK    2  A    between atoms: C_10  and  C_11
REMARK    3  A    between atoms: C_11  and  C_12
REMARK    4  A    between atoms: C_12  and  O_13
REMARK                            x       y       z     vdW  Elec       q    Type
REMARK                         _______ _______ _______ _____ _____    ______ ____
ROOT
ATOM      1  N   UNL     1      36.880 -26.374 -13.347  0.00  0.00    -0.347 N 
ATOM      2  N   UNL     1      36.442 -27.102 -15.628  0.00  0.00    -0.372 N 
ATOM      3  N   UNL     1      38.042 -25.367 -15.195  0.00  0.00    -0.372 N 
ATOM      4  C   UNL     1      37.114 -26.288 -14.721  0.00  0.00    +0.167 C 
ATOM      5  H   UNL     1      36.221 -27.028 -13.018  0.00  0.00    +0.163 HD
ATOM      6  H   UNL     1      35.782 -27.758 -15.305  0.00  0.00    +0.159 HD
ATOM      7  H   UNL     1      36.625 -27.021 -16.591  0.00  0.00    +0.159 HD
ATOM      8  H   UNL     1      38.525 -24.786 -14.565  0.00  0.00    +0.159 HD
ATOM      9  H   UNL     1      38.216 -25.297 -16.162  0.00  0.00    +0.159 HD
ENDROOT
BRANCH   1  10
ATOM     10  C   UNL     1      37.576 -25.529 -12.381  0.00  0.00    +0.103 C 
BRANCH  10  11
ATOM     11  C   UNL     1      36.658 -24.472 -11.784  0.00  0.00    +0.056 C 
BRANCH  11  12
ATOM     12  C   UNL     1      37.237 -23.067 -11.888  0.00  0.00    +0.139 C 
BRANCH  12  13
ATOM     13  O   UNL     1      38.635 -23.129 -11.643  0.00  0.00    -0.382 OA
ATOM     14  H   UNL     1      38.873 -24.019 -11.342  0.00  0.00    +0.210 HD
ENDBRANCH  12  13
ENDBRANCH  11  12
ENDBRANCH  10  11
ENDBRANCH   1  10
TORSDOF 4
ENDMDL
MODEL 7
REMARK VINA RESULT:      -4.4     12.063     12.567
REMARK  Name = 448503
REMARK  4 active torsions:
REMARK  status: ('A' for Active; 'I' for Inactive)
REMARK    1  A    between atoms: N_1  and  C_10
REMARK    2  A    between atoms: C_10  and  C_11
REMARK    3  A    between atoms: C_11  and  C_12
REMARK    4  A    between atoms: C_12  and  O_13
REMARK                            x       y       z     vdW  Elec       q    Type
REMARK                         _______ _______ _______ _____ _____    ______ ____
ROOT
ATOM      1  N   UNL     1      35.145 -17.399 -20.713  0.00  0.00    -0.347 N 
ATOM      2  N   UNL     1      36.692 -19.276 -20.632  0.00  0.00    -0.372 N 
ATOM      3  N   UNL     1      35.071 -19.117 -22.394  0.00  0.00    -0.372 N 
ATOM      4  C   UNL     1      35.641 -18.595 -21.237  0.00  0.00    +0.167 C 
ATOM      5  H   UNL     1      35.552 -17.035 -19.894  0.00  0.00    +0.163 HD
ATOM      6  H   UNL     1      37.104 -18.917 -19.813  0.00  0.00    +0.159 HD
ATOM      7  H   UNL     1      37.023 -20.117 -21.022  0.00  0.00    +0.159 HD
ATOM      8  H   UNL     1      34.327 -18.645 -22.833  0.00  0.00    +0.159 HD
ATOM      9  H   UNL     1      35.412 -19.959 -22.774  0.00  0.00    +0.159 HD
ENDROOT
BRANCH   1  10
ATOM     10  C   UNL     1      34.042 -16.670 -21.335  0.00  0.00    +0.103 C 
BRANCH  10  11
ATOM     11  C   UNL     1      34.486 -15.320 -21.878  0.00  0.00    +0.056 C 
BRANCH  11  12
ATOM     12  C   UNL     1      34.697 -15.336 -23.386  0.00  0.00    +0.139 C 
BRANCH  12  13
ATOM     13  O   UNL     1      35.746 -16.246 -23.691  0.00  0.00    -0.382 OA
ATOM     14  H   UNL     1      35.436 -17.155 -23.560  0.00  0.00    +0.210 HD
ENDBRANCH  12  13
ENDBRANCH  11  12
ENDBRANCH  10  11
ENDBRANCH   1  10
TORSDOF 4
ENDMDL
MODEL 8
REMARK VINA RESULT:      -4.3     12.070     12.765
REMARK  Name = 448503
REMARK  4 active torsions:
REMARK  status: ('A' for Active; 'I' for Inactive)
REMARK    1  A    between atoms: N_1  and  C_10
REMARK    2  A    between atoms: C_10  and  C_11
REMARK    3  A    between atoms: C_11  and  C_12
REMARK    4  A    between atoms: C_12  and  O_13
REMARK                            x       y       z     vdW  Elec       q    Type
REMARK                         _______ _______ _______ _____ _____    ______ ____
ROOT
ATOM      1  N   UNL     1      34.474 -19.269 -22.832  0.00  0.00    -0.347 N 
ATOM      2  N   UNL     1      33.581 -19.660 -20.602  0.00  0.00    -0.372 N 
ATOM      3  N   UNL     1      35.437 -18.173 -20.921  0.00  0.00    -0.372 N 
ATOM      4  C   UNL     1      34.489 -19.041 -21.454  0.00  0.00    +0.167 C 
ATOM      5  H   UNL     1      33.801 -19.885 -23.203  0.00  0.00    +0.163 HD
ATOM      6  H   UNL     1      32.905 -20.276 -20.967  0.00  0.00    +0.159 HD
ATOM      7  H   UNL     1      33.613 -19.482 -19.635  0.00  0.00    +0.159 HD
ATOM      8  H   UNL     1      36.086 -17.728 -21.512  0.00  0.00    +0.159 HD
ATOM      9  H   UNL     1      35.458 -18.004 -19.951  0.00  0.00    +0.159 HD
ENDROOT
BRANCH   1  10
ATOM     10  C   UNL     1      35.420 -18.629 -23.742  0.00  0.00    +0.103 C 
BRANCH  10  11
ATOM     11  C   UNL     1      34.719 -17.747 -24.765  0.00  0.00    +0.056 C 
BRANCH  11  12
ATOM     12  C   UNL     1      34.629 -16.293 -24.320  0.00  0.00    +0.139 C 
BRANCH  12  13
ATOM     13  O   UNL     1      35.557 -16.079 -23.264  0.00  0.00    -0.382 OA
ATOM     14  H   UNL     1      35.944 -15.194 -23.348  0.00  0.00    +0.210 HD
ENDBRANCH  12  13
ENDBRANCH  11  12
ENDBRANCH  10  11
ENDBRANCH   1  10
TORSDOF 4
ENDMDL
MODEL 9
REMARK VINA RESULT:      -4.3      2.859      3.394
REMARK  Name = 448503
REMARK  4 active torsions:
REMARK  status: ('A' for Active; 'I' for Inactive)
REMARK    1  A    between atoms: N_1  and  C_10
REMARK    2  A    between atoms: C_10  and  C_11
REMARK    3  A    between atoms: C_11  and  C_12
REMARK    4  A    between atoms: C_12  and  O_13
REMARK                            x       y       z     vdW  Elec       q    Type
REMARK                         _______ _______ _______ _____ _____    ______ ____
ROOT
ATOM      1  N   UNL     1      38.968 -25.712 -13.270  0.00  0.00    -0.347 N 
ATOM      2  N   UNL     1      40.946 -26.804 -14.174  0.00  0.00    -0.372 N 
ATOM      3  N   UNL     1      39.815 -25.106 -15.437  0.00  0.00    -0.372 N 
ATOM      4  C   UNL     1      39.911 -25.881 -14.286  0.00  0.00    +0.167 C 
ATOM      5  H   UNL     1      39.041 -26.265 -12.458  0.00  0.00    +0.163 HD
ATOM      6  H   UNL     1      41.025 -27.359 -13.364  0.00  0.00    +0.159 HD
ATOM      7  H   UNL     1      41.598 -26.903 -14.904  0.00  0.00    +0.159 HD
ATOM      8  H   UNL     1      39.089 -24.448 -15.529  0.00  0.00    +0.159 HD
ATOM      9  H   UNL     1      40.475 -25.215 -16.160  0.00  0.00    +0.159 HD
ENDROOT
BRANCH   1  10
ATOM     10  C   UNL     1      37.875 -24.748 -13.370  0.00  0.00    +0.103 C 
BRANCH  10  11
ATOM     11  C   UNL     1      36.526 -25.432 -13.538  0.00  0.00    +0.056 C 
BRANCH  11  12
ATOM     12  C   UNL     1      36.070 -25.475 -14.991  0.00  0.00    +0.139 C 
BRANCH  12  13
ATOM     13  O   UNL     1      36.940 -26.331 -15.719  0.00  0.00    -0.382 OA
ATOM     14  H   UNL     1      37.685 -26.591 -15.156  0.00  0.00    +0.210 HD
ENDBRANCH  12  13
ENDBRANCH  11  12
ENDBRANCH  10  11
ENDBRANCH   1  10
TORSDOF 4
ENDMDL
