MODEL 1
REMARK VINA RESULT:     -11.3      0.000      0.000
REMARK  Name = 5288017
REMARK  6 active torsions:
REMARK  status: ('A' for Active; 'I' for Inactive)
REMARK    1  A    between atoms: C_4  and  C_15
REMARK    2  A    between atoms: C_10  and  N_22
REMARK    3  A    between atoms: C_23  and  C_25
REMARK    4  A    between atoms: C_25  and  N_26
REMARK    5  A    between atoms: C_27  and  C_33
REMARK    6  A    between atoms: C_33  and  N_34
REMARK                            x       y       z     vdW  Elec       q    Type
REMARK                         _______ _______ _______ _____ _____    ______ ____
ROOT
ATOM      1  O   UNL     1      32.271  -9.739 -24.242  0.00  0.00    -0.286 OA
ATOM      2  N   UNL     1      32.075  -5.843 -22.077  0.00  0.00    -0.280 N 
ATOM      3  N   UNL     1      31.905  -6.528 -20.912  0.00  0.00    -0.173 NA
ATOM      4  C   UNL     1      32.205  -6.637 -23.199  0.00  0.00    +0.056 A 
ATOM      5  C   UNL     1      32.111  -7.906 -22.720  0.00  0.00    +0.071 A 
ATOM      6  C   UNL     1      31.930  -7.784 -21.334  0.00  0.00    +0.105 A 
ATOM      7  C   UNL     1      32.132  -9.285 -23.125  0.00  0.00    +0.199 C 
ATOM      8  C   UNL     1      31.943 -10.024 -21.827  0.00  0.00    +0.054 C 
ATOM      9  C   UNL     1      31.823  -9.090 -20.761  0.00  0.00    +0.024 C 
ATOM     10  C   UNL     1      31.879 -11.369 -21.596  0.00  0.00    +0.053 C 
ATOM     11  C   UNL     1      31.641  -9.500 -19.461  0.00  0.00    +0.002 C 
ATOM     12  C   UNL     1      31.696 -11.808 -20.294  0.00  0.00    +0.015 C 
ATOM     13  C   UNL     1      31.579 -10.880 -19.234  0.00  0.00    +0.001 C 
ATOM     14  H   UNL     1      32.104  -4.860 -22.116  0.00  0.00    +0.189 HD
ENDROOT
BRANCH   4  15
ATOM     15  C   UNL     1      32.404  -6.061 -24.594  0.00  0.00    +0.040 C 
ATOM     16  C   UNL     1      31.834  -4.639 -24.712  0.00  0.00    +0.006 C 
ATOM     17  C   UNL     1      33.880  -6.106 -25.026  0.00  0.00    +0.006 C 
ATOM     18  C   UNL     1      32.031  -4.073 -26.118  0.00  0.00    +0.000 C 
ATOM     19  C   UNL     1      34.067  -5.535 -26.430  0.00  0.00    +0.000 C 
ATOM     20  C   UNL     1      33.496  -4.125 -26.546  0.00  0.00    +0.000 C 
ENDBRANCH   4  15
BRANCH  10  22
ATOM     21  O   UNL     1      34.247 -12.109 -23.285  0.00  0.00    -0.277 OA
ATOM     22  N   UNL     1      31.998 -12.311 -22.647  0.00  0.00    -0.286 N 
ATOM     23  C   UNL     1      33.134 -12.612 -23.394  0.00  0.00    +0.205 C 
ATOM     24  H   UNL     1      31.182 -12.813 -22.874  0.00  0.00    +0.155 HD
BRANCH  23  25
ATOM     25  C   UNL     1      32.817 -13.686 -24.420  0.00  0.00    +0.010 C 
BRANCH  25  26
ATOM     26  N   UNL     1      33.762 -14.793 -24.272  0.00  0.00    +0.393 N 
ATOM     27  C   UNL     1      34.518 -17.600 -23.890  0.00  0.00    -0.026 C 
ATOM     28  C   UNL     1      34.606 -16.903 -25.252  0.00  0.00    -0.025 C 
ATOM     29  C   UNL     1      34.619 -16.561 -22.768  0.00  0.00    -0.025 C 
ATOM     30  C   UNL     1      33.590 -15.765 -25.362  0.00  0.00    -0.077 C 
ATOM     31  C   UNL     1      33.602 -15.435 -22.960  0.00  0.00    -0.077 C 
ATOM     32  H   UNL     1      34.710 -14.423 -24.328  0.00  0.00    -0.079 HD
BRANCH  27  33
ATOM     33  C   UNL     1      35.600 -18.667 -23.748  0.00  0.00    -0.086 C 
BRANCH  33  34
ATOM     34  N   UNL     1      36.549 -18.310 -22.704  0.00  0.00    +0.380 N 
ATOM     35  H   UNL     1      36.543 -17.299 -22.571  0.00  0.00    -0.089 HD
ATOM     36  H   UNL     1      37.485 -18.611 -22.977  0.00  0.00    -0.089 HD
ATOM     37  H   UNL     1      36.284 -18.769 -21.833  0.00  0.00    -0.089 HD
ENDBRANCH  33  34
ENDBRANCH  27  33
ENDBRANCH  25  26
ENDBRANCH  23  25
ENDBRANCH  10  22
TORSDOF 6
ENDMDL
MODEL 2
REMARK VINA RESULT:     -11.2     11.252     15.094
REMARK  Name = 5288017
REMARK  6 active torsions:
REMARK  status: ('A' for Active; 'I' for Inactive)
REMARK    1  A    between atoms: C_4  and  C_15
REMARK    2  A    between atoms: C_10  and  N_22
REMARK    3  A    between atoms: C_23  and  C_25
REMARK    4  A    between atoms: C_25  and  N_26
REMARK    5  A    between atoms: C_27  and  C_33
REMARK    6  A    between atoms: C_33  and  N_34
REMARK                            x       y       z     vdW  Elec       q    Type
REMARK                         _______ _______ _______ _____ _____    ______ ____
ROOT
ATOM      1  O   UNL     1      33.213 -23.332 -16.872  0.00  0.00    -0.286 OA
ATOM      2  N   UNL     1      37.105 -21.507 -18.067  0.00  0.00    -0.280 N 
ATOM      3  N   UNL     1      37.633 -21.919 -16.881  0.00  0.00    -0.173 NA
ATOM      4  C   UNL     1      35.778 -21.839 -18.254  0.00  0.00    +0.056 A 
ATOM      5  C   UNL     1      35.438 -22.502 -17.116  0.00  0.00    +0.071 A 
ATOM      6  C   UNL     1      36.594 -22.522 -16.321  0.00  0.00    +0.105 A 
ATOM      7  C   UNL     1      34.344 -23.169 -16.465  0.00  0.00    +0.199 C 
ATOM      8  C   UNL     1      34.946 -23.615 -15.159  0.00  0.00    +0.054 C 
ATOM      9  C   UNL     1      36.308 -23.210 -15.100  0.00  0.00    +0.024 C 
ATOM     10  C   UNL     1      34.370 -24.301 -14.128  0.00  0.00    +0.053 C 
ATOM     11  C   UNL     1      37.097 -23.492 -14.009  0.00  0.00    +0.002 C 
ATOM     12  C   UNL     1      35.144 -24.598 -13.017  0.00  0.00    +0.015 C 
ATOM     13  C   UNL     1      36.498 -24.196 -12.958  0.00  0.00    +0.001 C 
ATOM     14  H   UNL     1      37.628 -21.013 -18.739  0.00  0.00    +0.189 HD
ENDROOT
BRANCH   4  15
ATOM     15  C   UNL     1      35.008 -21.470 -19.513  0.00  0.00    +0.040 C 
ATOM     16  C   UNL     1      33.548 -21.100 -19.203  0.00  0.00    +0.006 C 
ATOM     17  C   UNL     1      35.708 -20.352 -20.305  0.00  0.00    +0.006 C 
ATOM     18  C   UNL     1      32.781 -20.739 -20.475  0.00  0.00    +0.000 C 
ATOM     19  C   UNL     1      34.931 -19.996 -21.571  0.00  0.00    +0.000 C 
ATOM     20  C   UNL     1      33.482 -19.634 -21.261  0.00  0.00    +0.000 C 
ENDBRANCH   4  15
BRANCH  10  22
ATOM     21  O   UNL     1      31.951 -23.179 -12.750  0.00  0.00    -0.277 OA
ATOM     22  N   UNL     1      33.016 -24.713 -14.172  0.00  0.00    -0.286 N 
ATOM     23  C   UNL     1      31.932 -24.144 -13.507  0.00  0.00    +0.205 C 
ATOM     24  H   UNL     1      32.817 -25.491 -14.742  0.00  0.00    +0.155 HD
BRANCH  23  25
ATOM     25  C   UNL     1      30.657 -24.899 -13.839  0.00  0.00    +0.010 C 
BRANCH  25  26
ATOM     26  N   UNL     1      30.021 -24.291 -15.008  0.00  0.00    +0.393 N 
ATOM     27  C   UNL     1      27.811 -23.040 -16.475  0.00  0.00    -0.026 C 
ATOM     28  C   UNL     1      29.005 -22.238 -15.944  0.00  0.00    -0.025 C 
ATOM     29  C   UNL     1      28.225 -24.499 -16.697  0.00  0.00    -0.025 C 
ATOM     30  C   UNL     1      29.624 -22.907 -14.715  0.00  0.00    -0.077 C 
ATOM     31  C   UNL     1      28.869 -25.092 -15.443  0.00  0.00    -0.077 C 
ATOM     32  H   UNL     1      30.696 -24.269 -15.772  0.00  0.00    -0.079 HD
BRANCH  27  33
ATOM     33  C   UNL     1      27.262 -22.423 -17.758  0.00  0.00    -0.086 C 
BRANCH  33  34
ATOM     34  N   UNL     1      26.274 -21.397 -17.459  0.00  0.00    +0.380 N 
ATOM     35  H   UNL     1      25.342 -21.809 -17.472  0.00  0.00    -0.089 HD
ATOM     36  H   UNL     1      26.329 -20.658 -18.160  0.00  0.00    -0.089 HD
ATOM     37  H   UNL     1      26.460 -21.005 -16.536  0.00  0.00    -0.089 HD
ENDBRANCH  33  34
ENDBRANCH  27  33
ENDBRANCH  25  26
ENDBRANCH  23  25
ENDBRANCH  10  22
TORSDOF 6
ENDMDL
MODEL 3
REMARK VINA RESULT:     -11.0      8.164     14.320
REMARK  Name = 5288017
REMARK  6 active torsions:
REMARK  status: ('A' for Active; 'I' for Inactive)
REMARK    1  A    between atoms: C_4  and  C_15
REMARK    2  A    between atoms: C_10  and  N_22
REMARK    3  A    between atoms: C_23  and  C_25
REMARK    4  A    between atoms: C_25  and  N_26
REMARK    5  A    between atoms: C_27  and  C_33
REMARK    6  A    between atoms: C_33  and  N_34
REMARK                            x       y       z     vdW  Elec       q    Type
REMARK                         _______ _______ _______ _____ _____    ______ ____
ROOT
ATOM      1  O   UNL     1      32.413 -22.438 -17.995  0.00  0.00    -0.286 OA
ATOM      2  N   UNL     1      32.377 -24.150 -13.875  0.00  0.00    -0.280 N 
ATOM      3  N   UNL     1      33.733 -24.022 -13.838  0.00  0.00    -0.173 NA
ATOM      4  C   UNL     1      31.790 -23.724 -15.050  0.00  0.00    +0.056 A 
ATOM      5  C   UNL     1      32.836 -23.300 -15.809  0.00  0.00    +0.071 A 
ATOM      6  C   UNL     1      33.985 -23.502 -15.030  0.00  0.00    +0.105 A 
ATOM      7  C   UNL     1      33.164 -22.735 -17.089  0.00  0.00    +0.199 C 
ATOM      8  C   UNL     1      34.663 -22.602 -17.029  0.00  0.00    +0.054 C 
ATOM      9  C   UNL     1      35.132 -23.074 -15.772  0.00  0.00    +0.024 C 
ATOM     10  C   UNL     1      35.529 -22.122 -17.969  0.00  0.00    +0.053 C 
ATOM     11  C   UNL     1      36.469 -23.065 -15.452  0.00  0.00    +0.002 C 
ATOM     12  C   UNL     1      36.883 -22.102 -17.671  0.00  0.00    +0.015 C 
ATOM     13  C   UNL     1      37.350 -22.570 -16.421  0.00  0.00    +0.001 C 
ATOM     14  H   UNL     1      31.857 -24.515 -13.124  0.00  0.00    +0.189 HD
ENDROOT
BRANCH   4  15
ATOM     15  C   UNL     1      30.288 -23.784 -15.287  0.00  0.00    +0.040 C 
ATOM     16  C   UNL     1      29.661 -22.381 -15.339  0.00  0.00    +0.006 C 
ATOM     17  C   UNL     1      29.939 -24.597 -16.545  0.00  0.00    +0.006 C 
ATOM     18  C   UNL     1      28.151 -22.453 -15.568  0.00  0.00    +0.000 C 
ATOM     19  C   UNL     1      28.429 -24.658 -16.768  0.00  0.00    +0.000 C 
ATOM     20  C   UNL     1      27.809 -23.264 -16.815  0.00  0.00    +0.000 C 
ENDBRANCH   4  15
BRANCH  10  22
ATOM     21  O   UNL     1      36.668 -20.012 -19.774  0.00  0.00    -0.277 OA
ATOM     22  N   UNL     1      35.077 -21.648 -19.224  0.00  0.00    -0.286 N 
ATOM     23  C   UNL     1      35.657 -20.661 -20.019  0.00  0.00    +0.205 C 
ATOM     24  H   UNL     1      34.259 -22.066 -19.577  0.00  0.00    +0.155 HD
BRANCH  23  25
ATOM     25  C   UNL     1      34.845 -20.466 -21.288  0.00  0.00    +0.010 C 
BRANCH  25  26
ATOM     26  N   UNL     1      35.073 -19.117 -21.808  0.00  0.00    +0.393 N 
ATOM     27  C   UNL     1      34.294 -16.618 -23.128  0.00  0.00    -0.026 C 
ATOM     28  C   UNL     1      34.478 -16.724 -21.610  0.00  0.00    -0.025 C 
ATOM     29  C   UNL     1      35.136 -17.690 -23.828  0.00  0.00    -0.025 C 
ATOM     30  C   UNL     1      34.214 -18.147 -21.115  0.00  0.00    -0.077 C 
ATOM     31  C   UNL     1      34.849 -19.081 -23.260  0.00  0.00    -0.077 C 
ATOM     32  H   UNL     1      36.044 -18.859 -21.633  0.00  0.00    -0.079 HD
BRANCH  27  33
ATOM     33  C   UNL     1      34.656 -15.222 -23.629  0.00  0.00    -0.086 C 
BRANCH  33  34
ATOM     34  N   UNL     1      34.545 -14.241 -22.559  0.00  0.00    +0.380 N 
ATOM     35  H   UNL     1      33.580 -13.919 -22.493  0.00  0.00    -0.089 HD
ATOM     36  H   UNL     1      35.155 -13.449 -22.759  0.00  0.00    -0.089 HD
ATOM     37  H   UNL     1      34.820 -14.669 -21.675  0.00  0.00    -0.089 HD
ENDBRANCH  33  34
ENDBRANCH  27  33
ENDBRANCH  25  26
ENDBRANCH  23  25
ENDBRANCH  10  22
TORSDOF 6
ENDMDL
MODEL 4
REMARK VINA RESULT:     -11.0      8.961     14.822
REMARK  Name = 5288017
REMARK  6 active torsions:
REMARK  status: ('A' for Active; 'I' for Inactive)
REMARK    1  A    between atoms: C_4  and  C_15
REMARK    2  A    between atoms: C_10  and  N_22
REMARK    3  A    between atoms: C_23  and  C_25
REMARK    4  A    between atoms: C_25  and  N_26
REMARK    5  A    between atoms: C_27  and  C_33
REMARK    6  A    between atoms: C_33  and  N_34
REMARK                            x       y       z     vdW  Elec       q    Type
REMARK                         _______ _______ _______ _____ _____    ______ ____
ROOT
ATOM      1  O   UNL     1      32.611 -22.840 -17.313  0.00  0.00    -0.286 OA
ATOM      2  N   UNL     1      31.512 -24.321 -13.251  0.00  0.00    -0.280 N 
ATOM      3  N   UNL     1      32.835 -24.336 -12.927  0.00  0.00    -0.173 NA
ATOM      4  C   UNL     1      31.239 -23.898 -14.536  0.00  0.00    +0.056 A 
ATOM      5  C   UNL     1      32.463 -23.627 -15.064  0.00  0.00    +0.071 A 
ATOM      6  C   UNL     1      33.391 -23.909 -14.051  0.00  0.00    +0.105 A 
ATOM      7  C   UNL     1      33.116 -23.168 -16.259  0.00  0.00    +0.199 C 
ATOM      8  C   UNL     1      34.573 -23.191 -15.882  0.00  0.00    +0.054 C 
ATOM      9  C   UNL     1      34.709 -23.644 -14.540  0.00  0.00    +0.024 C 
ATOM     10  C   UNL     1      35.667 -22.856 -16.627  0.00  0.00    +0.053 C 
ATOM     11  C   UNL     1      35.942 -23.760 -13.940  0.00  0.00    +0.002 C 
ATOM     12  C   UNL     1      36.921 -22.964 -16.045  0.00  0.00    +0.015 C 
ATOM     13  C   UNL     1      37.058 -23.413 -14.711  0.00  0.00    +0.001 C 
ATOM     14  H   UNL     1      30.807 -24.590 -12.619  0.00  0.00    +0.189 HD
ENDROOT
BRANCH   4  15
ATOM     15  C   UNL     1      29.823 -23.810 -15.088  0.00  0.00    +0.040 C 
ATOM     16  C   UNL     1      29.364 -22.353 -15.255  0.00  0.00    +0.006 C 
ATOM     17  C   UNL     1      29.673 -24.595 -16.403  0.00  0.00    +0.006 C 
ATOM     18  C   UNL     1      27.939 -22.276 -15.802  0.00  0.00    +0.000 C 
ATOM     19  C   UNL     1      28.247 -24.507 -16.944  0.00  0.00    +0.000 C 
ATOM     20  C   UNL     1      27.792 -23.060 -17.104  0.00  0.00    +0.000 C 
ENDBRANCH   4  15
BRANCH  10  22
ATOM     21  O   UNL     1      37.102 -20.647 -18.065  0.00  0.00    -0.277 OA
ATOM     22  N   UNL     1      35.548 -22.402 -17.962  0.00  0.00    -0.286 N 
ATOM     23  C   UNL     1      36.249 -21.367 -18.575  0.00  0.00    +0.205 C 
ATOM     24  H   UNL     1      34.893 -22.876 -18.525  0.00  0.00    +0.155 HD
BRANCH  23  25
ATOM     25  C   UNL     1      35.810 -21.218 -20.021  0.00  0.00    +0.010 C 
BRANCH  25  26
ATOM     26  N   UNL     1      35.305 -19.862 -20.239  0.00  0.00    +0.393 N 
ATOM     27  C   UNL     1      34.344 -17.620 -21.866  0.00  0.00    -0.026 C 
ATOM     28  C   UNL     1      33.401 -18.494 -21.032  0.00  0.00    -0.025 C 
ATOM     29  C   UNL     1      35.752 -17.654 -21.262  0.00  0.00    -0.025 C 
ATOM     30  C   UNL     1      33.967 -19.903 -20.846  0.00  0.00    -0.077 C 
ATOM     31  C   UNL     1      36.240 -19.092 -21.070  0.00  0.00    -0.077 C 
ATOM     32  H   UNL     1      35.227 -19.394 -19.336  0.00  0.00    -0.079 HD
BRANCH  27  33
ATOM     33  C   UNL     1      33.823 -16.189 -21.962  0.00  0.00    -0.086 C 
BRANCH  33  34
ATOM     34  N   UNL     1      34.559 -15.306 -21.068  0.00  0.00    +0.380 N 
ATOM     35  H   UNL     1      34.053 -15.218 -20.187  0.00  0.00    -0.089 HD
ATOM     36  H   UNL     1      34.654 -14.387 -21.500  0.00  0.00    -0.089 HD
ATOM     37  H   UNL     1      35.484 -15.697 -20.891  0.00  0.00    -0.089 HD
ENDBRANCH  33  34
ENDBRANCH  27  33
ENDBRANCH  25  26
ENDBRANCH  23  25
ENDBRANCH  10  22
TORSDOF 6
ENDMDL
MODEL 5
REMARK VINA RESULT:     -10.9      2.167     10.294
REMARK  Name = 5288017
REMARK  6 active torsions:
REMARK  status: ('A' for Active; 'I' for Inactive)
REMARK    1  A    between atoms: C_4  and  C_15
REMARK    2  A    between atoms: C_10  and  N_22
REMARK    3  A    between atoms: C_23  and  C_25
REMARK    4  A    between atoms: C_25  and  N_26
REMARK    5  A    between atoms: C_27  and  C_33
REMARK    6  A    between atoms: C_33  and  N_34
REMARK                            x       y       z     vdW  Elec       q    Type
REMARK                         _______ _______ _______ _____ _____    ______ ____
ROOT
ATOM      1  O   UNL     1      34.084 -14.655 -21.978  0.00  0.00    -0.286 OA
ATOM      2  N   UNL     1      34.641 -18.253 -24.555  0.00  0.00    -0.280 N 
ATOM      3  N   UNL     1      34.339 -17.490 -25.642  0.00  0.00    -0.173 NA
ATOM      4  C   UNL     1      34.618 -17.577 -23.351  0.00  0.00    +0.056 A 
ATOM      5  C   UNL     1      34.279 -16.305 -23.692  0.00  0.00    +0.071 A 
ATOM      6  C   UNL     1      34.122 -16.307 -25.086  0.00  0.00    +0.105 A 
ATOM      7  C   UNL     1      34.034 -15.001 -23.139  0.00  0.00    +0.199 C 
ATOM      8  C   UNL     1      33.702 -14.173 -24.353  0.00  0.00    +0.054 C 
ATOM      9  C   UNL     1      33.763 -14.990 -25.516  0.00  0.00    +0.024 C 
ATOM     10  C   UNL     1      33.380 -12.849 -24.438  0.00  0.00    +0.053 C 
ATOM     11  C   UNL     1      33.503 -14.482 -26.768  0.00  0.00    +0.002 C 
ATOM     12  C   UNL     1      33.113 -12.313 -25.689  0.00  0.00    +0.015 C 
ATOM     13  C   UNL     1      33.174 -13.124 -26.845  0.00  0.00    +0.001 C 
ATOM     14  H   UNL     1      34.860 -19.210 -24.622  0.00  0.00    +0.189 HD
ENDROOT
BRANCH   4  15
ATOM     15  C   UNL     1      34.927 -18.253 -22.024  0.00  0.00    +0.040 C 
ATOM     16  C   UNL     1      34.009 -19.460 -21.769  0.00  0.00    +0.006 C 
ATOM     17  C   UNL     1      36.409 -18.649 -21.915  0.00  0.00    +0.006 C 
ATOM     18  C   UNL     1      34.322 -20.127 -20.429  0.00  0.00    +0.000 C 
ATOM     19  C   UNL     1      36.710 -19.319 -20.575  0.00  0.00    +0.000 C 
ATOM     20  C   UNL     1      35.795 -20.513 -20.323  0.00  0.00    +0.000 C 
ENDBRANCH   4  15
BRANCH  10  22
ATOM     21  O   UNL     1      31.035 -12.062 -22.738  0.00  0.00    -0.277 OA
ATOM     22  N   UNL     1      33.316 -12.024 -23.290  0.00  0.00    -0.286 N 
ATOM     23  C   UNL     1      32.189 -11.697 -22.539  0.00  0.00    +0.205 C 
ATOM     24  H   UNL     1      34.168 -11.636 -22.986  0.00  0.00    +0.155 HD
BRANCH  23  25
ATOM     25  C   UNL     1      32.572 -10.784 -21.388  0.00  0.00    +0.010 C 
BRANCH  25  26
ATOM     26  N   UNL     1      32.020  -9.449 -21.622  0.00  0.00    +0.393 N 
ATOM     27  C   UNL     1      32.173  -6.590 -22.253  0.00  0.00    -0.026 C 
ATOM     28  C   UNL     1      31.695  -7.633 -23.270  0.00  0.00    -0.025 C 
ATOM     29  C   UNL     1      31.933  -7.106 -20.830  0.00  0.00    -0.025 C 
ATOM     30  C   UNL     1      32.312  -9.005 -22.992  0.00  0.00    -0.077 C 
ATOM     31  C   UNL     1      32.543  -8.495 -20.633  0.00  0.00    -0.077 C 
ATOM     32  H   UNL     1      31.007  -9.491 -21.513  0.00  0.00    -0.079 HD
BRANCH  27  33
ATOM     33  C   UNL     1      31.478  -5.249 -22.475  0.00  0.00    -0.086 C 
BRANCH  33  34
ATOM     34  N   UNL     1      30.509  -4.985 -21.421  0.00  0.00    +0.380 N 
ATOM     35  H   UNL     1      30.044  -5.855 -21.162  0.00  0.00    -0.089 HD
ATOM     36  H   UNL     1      29.817  -4.315 -21.756  0.00  0.00    -0.089 HD
ATOM     37  H   UNL     1      30.989  -4.602 -20.607  0.00  0.00    -0.089 HD
ENDBRANCH  33  34
ENDBRANCH  27  33
ENDBRANCH  25  26
ENDBRANCH  23  25
ENDBRANCH  10  22
TORSDOF 6
ENDMDL
MODEL 6
REMARK VINA RESULT:     -10.1      8.931     15.371
REMARK  Name = 5288017
REMARK  6 active torsions:
REMARK  status: ('A' for Active; 'I' for Inactive)
REMARK    1  A    between atoms: C_4  and  C_15
REMARK    2  A    between atoms: C_10  and  N_22
REMARK    3  A    between atoms: C_23  and  C_25
REMARK    4  A    between atoms: C_25  and  N_26
REMARK    5  A    between atoms: C_27  and  C_33
REMARK    6  A    between atoms: C_33  and  N_34
REMARK                            x       y       z     vdW  Elec       q    Type
REMARK                         _______ _______ _______ _____ _____    ______ ____
ROOT
ATOM      1  O   UNL     1      35.883 -22.949 -16.857  0.00  0.00    -0.286 OA
ATOM      2  N   UNL     1      34.684 -24.694 -12.930  0.00  0.00    -0.280 N 
ATOM      3  N   UNL     1      33.380 -24.494 -13.269  0.00  0.00    -0.173 NA
ATOM      4  C   UNL     1      35.596 -24.292 -13.885  0.00  0.00    +0.056 A 
ATOM      5  C   UNL     1      34.826 -23.804 -14.895  0.00  0.00    +0.071 A 
ATOM      6  C   UNL     1      33.496 -23.950 -14.471  0.00  0.00    +0.105 A 
ATOM      7  C   UNL     1      34.896 -23.211 -16.202  0.00  0.00    +0.199 C 
ATOM      8  C   UNL     1      33.449 -22.997 -16.558  0.00  0.00    +0.054 C 
ATOM      9  C   UNL     1      32.625 -23.453 -15.492  0.00  0.00    +0.024 C 
ATOM     10  C   UNL     1      32.904 -22.461 -17.690  0.00  0.00    +0.053 C 
ATOM     11  C   UNL     1      31.253 -23.375 -15.557  0.00  0.00    +0.002 C 
ATOM     12  C   UNL     1      31.523 -22.372 -17.780  0.00  0.00    +0.015 C 
ATOM     13  C   UNL     1      30.703 -22.826 -16.721  0.00  0.00    +0.001 C 
ATOM     14  H   UNL     1      34.955 -25.095 -12.073  0.00  0.00    +0.189 HD
ENDROOT
BRANCH   4  15
ATOM     15  C   UNL     1      37.099 -24.432 -13.697  0.00  0.00    +0.040 C 
ATOM     16  C   UNL     1      37.447 -25.489 -12.635  0.00  0.00    +0.006 C 
ATOM     17  C   UNL     1      37.818 -24.721 -15.025  0.00  0.00    +0.006 C 
ATOM     18  C   UNL     1      38.958 -25.616 -12.447  0.00  0.00    +0.000 C 
ATOM     19  C   UNL     1      39.327 -24.851 -14.826  0.00  0.00    +0.000 C 
ATOM     20  C   UNL     1      39.668 -25.897 -13.769  0.00  0.00    +0.000 C 
ENDBRANCH   4  15
BRANCH  10  22
ATOM     21  O   UNL     1      32.400 -20.313 -19.723  0.00  0.00    -0.277 OA
ATOM     22  N   UNL     1      33.710 -22.004 -18.759  0.00  0.00    -0.286 N 
ATOM     23  C   UNL     1      33.419 -20.994 -19.673  0.00  0.00    +0.205 C 
ATOM     24  H   UNL     1      34.580 -22.452 -18.869  0.00  0.00    +0.155 HD
BRANCH  23  25
ATOM     25  C   UNL     1      34.564 -20.828 -20.655  0.00  0.00    +0.010 C 
BRANCH  25  26
ATOM     26  N   UNL     1      34.395 -19.575 -21.393  0.00  0.00    +0.393 N 
ATOM     27  C   UNL     1      35.310 -17.299 -22.999  0.00  0.00    -0.026 C 
ATOM     28  C   UNL     1      34.530 -18.471 -23.603  0.00  0.00    -0.025 C 
ATOM     29  C   UNL     1      34.985 -17.175 -21.506  0.00  0.00    -0.025 C 
ATOM     30  C   UNL     1      34.752 -19.759 -22.807  0.00  0.00    -0.077 C 
ATOM     31  C   UNL     1      35.194 -18.505 -20.780  0.00  0.00    -0.077 C 
ATOM     32  H   UNL     1      33.414 -19.300 -21.349  0.00  0.00    -0.079 HD
BRANCH  27  33
ATOM     33  C   UNL     1      35.005 -15.999 -23.737  0.00  0.00    -0.086 C 
BRANCH  33  34
ATOM     34  N   UNL     1      34.221 -16.253 -24.936  0.00  0.00    +0.380 N 
ATOM     35  H   UNL     1      34.185 -15.408 -25.505  0.00  0.00    -0.089 HD
ATOM     36  H   UNL     1      33.273 -16.525 -24.671  0.00  0.00    -0.089 HD
ATOM     37  H   UNL     1      34.653 -17.005 -25.472  0.00  0.00    -0.089 HD
ENDBRANCH  33  34
ENDBRANCH  27  33
ENDBRANCH  25  26
ENDBRANCH  23  25
ENDBRANCH  10  22
TORSDOF 6
ENDMDL
MODEL 7
REMARK VINA RESULT:      -9.9      9.081     15.008
REMARK  Name = 5288017
REMARK  6 active torsions:
REMARK  status: ('A' for Active; 'I' for Inactive)
REMARK    1  A    between atoms: C_4  and  C_15
REMARK    2  A    between atoms: C_10  and  N_22
REMARK    3  A    between atoms: C_23  and  C_25
REMARK    4  A    between atoms: C_25  and  N_26
REMARK    5  A    between atoms: C_27  and  C_33
REMARK    6  A    between atoms: C_33  and  N_34
REMARK                            x       y       z     vdW  Elec       q    Type
REMARK                         _______ _______ _______ _____ _____    ______ ____
ROOT
ATOM      1  O   UNL     1      33.648 -22.799 -17.378  0.00  0.00    -0.286 OA
ATOM      2  N   UNL     1      31.662 -24.085 -13.596  0.00  0.00    -0.280 N 
ATOM      3  N   UNL     1      32.893 -24.234 -13.031  0.00  0.00    -0.173 NA
ATOM      4  C   UNL     1      31.679 -23.657 -14.909  0.00  0.00    +0.056 A 
ATOM      5  C   UNL     1      33.001 -23.527 -15.199  0.00  0.00    +0.071 A 
ATOM      6  C   UNL     1      33.690 -23.887 -14.031  0.00  0.00    +0.105 A 
ATOM      7  C   UNL     1      33.910 -23.160 -16.250  0.00  0.00    +0.199 C 
ATOM      8  C   UNL     1      35.261 -23.331 -15.608  0.00  0.00    +0.054 C 
ATOM      9  C   UNL     1      35.096 -23.772 -14.265  0.00  0.00    +0.024 C 
ATOM     10  C   UNL     1      36.504 -23.125 -16.135  0.00  0.00    +0.053 C 
ATOM     11  C   UNL     1      36.177 -24.007 -13.447  0.00  0.00    +0.002 C 
ATOM     12  C   UNL     1      37.609 -23.356 -15.329  0.00  0.00    +0.015 C 
ATOM     13  C   UNL     1      37.447 -23.793 -13.995  0.00  0.00    +0.001 C 
ATOM     14  H   UNL     1      30.827 -24.267 -13.108  0.00  0.00    +0.189 HD
ENDROOT
BRANCH   4  15
ATOM     15  C   UNL     1      30.408 -23.430 -15.715  0.00  0.00    +0.040 C 
ATOM     16  C   UNL     1      29.613 -24.732 -15.909  0.00  0.00    +0.006 C 
ATOM     17  C   UNL     1      29.528 -22.329 -15.099  0.00  0.00    +0.006 C 
ATOM     18  C   UNL     1      28.344 -24.496 -16.727  0.00  0.00    +0.000 C 
ATOM     19  C   UNL     1      28.261 -22.103 -15.921  0.00  0.00    +0.000 C 
ATOM     20  C   UNL     1      27.477 -23.398 -16.115  0.00  0.00    +0.000 C 
ENDBRANCH   4  15
BRANCH  10  22
ATOM     21  O   UNL     1      37.162 -20.402 -17.210  0.00  0.00    -0.277 OA
ATOM     22  N   UNL     1      36.683 -22.685 -17.468  0.00  0.00    -0.286 N 
ATOM     23  C   UNL     1      36.993 -21.399 -17.905  0.00  0.00    +0.205 C 
ATOM     24  H   UNL     1      36.579 -23.369 -18.169  0.00  0.00    +0.155 HD
BRANCH  23  25
ATOM     25  C   UNL     1      37.095 -21.369 -19.419  0.00  0.00    +0.010 C 
BRANCH  25  26
ATOM     26  N   UNL     1      36.359 -20.214 -19.934  0.00  0.00    +0.393 N 
ATOM     27  C   UNL     1      35.033 -18.626 -22.012  0.00  0.00    -0.026 C 
ATOM     28  C   UNL     1      34.252 -19.430 -20.967  0.00  0.00    -0.025 C 
ATOM     29  C   UNL     1      36.418 -18.268 -21.461  0.00  0.00    -0.025 C 
ATOM     30  C   UNL     1      35.057 -20.633 -20.473  0.00  0.00    -0.077 C 
ATOM     31  C   UNL     1      37.151 -19.510 -20.952  0.00  0.00    -0.077 C 
ATOM     32  H   UNL     1      36.188 -19.567 -19.165  0.00  0.00    -0.079 HD
BRANCH  27  33
ATOM     33  C   UNL     1      34.267 -17.373 -22.426  0.00  0.00    -0.086 C 
BRANCH  33  34
ATOM     34  N   UNL     1      34.343 -17.170 -23.865  0.00  0.00    +0.380 N 
ATOM     35  H   UNL     1      35.055 -17.785 -24.258  0.00  0.00    -0.089 HD
ATOM     36  H   UNL     1      34.589 -16.198 -24.059  0.00  0.00    -0.089 HD
ATOM     37  H   UNL     1      33.440 -17.383 -24.287  0.00  0.00    -0.089 HD
ENDBRANCH  33  34
ENDBRANCH  27  33
ENDBRANCH  25  26
ENDBRANCH  23  25
ENDBRANCH  10  22
TORSDOF 6
ENDMDL
MODEL 8
REMARK VINA RESULT:      -9.8      9.437     15.703
REMARK  Name = 5288017
REMARK  6 active torsions:
REMARK  status: ('A' for Active; 'I' for Inactive)
REMARK    1  A    between atoms: C_4  and  C_15
REMARK    2  A    between atoms: C_10  and  N_22
REMARK    3  A    between atoms: C_23  and  C_25
REMARK    4  A    between atoms: C_25  and  N_26
REMARK    5  A    between atoms: C_27  and  C_33
REMARK    6  A    between atoms: C_33  and  N_34
REMARK                            x       y       z     vdW  Elec       q    Type
REMARK                         _______ _______ _______ _____ _____    ______ ____
ROOT
ATOM      1  O   UNL     1      35.844 -23.269 -16.173  0.00  0.00    -0.286 OA
ATOM      2  N   UNL     1      34.022 -24.981 -12.478  0.00  0.00    -0.280 N 
ATOM      3  N   UNL     1      32.790 -24.678 -12.976  0.00  0.00    -0.173 NA
ATOM      4  C   UNL     1      35.076 -24.633 -13.298  0.00  0.00    +0.056 A 
ATOM      5  C   UNL     1      34.481 -24.073 -14.385  0.00  0.00    +0.071 A 
ATOM      6  C   UNL     1      33.101 -24.125 -14.139  0.00  0.00    +0.105 A 
ATOM      7  C   UNL     1      34.763 -23.466 -15.658  0.00  0.00    +0.199 C 
ATOM      8  C   UNL     1      33.393 -23.140 -16.191  0.00  0.00    +0.054 C 
ATOM      9  C   UNL     1      32.407 -23.549 -15.251  0.00  0.00    +0.024 C 
ATOM     10  C   UNL     1      33.040 -22.547 -17.369  0.00  0.00    +0.053 C 
ATOM     11  C   UNL     1      31.065 -23.368 -15.489  0.00  0.00    +0.002 C 
ATOM     12  C   UNL     1      31.693 -22.352 -17.633  0.00  0.00    +0.015 C 
ATOM     13  C   UNL     1      30.712 -22.760 -16.700  0.00  0.00    +0.001 C 
ATOM     14  H   UNL     1      34.150 -25.414 -11.604  0.00  0.00    +0.189 HD
ENDROOT
BRANCH   4  15
ATOM     15  C   UNL     1      36.529 -24.888 -12.922  0.00  0.00    +0.040 C 
ATOM     16  C   UNL     1      37.270 -25.683 -14.009  0.00  0.00    +0.006 C 
ATOM     17  C   UNL     1      37.270 -23.583 -12.583  0.00  0.00    +0.006 C 
ATOM     18  C   UNL     1      38.725 -25.941 -13.618  0.00  0.00    +0.000 C 
ATOM     19  C   UNL     1      38.724 -23.852 -12.199  0.00  0.00    +0.000 C 
ATOM     20  C   UNL     1      39.455 -24.644 -13.278  0.00  0.00    +0.000 C 
ENDBRANCH   4  15
BRANCH  10  22
ATOM     21  O   UNL     1      34.036 -23.909 -19.851  0.00  0.00    -0.277 OA
ATOM     22  N   UNL     1      34.010 -22.135 -18.315  0.00  0.00    -0.286 N 
ATOM     23  C   UNL     1      34.428 -22.816 -19.455  0.00  0.00    +0.205 C 
ATOM     24  H   UNL     1      34.437 -21.263 -18.147  0.00  0.00    +0.155 HD
BRANCH  23  25
ATOM     25  C   UNL     1      35.487 -22.011 -20.189  0.00  0.00    +0.010 C 
BRANCH  25  26
ATOM     26  N   UNL     1      35.087 -20.604 -20.230  0.00  0.00    +0.393 N 
ATOM     27  C   UNL     1      34.344 -18.096 -21.555  0.00  0.00    -0.026 C 
ATOM     28  C   UNL     1      33.314 -19.003 -20.872  0.00  0.00    -0.025 C 
ATOM     29  C   UNL     1      35.725 -18.318 -20.929  0.00  0.00    -0.025 C 
ATOM     30  C   UNL     1      33.771 -20.463 -20.869  0.00  0.00    -0.077 C 
ATOM     31  C   UNL     1      36.102 -19.801 -20.925  0.00  0.00    -0.077 C 
ATOM     32  H   UNL     1      35.012 -20.258 -19.274  0.00  0.00    -0.079 HD
BRANCH  27  33
ATOM     33  C   UNL     1      33.930 -16.630 -21.466  0.00  0.00    -0.086 C 
BRANCH  33  34
ATOM     34  N   UNL     1      34.793 -15.902 -20.547  0.00  0.00    +0.380 N 
ATOM     35  H   UNL     1      34.478 -16.058 -19.590  0.00  0.00    -0.089 HD
ATOM     36  H   UNL     1      34.751 -14.905 -20.760  0.00  0.00    -0.089 HD
ATOM     37  H   UNL     1      35.752 -16.232 -20.648  0.00  0.00    -0.089 HD
ENDBRANCH  33  34
ENDBRANCH  27  33
ENDBRANCH  25  26
ENDBRANCH  23  25
ENDBRANCH  10  22
TORSDOF 6
ENDMDL
MODEL 9
REMARK VINA RESULT:      -9.5     12.377     15.817
REMARK  Name = 5288017
REMARK  6 active torsions:
REMARK  status: ('A' for Active; 'I' for Inactive)
REMARK    1  A    between atoms: C_4  and  C_15
REMARK    2  A    between atoms: C_10  and  N_22
REMARK    3  A    between atoms: C_23  and  C_25
REMARK    4  A    between atoms: C_25  and  N_26
REMARK    5  A    between atoms: C_27  and  C_33
REMARK    6  A    between atoms: C_33  and  N_34
REMARK                            x       y       z     vdW  Elec       q    Type
REMARK                         _______ _______ _______ _____ _____    ______ ____
ROOT
ATOM      1  O   UNL     1      34.945 -23.857 -15.613  0.00  0.00    -0.286 OA
ATOM      2  N   UNL     1      32.202 -22.021 -18.614  0.00  0.00    -0.280 N 
ATOM      3  N   UNL     1      31.150 -22.341 -17.811  0.00  0.00    -0.173 NA
ATOM      4  C   UNL     1      33.437 -22.396 -18.124  0.00  0.00    +0.056 A 
ATOM      5  C   UNL     1      33.155 -22.993 -16.935  0.00  0.00    +0.071 A 
ATOM      6  C   UNL     1      31.760 -22.933 -16.795  0.00  0.00    +0.105 A 
ATOM      7  C   UNL     1      33.767 -23.642 -15.808  0.00  0.00    +0.199 C 
ATOM      8  C   UNL     1      32.591 -23.988 -14.934  0.00  0.00    +0.054 C 
ATOM      9  C   UNL     1      31.390 -23.547 -15.556  0.00  0.00    +0.024 C 
ATOM     10  C   UNL     1      32.566 -24.621 -13.724  0.00  0.00    +0.053 C 
ATOM     11  C   UNL     1      30.161 -23.737 -14.967  0.00  0.00    +0.002 C 
ATOM     12  C   UNL     1      31.340 -24.824 -13.110  0.00  0.00    +0.015 C 
ATOM     13  C   UNL     1      30.146 -24.385 -13.727  0.00  0.00    +0.001 C 
ATOM     14  H   UNL     1      32.091 -21.558 -19.476  0.00  0.00    +0.189 HD
ENDROOT
BRANCH   4  15
ATOM     15  C   UNL     1      34.734 -22.127 -18.873  0.00  0.00    +0.040 C 
ATOM     16  C   UNL     1      34.558 -21.048 -19.954  0.00  0.00    +0.006 C 
ATOM     17  C   UNL     1      35.885 -21.773 -17.916  0.00  0.00    +0.006 C 
ATOM     18  C   UNL     1      35.864 -20.792 -20.705  0.00  0.00    +0.000 C 
ATOM     19  C   UNL     1      37.184 -21.514 -18.677  0.00  0.00    +0.000 C 
ATOM     20  C   UNL     1      37.004 -20.445 -19.751  0.00  0.00    +0.000 C 
ENDBRANCH   4  15
BRANCH  10  22
ATOM     21  O   UNL     1      34.376 -23.218 -11.784  0.00  0.00    -0.277 OA
ATOM     22  N   UNL     1      33.753 -25.064 -13.092  0.00  0.00    -0.286 N 
ATOM     23  C   UNL     1      34.551 -24.361 -12.193  0.00  0.00    +0.205 C 
ATOM     24  H   UNL     1      34.047 -25.978 -13.313  0.00  0.00    +0.155 HD
BRANCH  23  25
ATOM     25  C   UNL     1      35.729 -25.215 -11.758  0.00  0.00    +0.010 C 
BRANCH  25  26
ATOM     26  N   UNL     1      36.792 -25.123 -12.760  0.00  0.00    +0.393 N 
ATOM     27  C   UNL     1      39.391 -25.798 -13.939  0.00  0.00    -0.026 C 
ATOM     28  C   UNL     1      38.068 -26.331 -14.501  0.00  0.00    -0.025 C 
ATOM     29  C   UNL     1      39.143 -24.483 -13.191  0.00  0.00    -0.025 C 
ATOM     30  C   UNL     1      36.996 -26.423 -13.413  0.00  0.00    -0.077 C 
ATOM     31  C   UNL     1      38.036 -24.637 -12.147  0.00  0.00    -0.077 C 
ATOM     32  H   UNL     1      36.511 -24.452 -13.474  0.00  0.00    -0.079 HD
BRANCH  27  33
ATOM     33  C   UNL     1      40.424 -25.614 -15.046  0.00  0.00    -0.086 C 
BRANCH  33  34
ATOM     34  N   UNL     1      40.011 -24.572 -15.975  0.00  0.00    +0.380 N 
ATOM     35  H   UNL     1      39.914 -24.969 -16.909  0.00  0.00    -0.089 HD
ATOM     36  H   UNL     1      40.712 -23.832 -15.990  0.00  0.00    -0.089 HD
ATOM     37  H   UNL     1      39.115 -24.187 -15.676  0.00  0.00    -0.089 HD
ENDBRANCH  33  34
ENDBRANCH  27  33
ENDBRANCH  25  26
ENDBRANCH  23  25
ENDBRANCH  10  22
TORSDOF 6
ENDMDL
