MODEL 1
REMARK VINA RESULT:      -7.8      0.000      0.000
REMARK  Name = 13294447
REMARK  6 active torsions:
REMARK  status: ('A' for Active; 'I' for Inactive)
REMARK    1  A    between atoms: C_1  and  C_2
REMARK    2  A    between atoms: C_1  and  C_9
REMARK    3  A    between atoms: C_2  and  C_3
REMARK    4  A    between atoms: C_9  and  C_11
REMARK    5  A    between atoms: C_11  and  C_13
REMARK    6  A    between atoms: C_13  and  O_14
REMARK                            x       y       z     vdW  Elec       q    Type
REMARK                         _______ _______ _______ _____ _____    ______ ____
ROOT
ATOM      1  C   UNL     1      35.333 -18.475 -23.189  0.00  0.00    +0.013 C 
ENDROOT
BRANCH   1   2
ATOM      2  C   UNL     1      35.884 -18.645 -21.770  0.00  0.00    +0.027 C 
BRANCH   2   3
ATOM      3  C   UNL     1      35.064 -19.627 -20.971  0.00  0.00    -0.022 C 
ATOM      4  C   UNL     1      33.681 -19.524 -20.977  0.00  0.00    -0.004 C 
ATOM      5  C   UNL     1      35.707 -20.616 -20.241  0.00  0.00    -0.004 C 
ATOM      6  C   UNL     1      32.923 -20.432 -20.238  0.00  0.00    -0.000 C 
ATOM      7  C   UNL     1      34.948 -21.523 -19.501  0.00  0.00    -0.000 C 
ATOM      8  C   UNL     1      33.556 -21.432 -19.499  0.00  0.00    -0.000 C 
ENDBRANCH   2   3
ENDBRANCH   1   2
BRANCH   1   9
ATOM      9  C   UNL     1      34.953 -17.027 -23.495  0.00  0.00    +0.076 C 
BRANCH   9  11
ATOM     10  O   UNL     1      34.652 -17.601 -25.847  0.00  0.00    -0.284 OA
ATOM     11  C   UNL     1      34.482 -16.827 -24.917  0.00  0.00    +0.248 C 
BRANCH  11  13
ATOM     12  O   UNL     1      33.364 -14.811 -24.323  0.00  0.00    -0.242 OA
ATOM     13  C   UNL     1      33.716 -15.566 -25.206  0.00  0.00    +0.373 C 
BRANCH  13  14
ATOM     14  O   UNL     1      33.560 -15.416 -26.527  0.00  0.00    -0.475 OA
ATOM     15  H   UNL     1      34.240 -15.688 -27.112  0.00  0.00    +0.295 HD
ENDBRANCH  13  14
ENDBRANCH  11  13
ENDBRANCH   9  11
ENDBRANCH   1   9
TORSDOF 6
ENDMDL
MODEL 2
REMARK VINA RESULT:      -7.7      1.026      1.457
REMARK  Name = 13294447
REMARK  6 active torsions:
REMARK  status: ('A' for Active; 'I' for Inactive)
REMARK    1  A    between atoms: C_1  and  C_2
REMARK    2  A    between atoms: C_1  and  C_9
REMARK    3  A    between atoms: C_2  and  C_3
REMARK    4  A    between atoms: C_9  and  C_11
REMARK    5  A    between atoms: C_11  and  C_13
REMARK    6  A    between atoms: C_13  and  O_14
REMARK                            x       y       z     vdW  Elec       q    Type
REMARK                         _______ _______ _______ _____ _____    ______ ____
ROOT
ATOM      1  C   UNL     1      34.458 -19.263 -23.025  0.00  0.00    +0.013 C 
ENDROOT
BRANCH   1   2
ATOM      2  C   UNL     1      34.582 -18.835 -21.560  0.00  0.00    +0.027 C 
BRANCH   2   3
ATOM      3  C   UNL     1      34.551 -20.022 -20.630  0.00  0.00    -0.022 C 
ATOM      4  C   UNL     1      33.331 -20.510 -20.187  0.00  0.00    -0.004 C 
ATOM      5  C   UNL     1      35.745 -20.607 -20.234  0.00  0.00    -0.004 C 
ATOM      6  C   UNL     1      33.303 -21.607 -19.328  0.00  0.00    -0.000 C 
ATOM      7  C   UNL     1      35.716 -21.705 -19.373  0.00  0.00    -0.000 C 
ATOM      8  C   UNL     1      34.496 -22.206 -18.920  0.00  0.00    -0.000 C 
ENDBRANCH   2   3
ENDBRANCH   1   2
BRANCH   1   9
ATOM      9  C   UNL     1      35.329 -18.416 -23.953  0.00  0.00    +0.076 C 
BRANCH   9  11
ATOM     10  O   UNL     1      33.946 -17.559 -25.771  0.00  0.00    -0.284 OA
ATOM     11  C   UNL     1      34.541 -17.379 -24.719  0.00  0.00    +0.248 C 
BRANCH  11  13
ATOM     12  O   UNL     1      33.522 -15.268 -24.304  0.00  0.00    -0.242 OA
ATOM     13  C   UNL     1      34.470 -16.003 -24.118  0.00  0.00    +0.373 C 
BRANCH  13  14
ATOM     14  O   UNL     1      35.543 -15.783 -23.348  0.00  0.00    -0.475 OA
ATOM     15  H   UNL     1      35.806 -16.425 -22.717  0.00  0.00    +0.295 HD
ENDBRANCH  13  14
ENDBRANCH  11  13
ENDBRANCH   9  11
ENDBRANCH   1   9
TORSDOF 6
ENDMDL
MODEL 3
REMARK VINA RESULT:      -7.6      0.674      1.964
REMARK  Name = 13294447
REMARK  6 active torsions:
REMARK  status: ('A' for Active; 'I' for Inactive)
REMARK    1  A    between atoms: C_1  and  C_2
REMARK    2  A    between atoms: C_1  and  C_9
REMARK    3  A    between atoms: C_2  and  C_3
REMARK    4  A    between atoms: C_9  and  C_11
REMARK    5  A    between atoms: C_11  and  C_13
REMARK    6  A    between atoms: C_13  and  O_14
REMARK                            x       y       z     vdW  Elec       q    Type
REMARK                         _______ _______ _______ _____ _____    ______ ____
ROOT
ATOM      1  C   UNL     1      34.761 -17.401 -21.984  0.00  0.00    +0.013 C 
ENDROOT
BRANCH   1   2
ATOM      2  C   UNL     1      35.636 -18.653 -21.870  0.00  0.00    +0.027 C 
BRANCH   2   3
ATOM      3  C   UNL     1      34.996 -19.699 -20.990  0.00  0.00    -0.022 C 
ATOM      4  C   UNL     1      35.800 -20.595 -20.302  0.00  0.00    -0.004 C 
ATOM      5  C   UNL     1      33.614 -19.746 -20.884  0.00  0.00    -0.004 C 
ATOM      6  C   UNL     1      35.209 -21.561 -19.489  0.00  0.00    -0.000 C 
ATOM      7  C   UNL     1      33.023 -20.714 -20.071  0.00  0.00    -0.000 C 
ATOM      8  C   UNL     1      33.820 -21.621 -19.373  0.00  0.00    -0.000 C 
ENDBRANCH   2   3
ENDBRANCH   1   2
BRANCH   1   9
ATOM      9  C   UNL     1      35.284 -16.421 -23.033  0.00  0.00    +0.076 C 
BRANCH   9  11
ATOM     10  O   UNL     1      33.360 -15.114 -23.769  0.00  0.00    -0.284 OA
ATOM     11  C   UNL     1      34.214 -15.958 -23.995  0.00  0.00    +0.248 C 
BRANCH  11  13
ATOM     12  O   UNL     1      34.512 -17.748 -25.535  0.00  0.00    -0.242 OA
ATOM     13  C   UNL     1      34.215 -16.584 -25.361  0.00  0.00    +0.373 C 
BRANCH  13  14
ATOM     14  O   UNL     1      33.800 -15.696 -26.273  0.00  0.00    -0.475 OA
ATOM     15  H   UNL     1      33.499 -14.851 -26.001  0.00  0.00    +0.295 HD
ENDBRANCH  13  14
ENDBRANCH  11  13
ENDBRANCH   9  11
ENDBRANCH   1   9
TORSDOF 6
ENDMDL
MODEL 4
REMARK VINA RESULT:      -7.5      1.977      2.209
REMARK  Name = 13294447
REMARK  6 active torsions:
REMARK  status: ('A' for Active; 'I' for Inactive)
REMARK    1  A    between atoms: C_1  and  C_2
REMARK    2  A    between atoms: C_1  and  C_9
REMARK    3  A    between atoms: C_2  and  C_3
REMARK    4  A    between atoms: C_9  and  C_11
REMARK    5  A    between atoms: C_11  and  C_13
REMARK    6  A    between atoms: C_13  and  O_14
REMARK                            x       y       z     vdW  Elec       q    Type
REMARK                         _______ _______ _______ _____ _____    ______ ____
ROOT
ATOM      1  C   UNL     1      35.229 -17.583 -21.159  0.00  0.00    +0.013 C 
ENDROOT
BRANCH   1   2
ATOM      2  C   UNL     1      34.210 -18.664 -21.533  0.00  0.00    +0.027 C 
BRANCH   2   3
ATOM      3  C   UNL     1      34.364 -19.893 -20.672  0.00  0.00    -0.022 C 
ATOM      4  C   UNL     1      33.234 -20.510 -20.157  0.00  0.00    -0.004 C 
ATOM      5  C   UNL     1      35.634 -20.385 -20.408  0.00  0.00    -0.004 C 
ATOM      6  C   UNL     1      33.377 -21.646 -19.360  0.00  0.00    -0.000 C 
ATOM      7  C   UNL     1      35.776 -21.521 -19.611  0.00  0.00    -0.000 C 
ATOM      8  C   UNL     1      34.648 -22.152 -19.087  0.00  0.00    -0.000 C 
ENDBRANCH   2   3
ENDBRANCH   1   2
BRANCH   1   9
ATOM      9  C   UNL     1      34.605 -16.188 -21.114  0.00  0.00    +0.076 C 
BRANCH   9  11
ATOM     10  O   UNL     1      35.347 -15.765 -23.400  0.00  0.00    -0.284 OA
ATOM     11  C   UNL     1      34.625 -15.489 -22.454  0.00  0.00    +0.248 C 
BRANCH  11  13
ATOM     12  O   UNL     1      32.515 -14.412 -22.212  0.00  0.00    -0.242 OA
ATOM     13  C   UNL     1      33.649 -14.360 -22.642  0.00  0.00    +0.373 C 
BRANCH  13  14
ATOM     14  O   UNL     1      34.244 -13.341 -23.273  0.00  0.00    -0.475 OA
ATOM     15  H   UNL     1      33.894 -13.024 -24.083  0.00  0.00    +0.295 HD
ENDBRANCH  13  14
ENDBRANCH  11  13
ENDBRANCH   9  11
ENDBRANCH   1   9
TORSDOF 6
ENDMDL
MODEL 5
REMARK VINA RESULT:      -7.4      1.979      3.030
REMARK  Name = 13294447
REMARK  6 active torsions:
REMARK  status: ('A' for Active; 'I' for Inactive)
REMARK    1  A    between atoms: C_1  and  C_2
REMARK    2  A    between atoms: C_1  and  C_9
REMARK    3  A    between atoms: C_2  and  C_3
REMARK    4  A    between atoms: C_9  and  C_11
REMARK    5  A    between atoms: C_11  and  C_13
REMARK    6  A    between atoms: C_13  and  O_14
REMARK                            x       y       z     vdW  Elec       q    Type
REMARK                         _______ _______ _______ _____ _____    ______ ____
ROOT
ATOM      1  C   UNL     1      34.934 -17.932 -22.855  0.00  0.00    +0.013 C 
ENDROOT
BRANCH   1   2
ATOM      2  C   UNL     1      35.809 -18.637 -21.815  0.00  0.00    +0.027 C 
BRANCH   2   3
ATOM      3  C   UNL     1      35.014 -19.624 -20.997  0.00  0.00    -0.022 C 
ATOM      4  C   UNL     1      35.677 -20.620 -20.296  0.00  0.00    -0.004 C 
ATOM      5  C   UNL     1      33.631 -19.518 -20.959  0.00  0.00    -0.004 C 
ATOM      6  C   UNL     1      34.941 -21.532 -19.541  0.00  0.00    -0.000 C 
ATOM      7  C   UNL     1      32.895 -20.431 -20.203  0.00  0.00    -0.000 C 
ATOM      8  C   UNL     1      33.550 -21.438 -19.494  0.00  0.00    -0.000 C 
ENDBRANCH   2   3
ENDBRANCH   1   2
BRANCH   1   9
ATOM      9  C   UNL     1      35.170 -16.422 -22.885  0.00  0.00    +0.076 C 
BRANCH   9  11
ATOM     10  O   UNL     1      33.094 -15.142 -22.933  0.00  0.00    -0.284 OA
ATOM     11  C   UNL     1      34.019 -15.633 -22.305  0.00  0.00    +0.248 C 
BRANCH  11  13
ATOM     12  O   UNL     1      35.003 -15.608 -20.137  0.00  0.00    -0.242 OA
ATOM     13  C   UNL     1      34.006 -15.453 -20.812  0.00  0.00    +0.373 C 
BRANCH  13  14
ATOM     14  O   UNL     1      32.792 -15.060 -20.408  0.00  0.00    -0.475 OA
ATOM     15  H   UNL     1      32.398 -15.456 -19.655  0.00  0.00    +0.295 HD
ENDBRANCH  13  14
ENDBRANCH  11  13
ENDBRANCH   9  11
ENDBRANCH   1   9
TORSDOF 6
ENDMDL
MODEL 6
REMARK VINA RESULT:      -7.3      8.326     10.756
REMARK  Name = 13294447
REMARK  6 active torsions:
REMARK  status: ('A' for Active; 'I' for Inactive)
REMARK    1  A    between atoms: C_1  and  C_2
REMARK    2  A    between atoms: C_1  and  C_9
REMARK    3  A    between atoms: C_2  and  C_3
REMARK    4  A    between atoms: C_9  and  C_11
REMARK    5  A    between atoms: C_11  and  C_13
REMARK    6  A    between atoms: C_13  and  O_14
REMARK                            x       y       z     vdW  Elec       q    Type
REMARK                         _______ _______ _______ _____ _____    ______ ____
ROOT
ATOM      1  C   UNL     1      36.515 -24.606 -15.073  0.00  0.00    +0.013 C 
ENDROOT
BRANCH   1   2
ATOM      2  C   UNL     1      35.823 -23.241 -15.096  0.00  0.00    +0.027 C 
BRANCH   2   3
ATOM      3  C   UNL     1      35.620 -22.744 -16.505  0.00  0.00    -0.022 C 
ATOM      4  C   UNL     1      36.655 -22.084 -17.151  0.00  0.00    -0.004 C 
ATOM      5  C   UNL     1      34.401 -22.956 -17.133  0.00  0.00    -0.004 C 
ATOM      6  C   UNL     1      36.467 -21.625 -18.454  0.00  0.00    -0.000 C 
ATOM      7  C   UNL     1      34.214 -22.496 -18.437  0.00  0.00    -0.000 C 
ATOM      8  C   UNL     1      35.246 -21.831 -19.098  0.00  0.00    -0.000 C 
ENDBRANCH   2   3
ENDBRANCH   1   2
BRANCH   1   9
ATOM      9  C   UNL     1      37.824 -24.581 -14.285  0.00  0.00    +0.076 C 
BRANCH   9  11
ATOM     10  O   UNL     1      38.416 -26.920 -14.651  0.00  0.00    -0.284 OA
ATOM     11  C   UNL     1      38.735 -25.741 -14.616  0.00  0.00    +0.248 C 
BRANCH  11  13
ATOM     12  O   UNL     1      40.864 -24.759 -14.199  0.00  0.00    -0.242 OA
ATOM     13  C   UNL     1      40.162 -25.406 -14.949  0.00  0.00    +0.373 C 
BRANCH  13  14
ATOM     14  O   UNL     1      40.504 -25.966 -16.116  0.00  0.00    -0.475 OA
ATOM     15  H   UNL     1      40.366 -26.883 -16.254  0.00  0.00    +0.295 HD
ENDBRANCH  13  14
ENDBRANCH  11  13
ENDBRANCH   9  11
ENDBRANCH   1   9
TORSDOF 6
ENDMDL
MODEL 7
REMARK VINA RESULT:      -7.3      4.204      6.843
REMARK  Name = 13294447
REMARK  6 active torsions:
REMARK  status: ('A' for Active; 'I' for Inactive)
REMARK    1  A    between atoms: C_1  and  C_2
REMARK    2  A    between atoms: C_1  and  C_9
REMARK    3  A    between atoms: C_2  and  C_3
REMARK    4  A    between atoms: C_9  and  C_11
REMARK    5  A    between atoms: C_11  and  C_13
REMARK    6  A    between atoms: C_13  and  O_14
REMARK                            x       y       z     vdW  Elec       q    Type
REMARK                         _______ _______ _______ _____ _____    ______ ____
ROOT
ATOM      1  C   UNL     1      34.192 -19.587 -20.949  0.00  0.00    +0.013 C 
ENDROOT
BRANCH   1   2
ATOM      2  C   UNL     1      35.241 -18.533 -21.313  0.00  0.00    +0.027 C 
BRANCH   2   3
ATOM      3  C   UNL     1      34.996 -17.956 -22.685  0.00  0.00    -0.022 C 
ATOM      4  C   UNL     1      34.741 -18.810 -23.747  0.00  0.00    -0.004 C 
ATOM      5  C   UNL     1      35.030 -16.581 -22.861  0.00  0.00    -0.004 C 
ATOM      6  C   UNL     1      34.514 -18.276 -25.015  0.00  0.00    -0.000 C 
ATOM      7  C   UNL     1      34.803 -16.048 -24.130  0.00  0.00    -0.000 C 
ATOM      8  C   UNL     1      34.545 -16.895 -25.208  0.00  0.00    -0.000 C 
ENDBRANCH   2   3
ENDBRANCH   1   2
BRANCH   1   9
ATOM      9  C   UNL     1      34.781 -20.736 -20.132  0.00  0.00    +0.076 C 
BRANCH   9  11
ATOM     10  O   UNL     1      32.558 -21.208 -19.246  0.00  0.00    -0.284 OA
ATOM     11  C   UNL     1      33.738 -21.504 -19.353  0.00  0.00    +0.248 C 
BRANCH  11  13
ATOM     12  O   UNL     1      33.667 -23.832 -18.862  0.00  0.00    -0.242 OA
ATOM     13  C   UNL     1      34.196 -22.758 -18.663  0.00  0.00    +0.373 C 
BRANCH  13  14
ATOM     14  O   UNL     1      35.257 -22.495 -17.890  0.00  0.00    -0.475 OA
ATOM     15  H   UNL     1      35.188 -21.868 -17.196  0.00  0.00    +0.295 HD
ENDBRANCH  13  14
ENDBRANCH  11  13
ENDBRANCH   9  11
ENDBRANCH   1   9
TORSDOF 6
ENDMDL
MODEL 8
REMARK VINA RESULT:      -7.2      4.338      6.606
REMARK  Name = 13294447
REMARK  6 active torsions:
REMARK  status: ('A' for Active; 'I' for Inactive)
REMARK    1  A    between atoms: C_1  and  C_2
REMARK    2  A    between atoms: C_1  and  C_9
REMARK    3  A    between atoms: C_2  and  C_3
REMARK    4  A    between atoms: C_9  and  C_11
REMARK    5  A    between atoms: C_11  and  C_13
REMARK    6  A    between atoms: C_13  and  O_14
REMARK                            x       y       z     vdW  Elec       q    Type
REMARK                         _______ _______ _______ _____ _____    ______ ____
ROOT
ATOM      1  C   UNL     1      35.415 -19.685 -20.928  0.00  0.00    +0.013 C 
ENDROOT
BRANCH   1   2
ATOM      2  C   UNL     1      35.101 -18.199 -21.126  0.00  0.00    +0.027 C 
BRANCH   2   3
ATOM      3  C   UNL     1      34.911 -17.862 -22.584  0.00  0.00    -0.022 C 
ATOM      4  C   UNL     1      34.968 -16.537 -22.990  0.00  0.00    -0.004 C 
ATOM      5  C   UNL     1      34.684 -18.882 -23.495  0.00  0.00    -0.004 C 
ATOM      6  C   UNL     1      34.792 -16.225 -24.337  0.00  0.00    -0.000 C 
ATOM      7  C   UNL     1      34.507 -18.569 -24.843  0.00  0.00    -0.000 C 
ATOM      8  C   UNL     1      34.562 -17.241 -25.265  0.00  0.00    -0.000 C 
ENDBRANCH   2   3
ENDBRANCH   1   2
BRANCH   1   9
ATOM      9  C   UNL     1      34.253 -20.445 -20.290  0.00  0.00    +0.076 C 
BRANCH   9  11
ATOM     10  O   UNL     1      35.817 -21.683 -18.885  0.00  0.00    -0.284 OA
ATOM     11  C   UNL     1      34.706 -21.564 -19.381  0.00  0.00    +0.248 C 
BRANCH  11  13
ATOM     12  O   UNL     1      32.674 -22.357 -18.428  0.00  0.00    -0.242 OA
ATOM     13  C   UNL     1      33.688 -22.616 -19.044  0.00  0.00    +0.373 C 
BRANCH  13  14
ATOM     14  O   UNL     1      34.054 -23.793 -19.565  0.00  0.00    -0.475 OA
ATOM     15  H   UNL     1      34.648 -24.349 -19.098  0.00  0.00    +0.295 HD
ENDBRANCH  13  14
ENDBRANCH  11  13
ENDBRANCH   9  11
ENDBRANCH   1   9
TORSDOF 6
ENDMDL
MODEL 9
REMARK VINA RESULT:      -7.1      3.943      6.200
REMARK  Name = 13294447
REMARK  6 active torsions:
REMARK  status: ('A' for Active; 'I' for Inactive)
REMARK    1  A    between atoms: C_1  and  C_2
REMARK    2  A    between atoms: C_1  and  C_9
REMARK    3  A    between atoms: C_2  and  C_3
REMARK    4  A    between atoms: C_9  and  C_11
REMARK    5  A    between atoms: C_11  and  C_13
REMARK    6  A    between atoms: C_13  and  O_14
REMARK                            x       y       z     vdW  Elec       q    Type
REMARK                         _______ _______ _______ _____ _____    ______ ____
ROOT
ATOM      1  C   UNL     1      34.514 -19.521 -22.031  0.00  0.00    +0.013 C 
ENDROOT
BRANCH   1   2
ATOM      2  C   UNL     1      35.663 -18.512 -21.933  0.00  0.00    +0.027 C 
BRANCH   2   3
ATOM      3  C   UNL     1      35.166 -17.093 -22.050  0.00  0.00    -0.022 C 
ATOM      4  C   UNL     1      35.029 -16.519 -23.305  0.00  0.00    -0.004 C 
ATOM      5  C   UNL     1      34.854 -16.384 -20.899  0.00  0.00    -0.004 C 
ATOM      6  C   UNL     1      34.571 -15.207 -23.412  0.00  0.00    -0.000 C 
ATOM      7  C   UNL     1      34.395 -15.071 -21.007  0.00  0.00    -0.000 C 
ATOM      8  C   UNL     1      34.253 -14.482 -22.263  0.00  0.00    -0.000 C 
ENDBRANCH   2   3
ENDBRANCH   1   2
BRANCH   1   9
ATOM      9  C   UNL     1      33.686 -19.586 -20.748  0.00  0.00    +0.076 C 
BRANCH   9  11
ATOM     10  O   UNL     1      32.725 -21.695 -19.986  0.00  0.00    -0.284 OA
ATOM     11  C   UNL     1      33.691 -20.956 -20.111  0.00  0.00    +0.248 C 
BRANCH  11  13
ATOM     12  O   UNL     1      35.905 -20.708 -19.273  0.00  0.00    -0.242 OA
ATOM     13  C   UNL     1      35.012 -21.461 -19.602  0.00  0.00    +0.373 C 
BRANCH  13  14
ATOM     14  O   UNL     1      34.994 -22.798 -19.530  0.00  0.00    -0.475 OA
ATOM     15  H   UNL     1      34.622 -23.300 -20.229  0.00  0.00    +0.295 HD
ENDBRANCH  13  14
ENDBRANCH  11  13
ENDBRANCH   9  11
ENDBRANCH   1   9
TORSDOF 6
ENDMDL
