MODEL 1
REMARK VINA RESULT:     -10.6      0.000      0.000
REMARK  Name = 11438771
REMARK  3 active torsions:
REMARK  status: ('A' for Active; 'I' for Inactive)
REMARK    1  A    between atoms: N_1  and  C_9
REMARK    2  A    between atoms: C_5  and  C_15
REMARK    3  A    between atoms: C_16  and  C_19
REMARK                            x       y       z     vdW  Elec       q    Type
REMARK                         _______ _______ _______ _____ _____    ______ ____
ROOT
ATOM      1  N   UNL     1      34.583 -16.872 -22.622  0.00  0.00    -0.261 N 
ATOM      2  N   UNL     1      34.115 -15.565 -24.371  0.00  0.00    -0.386 NA
ATOM      3  C   UNL     1      34.323 -15.622 -22.115  0.00  0.00    +0.139 C 
ATOM      4  C   UNL     1      34.443 -16.779 -23.987  0.00  0.00    +0.165 C 
ATOM      5  C   UNL     1      34.039 -14.839 -23.208  0.00  0.00    +0.170 C 
ATOM      6  C   UNL     1      34.372 -15.310 -20.672  0.00  0.00    +0.030 C 
ATOM      7  C   UNL     1      34.648 -17.937 -24.883  0.00  0.00    +0.084 C 
ENDROOT
BRANCH   1   9
ATOM      8  F   UNL     1      35.924 -21.380 -19.749  0.00  0.00    -0.204 F 
ATOM      9  C   UNL     1      34.920 -18.003 -21.901  0.00  0.00    +0.054 C 
ATOM     10  C   UNL     1      36.259 -18.287 -21.633  0.00  0.00    +0.017 C 
ATOM     11  C   UNL     1      33.920 -18.861 -21.441  0.00  0.00    +0.017 C 
ATOM     12  C   UNL     1      36.597 -19.428 -20.907  0.00  0.00    +0.031 C 
ATOM     13  C   UNL     1      34.258 -20.001 -20.715  0.00  0.00    +0.031 C 
ATOM     14  C   UNL     1      35.598 -20.286 -20.447  0.00  0.00    +0.140 C 
ENDBRANCH   1   9
BRANCH   5  15
ATOM     15  C   UNL     1      33.702 -13.460 -23.236  0.00  0.00    -0.031 C 
ATOM     16  C   UNL     1      33.415 -12.283 -23.258  0.00  0.00    -0.057 C 
BRANCH  16  19
ATOM     17 CL   UNL     1      34.655  -7.414 -24.388  0.00  0.00    -0.061 Cl
ATOM     18  N   UNL     1      32.413  -8.180 -23.335  0.00  0.00    -0.232 NA
ATOM     19  C   UNL     1      33.076 -10.894 -23.285  0.00  0.00    +0.046 C 
ATOM     20  C   UNL     1      33.980  -9.965 -23.786  0.00  0.00    +0.039 C 
ATOM     21  C   UNL     1      31.841 -10.469 -22.808  0.00  0.00    +0.029 C 
ATOM     22  C   UNL     1      33.604  -8.631 -23.790  0.00  0.00    +0.139 C 
ATOM     23  C   UNL     1      31.561  -9.113 -22.855  0.00  0.00    +0.100 C 
ENDBRANCH  16  19
ENDBRANCH   5  15
TORSDOF 3
ENDMDL
MODEL 2
REMARK VINA RESULT:      -9.9      4.745      9.670
REMARK  Name = 11438771
REMARK  3 active torsions:
REMARK  status: ('A' for Active; 'I' for Inactive)
REMARK    1  A    between atoms: N_1  and  C_9
REMARK    2  A    between atoms: C_5  and  C_15
REMARK    3  A    between atoms: C_16  and  C_19
REMARK                            x       y       z     vdW  Elec       q    Type
REMARK                         _______ _______ _______ _____ _____    ______ ____
ROOT
ATOM      1  N   UNL     1      32.948  -9.023 -23.184  0.00  0.00    -0.261 N 
ATOM      2  N   UNL     1      34.532 -10.180 -24.252  0.00  0.00    -0.386 NA
ATOM      3  C   UNL     1      32.663 -10.351 -22.982  0.00  0.00    +0.139 C 
ATOM      4  C   UNL     1      34.085  -8.978 -23.956  0.00  0.00    +0.165 C 
ATOM      5  C   UNL     1      33.649 -11.039 -23.647  0.00  0.00    +0.170 C 
ATOM      6  C   UNL     1      31.504 -10.817 -22.193  0.00  0.00    +0.030 C 
ATOM      7  C   UNL     1      34.700  -7.704 -24.383  0.00  0.00    +0.084 C 
ENDROOT
BRANCH   1   9
ATOM      8  F   UNL     1      30.095  -4.712 -21.273  0.00  0.00    -0.204 F 
ATOM      9  C   UNL     1      32.232  -7.942 -22.705  0.00  0.00    +0.054 C 
ATOM     10  C   UNL     1      31.213  -7.382 -23.476  0.00  0.00    +0.017 C 
ATOM     11  C   UNL     1      32.528  -7.410 -21.449  0.00  0.00    +0.017 C 
ATOM     12  C   UNL     1      30.493  -6.291 -22.992  0.00  0.00    +0.031 C 
ATOM     13  C   UNL     1      31.807  -6.319 -20.965  0.00  0.00    +0.031 C 
ATOM     14  C   UNL     1      30.788  -5.759 -21.737  0.00  0.00    +0.140 C 
ENDBRANCH   1   9
BRANCH   5  15
ATOM     15  C   UNL     1      33.818 -12.445 -23.754  0.00  0.00    -0.031 C 
ATOM     16  C   UNL     1      33.964 -13.645 -23.845  0.00  0.00    -0.057 C 
BRANCH  16  19
ATOM     17 CL   UNL     1      35.112 -18.172 -21.675  0.00  0.00    -0.061 Cl
ATOM     18  N   UNL     1      34.471 -17.826 -24.163  0.00  0.00    -0.232 NA
ATOM     19  C   UNL     1      34.136 -15.061 -23.952  0.00  0.00    +0.046 C 
ATOM     20  C   UNL     1      34.504 -15.805 -22.838  0.00  0.00    +0.039 C 
ATOM     21  C   UNL     1      33.935 -15.696 -25.172  0.00  0.00    +0.029 C 
ATOM     22  C   UNL     1      34.658 -17.173 -22.995  0.00  0.00    +0.139 C 
ATOM     23  C   UNL     1      34.113 -17.069 -25.224  0.00  0.00    +0.100 C 
ENDBRANCH  16  19
ENDBRANCH   5  15
TORSDOF 3
ENDMDL
MODEL 3
REMARK VINA RESULT:      -9.8      4.741      9.058
REMARK  Name = 11438771
REMARK  3 active torsions:
REMARK  status: ('A' for Active; 'I' for Inactive)
REMARK    1  A    between atoms: N_1  and  C_9
REMARK    2  A    between atoms: C_5  and  C_15
REMARK    3  A    between atoms: C_16  and  C_19
REMARK                            x       y       z     vdW  Elec       q    Type
REMARK                         _______ _______ _______ _____ _____    ______ ____
ROOT
ATOM      1  N   UNL     1      33.567 -14.294 -23.284  0.00  0.00    -0.261 N 
ATOM      2  N   UNL     1      33.875 -16.371 -24.045  0.00  0.00    -0.386 NA
ATOM      3  C   UNL     1      33.897 -15.062 -22.194  0.00  0.00    +0.139 C 
ATOM      4  C   UNL     1      33.568 -15.134 -24.372  0.00  0.00    +0.165 C 
ATOM      5  C   UNL     1      34.081 -16.332 -22.688  0.00  0.00    +0.170 C 
ATOM      6  C   UNL     1      34.001 -14.519 -20.825  0.00  0.00    +0.030 C 
ATOM      7  C   UNL     1      33.254 -14.660 -25.737  0.00  0.00    +0.084 C 
ENDROOT
BRANCH   1   9
ATOM      8  F   UNL     1      32.456  -8.896 -23.289  0.00  0.00    -0.204 F 
ATOM      9  C   UNL     1      33.288 -12.940 -23.286  0.00  0.00    +0.054 C 
ATOM     10  C   UNL     1      34.077 -12.066 -24.033  0.00  0.00    +0.017 C 
ATOM     11  C   UNL     1      32.217 -12.447 -22.539  0.00  0.00    +0.017 C 
ATOM     12  C   UNL     1      33.796 -10.700 -24.034  0.00  0.00    +0.031 C 
ATOM     13  C   UNL     1      31.936 -11.081 -22.540  0.00  0.00    +0.031 C 
ATOM     14  C   UNL     1      32.726 -10.207 -23.287  0.00  0.00    +0.140 C 
ENDBRANCH   1   9
BRANCH   5  15
ATOM     15  C   UNL     1      34.435 -17.508 -21.975  0.00  0.00    -0.031 C 
ATOM     16  C   UNL     1      34.738 -18.512 -21.368  0.00  0.00    -0.057 C 
BRANCH  16  19
ATOM     17 CL   UNL     1      33.354 -22.718 -18.740  0.00  0.00    -0.061 Cl
ATOM     18  N   UNL     1      35.796 -22.011 -19.251  0.00  0.00    -0.232 NA
ATOM     19  C   UNL     1      35.095 -19.697 -20.651  0.00  0.00    +0.046 C 
ATOM     20  C   UNL     1      34.107 -20.515 -20.119  0.00  0.00    +0.039 C 
ATOM     21  C   UNL     1      36.434 -20.032 -20.485  0.00  0.00    +0.029 C 
ATOM     22  C   UNL     1      34.505 -21.650 -19.433  0.00  0.00    +0.139 C 
ATOM     23  C   UNL     1      36.729 -21.190 -19.783  0.00  0.00    +0.100 C 
ENDBRANCH  16  19
ENDBRANCH   5  15
TORSDOF 3
ENDMDL
MODEL 4
REMARK VINA RESULT:      -9.5      4.798      9.518
REMARK  Name = 11438771
REMARK  3 active torsions:
REMARK  status: ('A' for Active; 'I' for Inactive)
REMARK    1  A    between atoms: N_1  and  C_9
REMARK    2  A    between atoms: C_5  and  C_15
REMARK    3  A    between atoms: C_16  and  C_19
REMARK                            x       y       z     vdW  Elec       q    Type
REMARK                         _______ _______ _______ _____ _____    ______ ____
ROOT
ATOM      1  N   UNL     1      32.618 -10.466 -22.990  0.00  0.00    -0.261 N 
ATOM      2  N   UNL     1      32.191 -12.326 -21.829  0.00  0.00    -0.386 NA
ATOM      3  C   UNL     1      33.249 -11.492 -23.651  0.00  0.00    +0.139 C 
ATOM      4  C   UNL     1      31.996 -11.027 -21.899  0.00  0.00    +0.165 C 
ATOM      5  C   UNL     1      32.971 -12.621 -22.919  0.00  0.00    +0.170 C 
ATOM      6  C   UNL     1      34.034 -11.294 -24.886  0.00  0.00    +0.030 C 
ATOM      7  C   UNL     1      31.209 -10.224 -20.939  0.00  0.00    +0.084 C 
ENDROOT
BRANCH   1   9
ATOM      8  F   UNL     1      32.587  -5.147 -24.430  0.00  0.00    -0.204 F 
ATOM      9  C   UNL     1      32.610  -9.132 -23.350  0.00  0.00    +0.054 C 
ATOM     10  C   UNL     1      31.438  -8.545 -23.827  0.00  0.00    +0.017 C 
ATOM     11  C   UNL     1      33.775  -8.372 -23.239  0.00  0.00    +0.017 C 
ATOM     12  C   UNL     1      31.431  -7.199 -24.192  0.00  0.00    +0.031 C 
ATOM     13  C   UNL     1      33.768  -7.027 -23.604  0.00  0.00    +0.031 C 
ATOM     14  C   UNL     1      32.595  -6.439 -24.081  0.00  0.00    +0.140 C 
ENDBRANCH   1   9
BRANCH   5  15
ATOM     15  C   UNL     1      33.387 -13.955 -23.171  0.00  0.00    -0.031 C 
ATOM     16  C   UNL     1      33.743 -15.094 -23.385  0.00  0.00    -0.057 C 
BRANCH  16  19
ATOM     17 CL   UNL     1      35.331 -19.670 -21.639  0.00  0.00    -0.061 Cl
ATOM     18  N   UNL     1      34.984 -19.061 -24.135  0.00  0.00    -0.232 NA
ATOM     19  C   UNL     1      34.163 -16.437 -23.638  0.00  0.00    +0.046 C 
ATOM     20  C   UNL     1      34.497 -17.274 -22.581  0.00  0.00    +0.039 C 
ATOM     21  C   UNL     1      34.239 -16.909 -24.944  0.00  0.00    +0.029 C 
ATOM     22  C   UNL     1      34.898 -18.567 -22.880  0.00  0.00    +0.139 C 
ATOM     23  C   UNL     1      34.651 -18.217 -25.137  0.00  0.00    +0.100 C 
ENDBRANCH  16  19
ENDBRANCH   5  15
TORSDOF 3
ENDMDL
MODEL 5
REMARK VINA RESULT:      -9.4      4.790      9.397
REMARK  Name = 11438771
REMARK  3 active torsions:
REMARK  status: ('A' for Active; 'I' for Inactive)
REMARK    1  A    between atoms: N_1  and  C_9
REMARK    2  A    between atoms: C_5  and  C_15
REMARK    3  A    between atoms: C_16  and  C_19
REMARK                            x       y       z     vdW  Elec       q    Type
REMARK                         _______ _______ _______ _____ _____    ______ ____
ROOT
ATOM      1  N   UNL     1      32.180 -10.689 -22.256  0.00  0.00    -0.261 N 
ATOM      2  N   UNL     1      31.847 -12.669 -21.279  0.00  0.00    -0.386 NA
ATOM      3  C   UNL     1      32.874 -11.613 -23.000  0.00  0.00    +0.139 C 
ATOM      4  C   UNL     1      31.580 -11.382 -21.231  0.00  0.00    +0.165 C 
ATOM      5  C   UNL     1      32.653 -12.819 -22.380  0.00  0.00    +0.170 C 
ATOM      6  C   UNL     1      33.659 -11.257 -24.200  0.00  0.00    +0.030 C 
ATOM      7  C   UNL     1      30.740 -10.716 -20.214  0.00  0.00    +0.084 C 
ENDROOT
BRANCH   1   9
ATOM      8  F   UNL     1      31.862  -5.268 -23.196  0.00  0.00    -0.204 F 
ATOM      9  C   UNL     1      32.101  -9.330 -22.492  0.00  0.00    +0.054 C 
ATOM     10  C   UNL     1      33.026  -8.465 -21.908  0.00  0.00    +0.017 C 
ATOM     11  C   UNL     1      31.095  -8.822 -23.315  0.00  0.00    +0.017 C 
ATOM     12  C   UNL     1      32.944  -7.093 -22.146  0.00  0.00    +0.031 C 
ATOM     13  C   UNL     1      31.013  -7.450 -23.553  0.00  0.00    +0.031 C 
ATOM     14  C   UNL     1      31.939  -6.585 -22.968  0.00  0.00    +0.140 C 
ENDBRANCH   1   9
BRANCH   5  15
ATOM     15  C   UNL     1      33.146 -14.098 -22.748  0.00  0.00    -0.031 C 
ATOM     16  C   UNL     1      33.568 -15.190 -23.061  0.00  0.00    -0.057 C 
BRANCH  16  19
ATOM     17 CL   UNL     1      35.303 -19.850 -21.723  0.00  0.00    -0.061 Cl
ATOM     18  N   UNL     1      35.038 -18.996 -24.156  0.00  0.00    -0.232 NA
ATOM     19  C   UNL     1      34.066 -16.479 -23.431  0.00  0.00    +0.046 C 
ATOM     20  C   UNL     1      34.393 -17.408 -22.451  0.00  0.00    +0.039 C 
ATOM     21  C   UNL     1      34.223 -16.805 -24.773  0.00  0.00    +0.029 C 
ATOM     22  C   UNL     1      34.871 -18.642 -22.862  0.00  0.00    +0.139 C 
ATOM     23  C   UNL     1      34.708 -18.066 -25.080  0.00  0.00    +0.100 C 
ENDBRANCH  16  19
ENDBRANCH   5  15
TORSDOF 3
ENDMDL
MODEL 6
REMARK VINA RESULT:      -9.3      6.460     10.663
REMARK  Name = 11438771
REMARK  3 active torsions:
REMARK  status: ('A' for Active; 'I' for Inactive)
REMARK    1  A    between atoms: N_1  and  C_9
REMARK    2  A    between atoms: C_5  and  C_15
REMARK    3  A    between atoms: C_16  and  C_19
REMARK                            x       y       z     vdW  Elec       q    Type
REMARK                         _______ _______ _______ _____ _____    ______ ____
ROOT
ATOM      1  N   UNL     1      34.903 -19.715 -21.185  0.00  0.00    -0.261 N 
ATOM      2  N   UNL     1      35.776 -20.912 -19.514  0.00  0.00    -0.386 NA
ATOM      3  C   UNL     1      33.844 -20.274 -20.512  0.00  0.00    +0.139 C 
ATOM      4  C   UNL     1      36.043 -20.134 -20.540  0.00  0.00    +0.165 C 
ATOM      5  C   UNL     1      34.406 -21.003 -19.492  0.00  0.00    +0.170 C 
ATOM      6  C   UNL     1      32.436 -20.059 -20.902  0.00  0.00    +0.030 C 
ATOM      7  C   UNL     1      37.395 -19.731 -20.984  0.00  0.00    +0.084 C 
ENDROOT
BRANCH   1   9
ATOM      8  F   UNL     1      34.633 -16.437 -25.607  0.00  0.00    -0.204 F 
ATOM      9  C   UNL     1      34.836 -18.893 -22.294  0.00  0.00    +0.054 C 
ATOM     10  C   UNL     1      34.814 -17.507 -22.135  0.00  0.00    +0.017 C 
ATOM     11  C   UNL     1      34.790 -19.449 -23.573  0.00  0.00    +0.017 C 
ATOM     12  C   UNL     1      34.745 -16.678 -23.254  0.00  0.00    +0.031 C 
ATOM     13  C   UNL     1      34.721 -18.620 -24.692  0.00  0.00    +0.031 C 
ATOM     14  C   UNL     1      34.698 -17.233 -24.533  0.00  0.00    +0.140 C 
ENDBRANCH   1   9
BRANCH   5  15
ATOM     15  C   UNL     1      33.748 -21.777 -18.500  0.00  0.00    -0.031 C 
ATOM     16  C   UNL     1      33.186 -22.437 -17.653  0.00  0.00    -0.057 C 
BRANCH  16  19
ATOM     17 CL   UNL     1      28.878 -24.542 -15.776  0.00  0.00    -0.061 Cl
ATOM     18  N   UNL     1      31.228 -24.738 -14.701  0.00  0.00    -0.232 NA
ATOM     19  C   UNL     1      32.522 -23.216 -16.654  0.00  0.00    +0.046 C 
ATOM     20  C   UNL     1      31.155 -23.447 -16.744  0.00  0.00    +0.039 C 
ATOM     21  C   UNL     1      33.245 -23.745 -15.590  0.00  0.00    +0.029 C 
ATOM     22  C   UNL     1      30.560 -24.208 -15.750  0.00  0.00    +0.139 C 
ATOM     23  C   UNL     1      32.557 -24.493 -14.649  0.00  0.00    +0.100 C 
ENDBRANCH  16  19
ENDBRANCH   5  15
TORSDOF 3
ENDMDL
MODEL 7
REMARK VINA RESULT:      -9.2      3.124      4.862
REMARK  Name = 11438771
REMARK  3 active torsions:
REMARK  status: ('A' for Active; 'I' for Inactive)
REMARK    1  A    between atoms: N_1  and  C_9
REMARK    2  A    between atoms: C_5  and  C_15
REMARK    3  A    between atoms: C_16  and  C_19
REMARK                            x       y       z     vdW  Elec       q    Type
REMARK                         _______ _______ _______ _____ _____    ______ ____
ROOT
ATOM      1  N   UNL     1      33.071 -13.055 -23.273  0.00  0.00    -0.261 N 
ATOM      2  N   UNL     1      32.008 -11.659 -21.892  0.00  0.00    -0.386 NA
ATOM      3  C   UNL     1      33.132 -11.811 -23.854  0.00  0.00    +0.139 C 
ATOM      4  C   UNL     1      32.382 -12.904 -22.093  0.00  0.00    +0.165 C 
ATOM      5  C   UNL     1      32.473 -10.973 -22.986  0.00  0.00    +0.170 C 
ATOM      6  C   UNL     1      33.798 -11.556 -25.147  0.00  0.00    +0.030 C 
ATOM      7  C   UNL     1      32.114 -14.039 -21.184  0.00  0.00    +0.084 C 
ENDROOT
BRANCH   1   9
ATOM      8  F   UNL     1      35.174 -17.736 -25.283  0.00  0.00    -0.204 F 
ATOM      9  C   UNL     1      33.598 -14.229 -23.778  0.00  0.00    +0.054 C 
ATOM     10  C   UNL     1      33.160 -14.720 -25.007  0.00  0.00    +0.017 C 
ATOM     11  C   UNL     1      34.570 -14.924 -23.056  0.00  0.00    +0.017 C 
ATOM     12  C   UNL     1      33.692 -15.904 -25.515  0.00  0.00    +0.031 C 
ATOM     13  C   UNL     1      35.102 -16.108 -23.564  0.00  0.00    +0.031 C 
ATOM     14  C   UNL     1      34.663 -16.599 -24.794  0.00  0.00    +0.140 C 
ENDBRANCH   1   9
BRANCH   5  15
ATOM     15  C   UNL     1      32.251  -9.577 -23.114  0.00  0.00    -0.031 C 
ATOM     16  C   UNL     1      32.059  -8.385 -23.224  0.00  0.00    -0.057 C 
BRANCH  16  19
ATOM     17 CL   UNL     1      32.524  -4.028 -25.928  0.00  0.00    -0.061 Cl
ATOM     18  N   UNL     1      31.392  -4.232 -23.605  0.00  0.00    -0.232 NA
ATOM     19  C   UNL     1      31.833  -6.979 -23.354  0.00  0.00    +0.046 C 
ATOM     20  C   UNL     1      32.266  -6.305 -24.489  0.00  0.00    +0.039 C 
ATOM     21  C   UNL     1      31.180  -6.283 -22.344  0.00  0.00    +0.029 C 
ATOM     22  C   UNL     1      32.024  -4.943 -24.566  0.00  0.00    +0.139 C 
ATOM     23  C   UNL     1      30.985  -4.922 -22.517  0.00  0.00    +0.100 C 
ENDBRANCH  16  19
ENDBRANCH   5  15
TORSDOF 3
ENDMDL
MODEL 8
REMARK VINA RESULT:      -9.1      3.194      5.063
REMARK  Name = 11438771
REMARK  3 active torsions:
REMARK  status: ('A' for Active; 'I' for Inactive)
REMARK    1  A    between atoms: N_1  and  C_9
REMARK    2  A    between atoms: C_5  and  C_15
REMARK    3  A    between atoms: C_16  and  C_19
REMARK                            x       y       z     vdW  Elec       q    Type
REMARK                         _______ _______ _______ _____ _____    ______ ____
ROOT
ATOM      1  N   UNL     1      33.059 -12.710 -23.298  0.00  0.00    -0.261 N 
ATOM      2  N   UNL     1      31.989 -11.227 -22.017  0.00  0.00    -0.386 NA
ATOM      3  C   UNL     1      33.184 -11.494 -23.924  0.00  0.00    +0.139 C 
ATOM      4  C   UNL     1      32.329 -12.490 -22.153  0.00  0.00    +0.165 C 
ATOM      5  C   UNL     1      32.519 -10.601 -23.118  0.00  0.00    +0.170 C 
ATOM      6  C   UNL     1      33.908 -11.312 -25.198  0.00  0.00    +0.030 C 
ATOM      7  C   UNL     1      31.989 -13.578 -21.212  0.00  0.00    +0.084 C 
ENDROOT
BRANCH   1   9
ATOM      8  F   UNL     1      35.088 -17.530 -25.037  0.00  0.00    -0.204 F 
ATOM      9  C   UNL     1      33.567 -13.919 -23.734  0.00  0.00    +0.054 C 
ATOM     10  C   UNL     1      34.502 -14.604 -22.957  0.00  0.00    +0.017 C 
ATOM     11  C   UNL     1      33.147 -14.455 -24.952  0.00  0.00    +0.017 C 
ATOM     12  C   UNL     1      35.016 -15.823 -23.398  0.00  0.00    +0.031 C 
ATOM     13  C   UNL     1      33.660 -15.674 -25.392  0.00  0.00    +0.031 C 
ATOM     14  C   UNL     1      34.596 -16.359 -24.615  0.00  0.00    +0.140 C 
ENDBRANCH   1   9
BRANCH   5  15
ATOM     15  C   UNL     1      32.347  -9.205 -23.310  0.00  0.00    -0.031 C 
ATOM     16  C   UNL     1      32.199  -8.013 -23.474  0.00  0.00    -0.057 C 
BRANCH  16  19
ATOM     17 CL   UNL     1      32.433  -3.872 -26.526  0.00  0.00    -0.061 Cl
ATOM     18  N   UNL     1      31.684  -3.860 -24.044  0.00  0.00    -0.232 NA
ATOM     19  C   UNL     1      32.025  -6.607 -23.668  0.00  0.00    +0.046 C 
ATOM     20  C   UNL     1      32.300  -6.034 -24.903  0.00  0.00    +0.039 C 
ATOM     21  C   UNL     1      31.579  -5.810 -22.620  0.00  0.00    +0.029 C 
ATOM     22  C   UNL     1      32.116  -4.667 -25.039  0.00  0.00    +0.139 C 
ATOM     23  C   UNL     1      31.425  -4.454 -22.858  0.00  0.00    +0.100 C 
ENDBRANCH  16  19
ENDBRANCH   5  15
TORSDOF 3
ENDMDL
MODEL 9
REMARK VINA RESULT:      -9.0      4.652      9.350
REMARK  Name = 11438771
REMARK  3 active torsions:
REMARK  status: ('A' for Active; 'I' for Inactive)
REMARK    1  A    between atoms: N_1  and  C_9
REMARK    2  A    between atoms: C_5  and  C_15
REMARK    3  A    between atoms: C_16  and  C_19
REMARK                            x       y       z     vdW  Elec       q    Type
REMARK                         _______ _______ _______ _____ _____    ______ ____
ROOT
ATOM      1  N   UNL     1      32.998 -10.121 -23.309  0.00  0.00    -0.261 N 
ATOM      2  N   UNL     1      34.533 -11.499 -24.163  0.00  0.00    -0.386 NA
ATOM      3  C   UNL     1      32.728 -11.367 -22.798  0.00  0.00    +0.139 C 
ATOM      4  C   UNL     1      34.096 -10.260 -24.125  0.00  0.00    +0.165 C 
ATOM      5  C   UNL     1      33.684 -12.194 -23.338  0.00  0.00    +0.170 C 
ATOM      6  C   UNL     1      31.612 -11.635 -21.870  0.00  0.00    +0.030 C 
ATOM      7  C   UNL     1      34.684  -9.119 -24.858  0.00  0.00    +0.084 C 
ENDROOT
BRANCH   1   9
ATOM      8  F   UNL     1      30.219  -5.473 -22.283  0.00  0.00    -0.204 F 
ATOM      9  C   UNL     1      32.301  -8.955 -23.052  0.00  0.00    +0.054 C 
ATOM     10  C   UNL     1      32.580  -8.214 -21.903  0.00  0.00    +0.017 C 
ATOM     11  C   UNL     1      31.319  -8.518 -23.942  0.00  0.00    +0.017 C 
ATOM     12  C   UNL     1      31.876  -7.039 -21.644  0.00  0.00    +0.031 C 
ATOM     13  C   UNL     1      30.615  -7.343 -23.682  0.00  0.00    +0.031 C 
ATOM     14  C   UNL     1      30.894  -6.602 -22.532  0.00  0.00    +0.140 C 
ENDBRANCH   1   9
BRANCH   5  15
ATOM     15  C   UNL     1      33.854 -13.589 -23.133  0.00  0.00    -0.031 C 
ATOM     16  C   UNL     1      33.999 -14.779 -22.956  0.00  0.00    -0.057 C 
BRANCH  16  19
ATOM     17 CL   UNL     1      34.921 -19.483 -24.838  0.00  0.00    -0.061 Cl
ATOM     18  N   UNL     1      34.503 -18.928 -22.340  0.00  0.00    -0.232 NA
ATOM     19  C   UNL     1      34.170 -16.184 -22.749  0.00  0.00    +0.046 C 
ATOM     20  C   UNL     1      34.436 -17.021 -23.825  0.00  0.00    +0.039 C 
ATOM     21  C   UNL     1      34.070 -16.715 -21.468  0.00  0.00    +0.029 C 
ATOM     22  C   UNL     1      34.593 -18.374 -23.571  0.00  0.00    +0.139 C 
ATOM     23  C   UNL     1      34.244 -18.082 -21.319  0.00  0.00    +0.100 C 
ENDBRANCH  16  19
ENDBRANCH   5  15
TORSDOF 3
ENDMDL
