MODEL 1
REMARK VINA RESULT:      -8.9      0.000      0.000
REMARK  Name = 4358
REMARK  5 active torsions:
REMARK  status: ('A' for Active; 'I' for Inactive)
REMARK    1  A    between atoms: N_2  and  C_7
REMARK    2  A    between atoms: N_3  and  C_13
REMARK    3  A    between atoms: C_13  and  C_14
REMARK    4  A    between atoms: C_14  and  C_15
REMARK    5  A    between atoms: C_15  and  C_16
REMARK                            x       y       z     vdW  Elec       q    Type
REMARK                         _______ _______ _______ _____ _____    ______ ____
ROOT
ATOM      1  O   UNL     1      33.513 -15.833 -22.484  0.00  0.00    -0.253 OA
ATOM      2  N   UNL     1      33.964 -15.195 -24.670  0.00  0.00    -0.291 N 
ATOM      3  N   UNL     1      35.357 -16.682 -23.607  0.00  0.00    -0.289 N 
ATOM      4  C   UNL     1      34.213 -15.896 -23.493  0.00  0.00    +0.301 C 
ATOM      5  H   UNL     1      34.584 -15.312 -25.426  0.00  0.00    +0.151 HD
ATOM      6  H   UNL     1      35.854 -16.669 -24.456  0.00  0.00    +0.151 HD
ENDROOT
BRANCH   2   7
ATOM      7  C   UNL     1      32.839 -14.301 -24.835  0.00  0.00    +0.073 C 
ATOM      8  C   UNL     1      32.552 -14.044 -26.318  0.00  0.00    +0.020 C 
ATOM      9  C   UNL     1      33.064 -12.987 -24.077  0.00  0.00    +0.020 C 
ATOM     10  C   UNL     1      33.613 -13.160 -26.974  0.00  0.00    +0.002 C 
ATOM     11  C   UNL     1      34.124 -12.105 -24.737  0.00  0.00    +0.002 C 
ATOM     12  C   UNL     1      33.810 -11.855 -26.209  0.00  0.00    +0.000 C 
ENDBRANCH   2   7
BRANCH   3  13
ATOM     13  C   UNL     1      35.844 -17.513 -22.532  0.00  0.00    +0.091 C 
BRANCH  13  14
ATOM     14  C   UNL     1      35.206 -18.901 -22.524  0.00  0.00    +0.026 C 
BRANCH  14  15
ATOM     15  C   UNL     1      34.078 -19.075 -21.499  0.00  0.00    +0.028 C 
BRANCH  15  16
ATOM     16  C   UNL     1      34.305 -20.206 -20.527  0.00  0.00    -0.022 C 
ATOM     17  C   UNL     1      35.602 -20.581 -20.211  0.00  0.00    -0.004 C 
ATOM     18  C   UNL     1      33.214 -20.850 -19.965  0.00  0.00    -0.004 C 
ATOM     19  C   UNL     1      35.813 -21.628 -19.312  0.00  0.00    -0.000 C 
ATOM     20  C   UNL     1      33.424 -21.896 -19.066  0.00  0.00    -0.000 C 
ATOM     21  C   UNL     1      34.724 -22.285 -18.740  0.00  0.00    -0.000 C 
ENDBRANCH  15  16
ENDBRANCH  14  15
ENDBRANCH  13  14
ENDBRANCH   3  13
TORSDOF 5
ENDMDL
MODEL 2
REMARK VINA RESULT:      -8.9      4.838     10.010
REMARK  Name = 4358
REMARK  5 active torsions:
REMARK  status: ('A' for Active; 'I' for Inactive)
REMARK    1  A    between atoms: N_2  and  C_7
REMARK    2  A    between atoms: N_3  and  C_13
REMARK    3  A    between atoms: C_13  and  C_14
REMARK    4  A    between atoms: C_14  and  C_15
REMARK    5  A    between atoms: C_15  and  C_16
REMARK                            x       y       z     vdW  Elec       q    Type
REMARK                         _______ _______ _______ _____ _____    ______ ____
ROOT
ATOM      1  O   UNL     1      33.654 -23.297 -17.035  0.00  0.00    -0.253 OA
ATOM      2  N   UNL     1      31.369 -22.888 -17.060  0.00  0.00    -0.291 N 
ATOM      3  N   UNL     1      32.695 -22.053 -18.741  0.00  0.00    -0.289 N 
ATOM      4  C   UNL     1      32.664 -22.793 -17.562  0.00  0.00    +0.301 C 
ATOM      5  H   UNL     1      30.640 -22.450 -17.556  0.00  0.00    +0.151 HD
ATOM      6  H   UNL     1      31.850 -21.687 -19.090  0.00  0.00    +0.151 HD
ENDROOT
BRANCH   2   7
ATOM      7  C   UNL     1      31.042 -23.602 -15.845  0.00  0.00    +0.073 C 
ATOM      8  C   UNL     1      30.115 -24.786 -16.134  0.00  0.00    +0.020 C 
ATOM      9  C   UNL     1      30.431 -22.659 -14.802  0.00  0.00    +0.020 C 
ATOM     10  C   UNL     1      28.698 -24.345 -16.499  0.00  0.00    +0.002 C 
ATOM     11  C   UNL     1      29.013 -22.221 -15.169  0.00  0.00    +0.002 C 
ATOM     12  C   UNL     1      28.107 -23.418 -15.441  0.00  0.00    +0.000 C 
ENDBRANCH   2   7
BRANCH   3  13
ATOM     13  C   UNL     1      33.913 -21.798 -19.473  0.00  0.00    +0.091 C 
BRANCH  13  14
ATOM     14  C   UNL     1      33.860 -20.497 -20.271  0.00  0.00    +0.026 C 
BRANCH  14  15
ATOM     15  C   UNL     1      35.195 -20.086 -20.906  0.00  0.00    +0.028 C 
BRANCH  15  16
ATOM     16  C   UNL     1      35.084 -18.923 -21.861  0.00  0.00    -0.022 C 
ATOM     17  C   UNL     1      34.953 -19.168 -23.219  0.00  0.00    -0.004 C 
ATOM     18  C   UNL     1      35.114 -17.629 -21.364  0.00  0.00    -0.004 C 
ATOM     19  C   UNL     1      34.852 -18.092 -24.102  0.00  0.00    -0.000 C 
ATOM     20  C   UNL     1      35.013 -16.554 -22.246  0.00  0.00    -0.000 C 
ATOM     21  C   UNL     1      34.881 -16.786 -23.616  0.00  0.00    -0.000 C 
ENDBRANCH  15  16
ENDBRANCH  14  15
ENDBRANCH  13  14
ENDBRANCH   3  13
TORSDOF 5
ENDMDL
MODEL 3
REMARK VINA RESULT:      -8.8      1.678      2.445
REMARK  Name = 4358
REMARK  5 active torsions:
REMARK  status: ('A' for Active; 'I' for Inactive)
REMARK    1  A    between atoms: N_2  and  C_7
REMARK    2  A    between atoms: N_3  and  C_13
REMARK    3  A    between atoms: C_13  and  C_14
REMARK    4  A    between atoms: C_14  and  C_15
REMARK    5  A    between atoms: C_15  and  C_16
REMARK                            x       y       z     vdW  Elec       q    Type
REMARK                         _______ _______ _______ _____ _____    ______ ____
ROOT
ATOM      1  O   UNL     1      32.538 -14.289 -23.041  0.00  0.00    -0.253 OA
ATOM      2  N   UNL     1      34.199 -12.781 -23.641  0.00  0.00    -0.291 N 
ATOM      3  N   UNL     1      34.717 -14.573 -22.298  0.00  0.00    -0.289 N 
ATOM      4  C   UNL     1      33.709 -13.915 -22.997  0.00  0.00    +0.301 C 
ATOM      5  H   UNL     1      35.154 -12.564 -23.546  0.00  0.00    +0.151 HD
ATOM      6  H   UNL     1      35.627 -14.199 -22.321  0.00  0.00    +0.151 HD
ENDROOT
BRANCH   2   7
ATOM      7  C   UNL     1      33.371 -11.907 -24.442  0.00  0.00    +0.073 C 
ATOM      8  C   UNL     1      34.009 -11.646 -25.810  0.00  0.00    +0.020 C 
ATOM      9  C   UNL     1      33.083 -10.594 -23.704  0.00  0.00    +0.020 C 
ATOM     10  C   UNL     1      35.236 -10.740 -25.721  0.00  0.00    +0.002 C 
ATOM     11  C   UNL     1      34.312  -9.689 -23.618  0.00  0.00    +0.002 C 
ATOM     12  C   UNL     1      34.922  -9.436 -24.993  0.00  0.00    +0.000 C 
ENDBRANCH   2   7
BRANCH   3  13
ATOM     13  C   UNL     1      34.483 -15.780 -21.540  0.00  0.00    +0.091 C 
BRANCH  13  14
ATOM     14  C   UNL     1      34.610 -17.043 -22.390  0.00  0.00    +0.026 C 
BRANCH  14  15
ATOM     15  C   UNL     1      35.603 -18.077 -21.845  0.00  0.00    +0.028 C 
BRANCH  15  16
ATOM     16  C   UNL     1      34.952 -19.212 -21.095  0.00  0.00    -0.022 C 
ATOM     17  C   UNL     1      33.569 -19.303 -21.063  0.00  0.00    -0.004 C 
ATOM     18  C   UNL     1      35.748 -20.146 -20.449  0.00  0.00    -0.004 C 
ATOM     19  C   UNL     1      32.967 -20.352 -20.367  0.00  0.00    -0.000 C 
ATOM     20  C   UNL     1      35.147 -21.196 -19.755  0.00  0.00    -0.000 C 
ATOM     21  C   UNL     1      33.756 -21.299 -19.714  0.00  0.00    -0.000 C 
ENDBRANCH  15  16
ENDBRANCH  14  15
ENDBRANCH  13  14
ENDBRANCH   3  13
TORSDOF 5
ENDMDL
MODEL 4
REMARK VINA RESULT:      -8.8      3.204      4.035
REMARK  Name = 4358
REMARK  5 active torsions:
REMARK  status: ('A' for Active; 'I' for Inactive)
REMARK    1  A    between atoms: N_2  and  C_7
REMARK    2  A    between atoms: N_3  and  C_13
REMARK    3  A    between atoms: C_13  and  C_14
REMARK    4  A    between atoms: C_14  and  C_15
REMARK    5  A    between atoms: C_15  and  C_16
REMARK                            x       y       z     vdW  Elec       q    Type
REMARK                         _______ _______ _______ _____ _____    ______ ____
ROOT
ATOM      1  O   UNL     1      31.937 -13.879 -22.687  0.00  0.00    -0.253 OA
ATOM      2  N   UNL     1      32.297 -12.610 -20.776  0.00  0.00    -0.291 N 
ATOM      3  N   UNL     1      33.752 -14.307 -21.308  0.00  0.00    -0.289 N 
ATOM      4  C   UNL     1      32.600 -13.622 -21.683  0.00  0.00    +0.301 C 
ATOM      5  H   UNL     1      32.891 -12.481 -20.001  0.00  0.00    +0.151 HD
ATOM      6  H   UNL     1      34.218 -14.031 -20.486  0.00  0.00    +0.151 HD
ENDROOT
BRANCH   2   7
ATOM      7  C   UNL     1      31.153 -11.736 -20.918  0.00  0.00    +0.073 C 
ATOM      8  C   UNL     1      31.324 -10.794 -22.113  0.00  0.00    +0.020 C 
ATOM      9  C   UNL     1      30.895 -10.954 -19.625  0.00  0.00    +0.020 C 
ATOM     10  C   UNL     1      32.375  -9.713 -21.860  0.00  0.00    +0.002 C 
ATOM     11  C   UNL     1      31.948  -9.873 -19.376  0.00  0.00    +0.002 C 
ATOM     12  C   UNL     1      32.091  -8.940 -20.575  0.00  0.00    +0.000 C 
ENDBRANCH   2   7
BRANCH   3  13
ATOM     13  C   UNL     1      34.291 -15.407 -22.072  0.00  0.00    +0.091 C 
BRANCH  13  14
ATOM     14  C   UNL     1      34.723 -16.580 -21.193  0.00  0.00    +0.026 C 
BRANCH  14  15
ATOM     15  C   UNL     1      34.935 -17.897 -21.951  0.00  0.00    +0.028 C 
BRANCH  15  16
ATOM     16  C   UNL     1      34.645 -19.127 -21.129  0.00  0.00    -0.022 C 
ATOM     17  C   UNL     1      33.330 -19.460 -20.840  0.00  0.00    -0.004 C 
ATOM     18  C   UNL     1      35.699 -19.906 -20.674  0.00  0.00    -0.004 C 
ATOM     19  C   UNL     1      33.062 -20.598 -20.079  0.00  0.00    -0.000 C 
ATOM     20  C   UNL     1      35.431 -21.044 -19.913  0.00  0.00    -0.000 C 
ATOM     21  C   UNL     1      34.112 -21.390 -19.616  0.00  0.00    -0.000 C 
ENDBRANCH  15  16
ENDBRANCH  14  15
ENDBRANCH  13  14
ENDBRANCH   3  13
TORSDOF 5
ENDMDL
MODEL 5
REMARK VINA RESULT:      -8.8      2.708      4.488
REMARK  Name = 4358
REMARK  5 active torsions:
REMARK  status: ('A' for Active; 'I' for Inactive)
REMARK    1  A    between atoms: N_2  and  C_7
REMARK    2  A    between atoms: N_3  and  C_13
REMARK    3  A    between atoms: C_13  and  C_14
REMARK    4  A    between atoms: C_14  and  C_15
REMARK    5  A    between atoms: C_15  and  C_16
REMARK                            x       y       z     vdW  Elec       q    Type
REMARK                         _______ _______ _______ _____ _____    ______ ____
ROOT
ATOM      1  O   UNL     1      35.975 -18.362 -20.686  0.00  0.00    -0.253 OA
ATOM      2  N   UNL     1      34.140 -17.195 -21.498  0.00  0.00    -0.291 N 
ATOM      3  N   UNL     1      33.934 -19.424 -20.979  0.00  0.00    -0.289 N 
ATOM      4  C   UNL     1      34.793 -18.329 -21.024  0.00  0.00    +0.301 C 
ATOM      5  H   UNL     1      33.189 -17.269 -21.743  0.00  0.00    +0.151 HD
ATOM      6  H   UNL     1      33.002 -19.304 -21.270  0.00  0.00    +0.151 HD
ENDROOT
BRANCH   2   7
ATOM      7  C   UNL     1      34.790 -15.912 -21.648  0.00  0.00    +0.073 C 
ATOM      8  C   UNL     1      34.355 -14.942 -20.545  0.00  0.00    +0.020 C 
ATOM      9  C   UNL     1      34.532 -15.323 -23.040  0.00  0.00    +0.020 C 
ATOM     10  C   UNL     1      32.915 -14.462 -20.722  0.00  0.00    +0.002 C 
ATOM     11  C   UNL     1      33.090 -14.843 -23.213  0.00  0.00    +0.002 C 
ATOM     12  C   UNL     1      32.685 -13.870 -22.110  0.00  0.00    +0.000 C 
ENDBRANCH   2   7
BRANCH   3  13
ATOM     13  C   UNL     1      34.354 -20.729 -20.526  0.00  0.00    +0.091 C 
BRANCH  13  14
ATOM     14  C   UNL     1      33.423 -21.312 -19.464  0.00  0.00    +0.026 C 
BRANCH  14  15
ATOM     15  C   UNL     1      33.863 -22.673 -18.912  0.00  0.00    +0.028 C 
BRANCH  15  16
ATOM     16  C   UNL     1      33.418 -22.930 -17.494  0.00  0.00    -0.022 C 
ATOM     17  C   UNL     1      32.064 -22.938 -17.196  0.00  0.00    -0.004 C 
ATOM     18  C   UNL     1      34.371 -23.153 -16.511  0.00  0.00    -0.004 C 
ATOM     19  C   UNL     1      31.652 -23.174 -15.884  0.00  0.00    -0.000 C 
ATOM     20  C   UNL     1      33.960 -23.389 -15.199  0.00  0.00    -0.000 C 
ATOM     21  C   UNL     1      32.600 -23.400 -14.885  0.00  0.00    -0.000 C 
ENDBRANCH  15  16
ENDBRANCH  14  15
ENDBRANCH  13  14
ENDBRANCH   3  13
TORSDOF 5
ENDMDL
MODEL 6
REMARK VINA RESULT:      -8.8      2.451      9.002
REMARK  Name = 4358
REMARK  5 active torsions:
REMARK  status: ('A' for Active; 'I' for Inactive)
REMARK    1  A    between atoms: N_2  and  C_7
REMARK    2  A    between atoms: N_3  and  C_13
REMARK    3  A    between atoms: C_13  and  C_14
REMARK    4  A    between atoms: C_14  and  C_15
REMARK    5  A    between atoms: C_15  and  C_16
REMARK                            x       y       z     vdW  Elec       q    Type
REMARK                         _______ _______ _______ _____ _____    ______ ____
ROOT
ATOM      1  O   UNL     1      34.429 -16.500 -25.213  0.00  0.00    -0.253 OA
ATOM      2  N   UNL     1      35.236 -16.917 -23.076  0.00  0.00    -0.291 N 
ATOM      3  N   UNL     1      34.266 -14.889 -23.552  0.00  0.00    -0.289 N 
ATOM      4  C   UNL     1      34.626 -16.136 -24.055  0.00  0.00    +0.301 C 
ATOM      5  H   UNL     1      35.349 -16.536 -22.175  0.00  0.00    +0.151 HD
ATOM      6  H   UNL     1      34.464 -14.685 -22.610  0.00  0.00    +0.151 HD
ENDROOT
BRANCH   2   7
ATOM      7  C   UNL     1      35.712 -18.261 -23.319  0.00  0.00    +0.073 C 
ATOM      8  C   UNL     1      34.562 -19.272 -23.259  0.00  0.00    +0.020 C 
ATOM      9  C   UNL     1      36.831 -18.634 -22.339  0.00  0.00    +0.020 C 
ATOM     10  C   UNL     1      34.049 -19.491 -21.837  0.00  0.00    +0.002 C 
ATOM     11  C   UNL     1      36.313 -18.854 -20.917  0.00  0.00    +0.002 C 
ATOM     12  C   UNL     1      35.177 -19.872 -20.883  0.00  0.00    +0.000 C 
ENDBRANCH   2   7
BRANCH   3  13
ATOM     13  C   UNL     1      33.615 -13.881 -24.356  0.00  0.00    +0.091 C 
BRANCH  13  14
ATOM     14  C   UNL     1      33.615 -12.506 -23.690  0.00  0.00    +0.026 C 
BRANCH  14  15
ATOM     15  C   UNL     1      33.933 -11.341 -24.636  0.00  0.00    +0.028 C 
BRANCH  15  16
ATOM     16  C   UNL     1      33.867  -9.986 -23.979  0.00  0.00    -0.022 C 
ATOM     17  C   UNL     1      34.883  -9.070 -24.204  0.00  0.00    -0.004 C 
ATOM     18  C   UNL     1      32.791  -9.678 -23.160  0.00  0.00    -0.004 C 
ATOM     19  C   UNL     1      34.823  -7.816 -23.595  0.00  0.00    -0.000 C 
ATOM     20  C   UNL     1      32.730  -8.424 -22.551  0.00  0.00    -0.000 C 
ATOM     21  C   UNL     1      33.747  -7.493 -22.769  0.00  0.00    -0.000 C 
ENDBRANCH  15  16
ENDBRANCH  14  15
ENDBRANCH  13  14
ENDBRANCH   3  13
TORSDOF 5
ENDMDL
MODEL 7
REMARK VINA RESULT:      -8.7      2.363      4.112
REMARK  Name = 4358
REMARK  5 active torsions:
REMARK  status: ('A' for Active; 'I' for Inactive)
REMARK    1  A    between atoms: N_2  and  C_7
REMARK    2  A    between atoms: N_3  and  C_13
REMARK    3  A    between atoms: C_13  and  C_14
REMARK    4  A    between atoms: C_14  and  C_15
REMARK    5  A    between atoms: C_15  and  C_16
REMARK                            x       y       z     vdW  Elec       q    Type
REMARK                         _______ _______ _______ _____ _____    ______ ____
ROOT
ATOM      1  O   UNL     1      35.832 -18.185 -20.605  0.00  0.00    -0.253 OA
ATOM      2  N   UNL     1      34.102 -17.047 -21.655  0.00  0.00    -0.291 N 
ATOM      3  N   UNL     1      33.911 -19.305 -21.268  0.00  0.00    -0.289 N 
ATOM      4  C   UNL     1      34.719 -18.179 -21.128  0.00  0.00    +0.301 C 
ATOM      5  H   UNL     1      33.207 -17.143 -22.054  0.00  0.00    +0.151 HD
ATOM      6  H   UNL     1      33.033 -19.204 -21.701  0.00  0.00    +0.151 HD
ENDROOT
BRANCH   2   7
ATOM      7  C   UNL     1      34.712 -15.736 -21.644  0.00  0.00    +0.073 C 
ATOM      8  C   UNL     1      34.188 -14.894 -20.477  0.00  0.00    +0.020 C 
ATOM      9  C   UNL     1      34.503 -15.021 -22.984  0.00  0.00    +0.020 C 
ATOM     10  C   UNL     1      32.742 -14.443 -20.683  0.00  0.00    +0.002 C 
ATOM     11  C   UNL     1      33.056 -14.571 -23.186  0.00  0.00    +0.002 C 
ATOM     12  C   UNL     1      32.561 -13.724 -22.017  0.00  0.00    +0.000 C 
ENDBRANCH   2   7
BRANCH   3  13
ATOM     13  C   UNL     1      34.308 -20.614 -20.807  0.00  0.00    +0.091 C 
BRANCH  13  14
ATOM     14  C   UNL     1      33.420 -21.136 -19.680  0.00  0.00    +0.026 C 
BRANCH  14  15
ATOM     15  C   UNL     1      33.820 -22.517 -19.144  0.00  0.00    +0.028 C 
BRANCH  15  16
ATOM     16  C   UNL     1      34.818 -22.466 -18.014  0.00  0.00    -0.022 C 
ATOM     17  C   UNL     1      34.484 -23.013 -16.785  0.00  0.00    -0.004 C 
ATOM     18  C   UNL     1      36.054 -21.874 -18.223  0.00  0.00    -0.004 C 
ATOM     19  C   UNL     1      35.406 -22.966 -15.739  0.00  0.00    -0.000 C 
ATOM     20  C   UNL     1      36.977 -21.827 -17.179  0.00  0.00    -0.000 C 
ATOM     21  C   UNL     1      36.653 -22.373 -15.936  0.00  0.00    -0.000 C 
ENDBRANCH  15  16
ENDBRANCH  14  15
ENDBRANCH  13  14
ENDBRANCH   3  13
TORSDOF 5
ENDMDL
MODEL 8
REMARK VINA RESULT:      -8.6      2.927      8.566
REMARK  Name = 4358
REMARK  5 active torsions:
REMARK  status: ('A' for Active; 'I' for Inactive)
REMARK    1  A    between atoms: N_2  and  C_7
REMARK    2  A    between atoms: N_3  and  C_13
REMARK    3  A    between atoms: C_13  and  C_14
REMARK    4  A    between atoms: C_14  and  C_15
REMARK    5  A    between atoms: C_15  and  C_16
REMARK                            x       y       z     vdW  Elec       q    Type
REMARK                         _______ _______ _______ _____ _____    ______ ____
ROOT
ATOM      1  O   UNL     1      34.364 -17.097 -22.337  0.00  0.00    -0.253 OA
ATOM      2  N   UNL     1      35.314 -18.310 -20.601  0.00  0.00    -0.291 N 
ATOM      3  N   UNL     1      34.859 -16.075 -20.314  0.00  0.00    -0.289 N 
ATOM      4  C   UNL     1      34.805 -17.156 -21.191  0.00  0.00    +0.301 C 
ATOM      5  H   UNL     1      35.645 -18.256 -19.675  0.00  0.00    +0.151 HD
ATOM      6  H   UNL     1      35.230 -16.217 -19.414  0.00  0.00    +0.151 HD
ENDROOT
BRANCH   2   7
ATOM      7  C   UNL     1      35.380 -19.584 -21.282  0.00  0.00    +0.073 C 
ATOM      8  C   UNL     1      34.003 -20.253 -21.333  0.00  0.00    +0.020 C 
ATOM      9  C   UNL     1      36.421 -20.502 -20.631  0.00  0.00    +0.020 C 
ATOM     10  C   UNL     1      33.555 -20.775 -19.968  0.00  0.00    +0.002 C 
ATOM     11  C   UNL     1      35.968 -21.023 -19.266  0.00  0.00    +0.002 C 
ATOM     12  C   UNL     1      34.601 -21.695 -19.345  0.00  0.00    +0.000 C 
ENDBRANCH   2   7
BRANCH   3  13
ATOM     13  C   UNL     1      34.395 -14.755 -20.671  0.00  0.00    +0.091 C 
BRANCH  13  14
ATOM     14  C   UNL     1      32.882 -14.605 -20.534  0.00  0.00    +0.026 C 
BRANCH  14  15
ATOM     15  C   UNL     1      32.218 -13.799 -21.658  0.00  0.00    +0.028 C 
BRANCH  15  16
ATOM     16  C   UNL     1      32.006 -12.344 -21.322  0.00  0.00    -0.022 C 
ATOM     17  C   UNL     1      31.776 -11.976 -20.005  0.00  0.00    -0.004 C 
ATOM     18  C   UNL     1      32.044 -11.398 -22.335  0.00  0.00    -0.004 C 
ATOM     19  C   UNL     1      31.579 -10.630 -19.694  0.00  0.00    -0.000 C 
ATOM     20  C   UNL     1      31.847 -10.053 -22.025  0.00  0.00    -0.000 C 
ATOM     21  C   UNL     1      31.615  -9.669 -20.704  0.00  0.00    -0.000 C 
ENDBRANCH  15  16
ENDBRANCH  14  15
ENDBRANCH  13  14
ENDBRANCH   3  13
TORSDOF 5
ENDMDL
MODEL 9
REMARK VINA RESULT:      -8.5      4.225      8.505
REMARK  Name = 4358
REMARK  5 active torsions:
REMARK  status: ('A' for Active; 'I' for Inactive)
REMARK    1  A    between atoms: N_2  and  C_7
REMARK    2  A    between atoms: N_3  and  C_13
REMARK    3  A    between atoms: C_13  and  C_14
REMARK    4  A    between atoms: C_14  and  C_15
REMARK    5  A    between atoms: C_15  and  C_16
REMARK                            x       y       z     vdW  Elec       q    Type
REMARK                         _______ _______ _______ _____ _____    ______ ____
ROOT
ATOM      1  O   UNL     1      33.393 -11.628 -25.365  0.00  0.00    -0.253 OA
ATOM      2  N   UNL     1      34.331 -12.807 -23.598  0.00  0.00    -0.291 N 
ATOM      3  N   UNL     1      34.872 -10.595 -23.907  0.00  0.00    -0.289 N 
ATOM      4  C   UNL     1      34.130 -11.674 -24.382  0.00  0.00    +0.301 C 
ATOM      5  H   UNL     1      34.942 -12.743 -22.829  0.00  0.00    +0.151 HD
ATOM      6  H   UNL     1      35.436 -10.725 -23.112  0.00  0.00    +0.151 HD
ENDROOT
BRANCH   2   7
ATOM      7  C   UNL     1      33.684 -14.074 -23.860  0.00  0.00    +0.073 C 
ATOM      8  C   UNL     1      32.320 -14.150 -23.166  0.00  0.00    +0.020 C 
ATOM      9  C   UNL     1      34.583 -15.246 -23.448  0.00  0.00    +0.020 C 
ATOM     10  C   UNL     1      32.443 -14.293 -21.649  0.00  0.00    +0.002 C 
ATOM     11  C   UNL     1      34.702 -15.386 -21.931  0.00  0.00    +0.002 C 
ATOM     12  C   UNL     1      33.332 -15.472 -21.264  0.00  0.00    +0.000 C 
ENDBRANCH   2   7
BRANCH   3  13
ATOM     13  C   UNL     1      34.850  -9.295 -24.535  0.00  0.00    +0.091 C 
BRANCH  13  14
ATOM     14  C   UNL     1      34.220  -8.223 -23.648  0.00  0.00    +0.026 C 
BRANCH  14  15
ATOM     15  C   UNL     1      32.696  -8.333 -23.504  0.00  0.00    +0.028 C 
BRANCH  15  16
ATOM     16  C   UNL     1      32.251  -9.027 -22.242  0.00  0.00    -0.022 C 
ATOM     17  C   UNL     1      32.546  -8.460 -21.011  0.00  0.00    -0.004 C 
ATOM     18  C   UNL     1      31.553 -10.222 -22.332  0.00  0.00    -0.004 C 
ATOM     19  C   UNL     1      32.135  -9.103 -19.844  0.00  0.00    -0.000 C 
ATOM     20  C   UNL     1      31.141 -10.865 -21.165  0.00  0.00    -0.000 C 
ATOM     21  C   UNL     1      31.432 -10.306 -19.920  0.00  0.00    -0.000 C 
ENDBRANCH  15  16
ENDBRANCH  14  15
ENDBRANCH  13  14
ENDBRANCH   3  13
TORSDOF 5
ENDMDL
