MODEL 1
REMARK VINA RESULT:      -9.7      0.000      0.000
REMARK  Name = 24892823
REMARK  8 active torsions:
REMARK  status: ('A' for Active; 'I' for Inactive)
REMARK    1  A    between atoms: C_1  and  C_5
REMARK    2  A    between atoms: C_1  and  O_16
REMARK    3  A    between atoms: C_1  and  C_18
REMARK    4  A    between atoms: N_4  and  C_8
REMARK    5  A    between atoms: C_13  and  C_15
REMARK    6  A    between atoms: C_18  and  O_19
REMARK    7  A    between atoms: O_19  and  C_20
REMARK    8  A    between atoms: C_25  and  C_27
REMARK                            x       y       z     vdW  Elec       q    Type
REMARK                         _______ _______ _______ _____ _____    ______ ____
ROOT
ATOM      1  C   UNL     1      34.456 -16.002 -23.497  0.00  0.00    +0.197 C 
ATOM      2  C   UNL     1      33.847 -16.019 -24.901  0.00  0.00    +0.043 C 
ENDROOT
BRANCH   1   5
ATOM      3  O   UNL     1      34.508 -14.489 -21.620  0.00  0.00    -0.272 OA
ATOM      4  N   UNL     1      33.512 -13.751 -23.606  0.00  0.00    -0.282 N 
ATOM      5  C   UNL     1      34.167 -14.665 -22.788  0.00  0.00    +0.254 C 
ATOM      6  H   UNL     1      33.313 -14.053 -24.521  0.00  0.00    +0.155 HD
BRANCH   4   8
ATOM      7  I   UNL     1      34.547  -8.455 -24.199  0.00  0.00    -0.042 I 
ATOM      8  C   UNL     1      33.099 -12.438 -23.278  0.00  0.00    +0.051 C 
ATOM      9  C   UNL     1      33.815 -11.340 -23.757  0.00  0.00    +0.021 C 
ATOM     10  C   UNL     1      31.976 -12.240 -22.474  0.00  0.00    +0.015 C 
ATOM     11  C   UNL     1      33.408 -10.046 -23.432  0.00  0.00    +0.041 C 
ATOM     12  C   UNL     1      31.569 -10.947 -22.150  0.00  0.00    +0.012 C 
ATOM     13  C   UNL     1      32.285  -9.849 -22.629  0.00  0.00    +0.074 C 
BRANCH  13  15
ATOM     14  N   UNL     1      31.445  -7.486 -21.969  0.00  0.00    -0.191 NA
ATOM     15  C   UNL     1      31.821  -8.544 -22.264  0.00  0.00    +0.101 C 
ENDBRANCH  13  15
ENDBRANCH   4   8
ENDBRANCH   1   5
BRANCH   1  16
ATOM     16  O   UNL     1      35.873 -16.117 -23.635  0.00  0.00    -0.375 OA
ATOM     17  H   UNL     1      36.304 -15.399 -23.146  0.00  0.00    +0.211 HD
ENDBRANCH   1  16
BRANCH   1  18
ATOM     18  C   UNL     1      33.979 -17.212 -22.686  0.00  0.00    +0.241 C 
BRANCH  18  19
ATOM     19  O   UNL     1      35.051 -17.780 -21.938  0.00  0.00    -0.472 OA
BRANCH  19  20
ATOM     20  C   UNL     1      34.773 -18.922 -21.235  0.00  0.00    +0.139 C 
ATOM     21  C   UNL     1      33.448 -19.280 -20.982  0.00  0.00    +0.038 C 
ATOM     22  C   UNL     1      35.813 -19.727 -20.773  0.00  0.00    +0.038 C 
ATOM     23  C   UNL     1      33.165 -20.442 -20.267  0.00  0.00    +0.013 C 
ATOM     24  C   UNL     1      35.530 -20.890 -20.057  0.00  0.00    +0.013 C 
ATOM     25  C   UNL     1      34.206 -21.248 -19.804  0.00  0.00    +0.069 C 
BRANCH  25  27
ATOM     26  N   UNL     1      33.679 -23.407 -18.474  0.00  0.00    -0.191 NA
ATOM     27  C   UNL     1      33.915 -22.439 -19.070  0.00  0.00    +0.100 C 
ENDBRANCH  25  27
ENDBRANCH  19  20
ENDBRANCH  18  19
ENDBRANCH   1  18
TORSDOF 8
ENDMDL
MODEL 2
REMARK VINA RESULT:      -9.7      1.507      2.097
REMARK  Name = 24892823
REMARK  8 active torsions:
REMARK  status: ('A' for Active; 'I' for Inactive)
REMARK    1  A    between atoms: C_1  and  C_5
REMARK    2  A    between atoms: C_1  and  O_16
REMARK    3  A    between atoms: C_1  and  C_18
REMARK    4  A    between atoms: N_4  and  C_8
REMARK    5  A    between atoms: C_13  and  C_15
REMARK    6  A    between atoms: C_18  and  O_19
REMARK    7  A    between atoms: O_19  and  C_20
REMARK    8  A    between atoms: C_25  and  C_27
REMARK                            x       y       z     vdW  Elec       q    Type
REMARK                         _______ _______ _______ _____ _____    ______ ____
ROOT
ATOM      1  C   UNL     1      34.666 -16.737 -23.893  0.00  0.00    +0.197 C 
ATOM      2  C   UNL     1      34.552 -17.739 -25.045  0.00  0.00    +0.043 C 
ENDROOT
BRANCH   1   5
ATOM      3  O   UNL     1      33.229 -15.343 -25.237  0.00  0.00    -0.272 OA
ATOM      4  N   UNL     1      34.131 -14.435 -23.276  0.00  0.00    -0.282 N 
ATOM      5  C   UNL     1      33.921 -15.430 -24.225  0.00  0.00    +0.254 C 
ATOM      6  H   UNL     1      34.716 -14.671 -22.521  0.00  0.00    +0.155 HD
BRANCH   4   8
ATOM      7  I   UNL     1      30.897 -10.926 -20.689  0.00  0.00    -0.042 I 
ATOM      8  C   UNL     1      33.602 -13.122 -23.270  0.00  0.00    +0.051 C 
ATOM      9  C   UNL     1      32.728 -12.726 -22.258  0.00  0.00    +0.021 C 
ATOM     10  C   UNL     1      33.955 -12.222 -24.276  0.00  0.00    +0.015 C 
ATOM     11  C   UNL     1      32.206 -11.432 -22.252  0.00  0.00    +0.041 C 
ATOM     12  C   UNL     1      33.435 -10.929 -24.271  0.00  0.00    +0.012 C 
ATOM     13  C   UNL     1      32.560 -10.534 -23.258  0.00  0.00    +0.074 C 
BRANCH  13  15
ATOM     14  N   UNL     1      31.647  -8.108 -23.339  0.00  0.00    -0.191 NA
ATOM     15  C   UNL     1      32.056  -9.193 -23.303  0.00  0.00    +0.101 C 
ENDBRANCH  13  15
ENDBRANCH   4   8
ENDBRANCH   1   5
BRANCH   1  16
ATOM     16  O   UNL     1      36.047 -16.415 -23.731  0.00  0.00    -0.375 OA
ATOM     17  H   UNL     1      36.500 -17.149 -23.287  0.00  0.00    +0.211 HD
ENDBRANCH   1  16
BRANCH   1  18
ATOM     18  C   UNL     1      34.189 -17.367 -22.579  0.00  0.00    +0.241 C 
BRANCH  18  19
ATOM     19  O   UNL     1      35.256 -18.049 -21.924  0.00  0.00    -0.472 OA
BRANCH  19  20
ATOM     20  C   UNL     1      34.919 -19.150 -21.183  0.00  0.00    +0.139 C 
ATOM     21  C   UNL     1      35.918 -19.952 -20.630  0.00  0.00    +0.038 C 
ATOM     22  C   UNL     1      33.577 -19.470 -20.981  0.00  0.00    +0.038 C 
ATOM     23  C   UNL     1      35.574 -21.073 -19.877  0.00  0.00    +0.013 C 
ATOM     24  C   UNL     1      33.232 -20.591 -20.228  0.00  0.00    +0.013 C 
ATOM     25  C   UNL     1      34.231 -21.394 -19.675  0.00  0.00    +0.069 C 
BRANCH  25  27
ATOM     26  N   UNL     1      33.593 -23.477 -18.275  0.00  0.00    -0.191 NA
ATOM     27  C   UNL     1      33.880 -22.543 -18.903  0.00  0.00    +0.100 C 
ENDBRANCH  25  27
ENDBRANCH  19  20
ENDBRANCH  18  19
ENDBRANCH   1  18
TORSDOF 8
ENDMDL
MODEL 3
REMARK VINA RESULT:      -9.6      1.404      1.843
REMARK  Name = 24892823
REMARK  8 active torsions:
REMARK  status: ('A' for Active; 'I' for Inactive)
REMARK    1  A    between atoms: C_1  and  C_5
REMARK    2  A    between atoms: C_1  and  O_16
REMARK    3  A    between atoms: C_1  and  C_18
REMARK    4  A    between atoms: N_4  and  C_8
REMARK    5  A    between atoms: C_13  and  C_15
REMARK    6  A    between atoms: C_18  and  O_19
REMARK    7  A    between atoms: O_19  and  C_20
REMARK    8  A    between atoms: C_25  and  C_27
REMARK                            x       y       z     vdW  Elec       q    Type
REMARK                         _______ _______ _______ _____ _____    ______ ____
ROOT
ATOM      1  C   UNL     1      35.040 -17.832 -23.247  0.00  0.00    +0.197 C 
ATOM      2  C   UNL     1      34.636 -17.849 -24.723  0.00  0.00    +0.043 C 
ENDROOT
BRANCH   1   5
ATOM      3  O   UNL     1      35.046 -16.225 -21.448  0.00  0.00    -0.272 OA
ATOM      4  N   UNL     1      33.941 -15.658 -23.433  0.00  0.00    -0.282 N 
ATOM      5  C   UNL     1      34.682 -16.483 -22.594  0.00  0.00    +0.254 C 
ATOM      6  H   UNL     1      33.734 -16.019 -24.324  0.00  0.00    +0.155 HD
BRANCH   4   8
ATOM      7  I   UNL     1      34.257 -10.387 -24.692  0.00  0.00    -0.042 I 
ATOM      8  C   UNL     1      33.449 -14.360 -23.154  0.00  0.00    +0.051 C 
ATOM      9  C   UNL     1      33.941 -13.261 -23.858  0.00  0.00    +0.021 C 
ATOM     10  C   UNL     1      32.471 -14.180 -22.176  0.00  0.00    +0.015 C 
ATOM     11  C   UNL     1      33.456 -11.982 -23.583  0.00  0.00    +0.041 C 
ATOM     12  C   UNL     1      31.986 -12.902 -21.901  0.00  0.00    +0.012 C 
ATOM     13  C   UNL     1      32.479 -11.803 -22.605  0.00  0.00    +0.074 C 
BRANCH  13  15
ATOM     14  N   UNL     1      31.511  -9.470 -22.017  0.00  0.00    -0.191 NA
ATOM     15  C   UNL     1      31.944 -10.513 -22.280  0.00  0.00    +0.101 C 
ENDBRANCH  13  15
ENDBRANCH   4   8
ENDBRANCH   1   5
BRANCH   1  16
ATOM     16  O   UNL     1      36.459 -17.977 -23.181  0.00  0.00    -0.375 OA
ATOM     17  H   UNL     1      36.678 -18.784 -22.690  0.00  0.00    +0.211 HD
ENDBRANCH   1  16
BRANCH   1  18
ATOM     18  C   UNL     1      34.426 -19.025 -22.504  0.00  0.00    +0.241 C 
BRANCH  18  19
ATOM     19  O   UNL     1      35.357 -19.585 -21.582  0.00  0.00    -0.472 OA
BRANCH  19  20
ATOM     20  C   UNL     1      34.845 -20.413 -20.619  0.00  0.00    +0.139 C 
ATOM     21  C   UNL     1      33.470 -20.446 -20.387  0.00  0.00    +0.038 C 
ATOM     22  C   UNL     1      35.698 -21.223 -19.871  0.00  0.00    +0.038 C 
ATOM     23  C   UNL     1      32.948 -21.289 -19.407  0.00  0.00    +0.013 C 
ATOM     24  C   UNL     1      35.177 -22.066 -18.890  0.00  0.00    +0.013 C 
ATOM     25  C   UNL     1      33.801 -22.099 -18.658  0.00  0.00    +0.069 C 
BRANCH  25  27
ATOM     26  N   UNL     1      32.833 -23.665 -16.836  0.00  0.00    -0.191 NA
ATOM     27  C   UNL     1      33.266 -22.963 -17.652  0.00  0.00    +0.100 C 
ENDBRANCH  25  27
ENDBRANCH  19  20
ENDBRANCH  18  19
ENDBRANCH   1  18
TORSDOF 8
ENDMDL
MODEL 4
REMARK VINA RESULT:      -9.3      4.573      6.733
REMARK  Name = 24892823
REMARK  8 active torsions:
REMARK  status: ('A' for Active; 'I' for Inactive)
REMARK    1  A    between atoms: C_1  and  C_5
REMARK    2  A    between atoms: C_1  and  O_16
REMARK    3  A    between atoms: C_1  and  C_18
REMARK    4  A    between atoms: N_4  and  C_8
REMARK    5  A    between atoms: C_13  and  C_15
REMARK    6  A    between atoms: C_18  and  O_19
REMARK    7  A    between atoms: O_19  and  C_20
REMARK    8  A    between atoms: C_25  and  C_27
REMARK                            x       y       z     vdW  Elec       q    Type
REMARK                         _______ _______ _______ _____ _____    ______ ____
ROOT
ATOM      1  C   UNL     1      35.547 -21.270 -19.797  0.00  0.00    +0.197 C 
ATOM      2  C   UNL     1      36.599 -21.986 -20.647  0.00  0.00    +0.043 C 
ENDROOT
BRANCH   1   5
ATOM      3  O   UNL     1      33.604 -19.950 -20.345  0.00  0.00    -0.272 OA
ATOM      4  N   UNL     1      35.498 -19.748 -21.707  0.00  0.00    -0.282 N 
ATOM      5  C   UNL     1      34.759 -20.249 -20.640  0.00  0.00    +0.254 C 
ATOM      6  H   UNL     1      36.414 -20.093 -21.801  0.00  0.00    +0.155 HD
BRANCH   4   8
ATOM      7  I   UNL     1      34.144 -14.568 -22.601  0.00  0.00    -0.042 I 
ATOM      8  C   UNL     1      35.085 -18.800 -22.674  0.00  0.00    +0.051 C 
ATOM      9  C   UNL     1      34.862 -17.475 -22.301  0.00  0.00    +0.021 C 
ATOM     10  C   UNL     1      34.901 -19.191 -24.000  0.00  0.00    +0.015 C 
ATOM     11  C   UNL     1      34.455 -16.541 -23.254  0.00  0.00    +0.041 C 
ATOM     12  C   UNL     1      34.494 -18.258 -24.952  0.00  0.00    +0.012 C 
ATOM     13  C   UNL     1      34.271 -16.932 -24.579  0.00  0.00    +0.074 C 
BRANCH  13  15
ATOM     14  N   UNL     1      33.516 -15.276 -26.426  0.00  0.00    -0.191 NA
ATOM     15  C   UNL     1      33.854 -16.017 -25.600  0.00  0.00    +0.101 C 
ENDBRANCH  13  15
ENDBRANCH   4   8
ENDBRANCH   1   5
BRANCH   1  16
ATOM     16  O   UNL     1      36.231 -20.547 -18.774  0.00  0.00    -0.375 OA
ATOM     17  H   UNL     1      35.826 -19.671 -18.671  0.00  0.00    +0.211 HD
ENDBRANCH   1  16
BRANCH   1  18
ATOM     18  C   UNL     1      34.632 -22.285 -19.100  0.00  0.00    +0.241 C 
BRANCH  18  19
ATOM     19  O   UNL     1      35.172 -22.678 -17.841  0.00  0.00    -0.472 OA
BRANCH  19  20
ATOM     20  C   UNL     1      34.272 -23.025 -16.868  0.00  0.00    +0.139 C 
ATOM     21  C   UNL     1      32.908 -23.055 -17.159  0.00  0.00    +0.038 C 
ATOM     22  C   UNL     1      34.720 -23.347 -15.588  0.00  0.00    +0.038 C 
ATOM     23  C   UNL     1      31.992 -23.408 -16.169  0.00  0.00    +0.013 C 
ATOM     24  C   UNL     1      33.804 -23.699 -14.597  0.00  0.00    +0.013 C 
ATOM     25  C   UNL     1      32.440 -23.730 -14.887  0.00  0.00    +0.069 C 
BRANCH  25  27
ATOM     26  N   UNL     1      30.737 -24.382 -13.048  0.00  0.00    -0.191 NA
ATOM     27  C   UNL     1      31.501 -24.091 -13.872  0.00  0.00    +0.100 C 
ENDBRANCH  25  27
ENDBRANCH  19  20
ENDBRANCH  18  19
ENDBRANCH   1  18
TORSDOF 8
ENDMDL
MODEL 5
REMARK VINA RESULT:      -8.9      3.888      9.801
REMARK  Name = 24892823
REMARK  8 active torsions:
REMARK  status: ('A' for Active; 'I' for Inactive)
REMARK    1  A    between atoms: C_1  and  C_5
REMARK    2  A    between atoms: C_1  and  O_16
REMARK    3  A    between atoms: C_1  and  C_18
REMARK    4  A    between atoms: N_4  and  C_8
REMARK    5  A    between atoms: C_13  and  C_15
REMARK    6  A    between atoms: C_18  and  O_19
REMARK    7  A    between atoms: O_19  and  C_20
REMARK    8  A    between atoms: C_25  and  C_27
REMARK                            x       y       z     vdW  Elec       q    Type
REMARK                         _______ _______ _______ _____ _____    ______ ____
ROOT
ATOM      1  C   UNL     1      35.259 -18.733 -22.630  0.00  0.00    +0.197 C 
ATOM      2  C   UNL     1      36.766 -18.551 -22.429  0.00  0.00    +0.043 C 
ENDROOT
BRANCH   1   5
ATOM      3  O   UNL     1      33.534 -18.931 -20.956  0.00  0.00    -0.272 OA
ATOM      4  N   UNL     1      35.361 -20.391 -20.839  0.00  0.00    -0.282 N 
ATOM      5  C   UNL     1      34.608 -19.354 -21.379  0.00  0.00    +0.254 C 
ATOM      6  H   UNL     1      36.201 -20.605 -21.303  0.00  0.00    +0.155 HD
BRANCH   4   8
ATOM      7  I   UNL     1      37.253 -22.405 -16.166  0.00  0.00    -0.042 I 
ATOM      8  C   UNL     1      35.059 -21.174 -19.699  0.00  0.00    +0.051 C 
ATOM      9  C   UNL     1      36.028 -21.379 -18.716  0.00  0.00    +0.021 C 
ATOM     10  C   UNL     1      33.793 -21.742 -19.557  0.00  0.00    +0.015 C 
ATOM     11  C   UNL     1      35.731 -22.151 -17.593  0.00  0.00    +0.041 C 
ATOM     12  C   UNL     1      33.496 -22.514 -18.435  0.00  0.00    +0.012 C 
ATOM     13  C   UNL     1      34.465 -22.718 -17.452  0.00  0.00    +0.074 C 
BRANCH  13  15
ATOM     14  N   UNL     1      33.813 -24.169 -15.404  0.00  0.00    -0.191 NA
ATOM     15  C   UNL     1      34.104 -23.520 -16.320  0.00  0.00    +0.101 C 
ENDBRANCH  13  15
ENDBRANCH   4   8
ENDBRANCH   1   5
BRANCH   1  16
ATOM     16  O   UNL     1      35.070 -19.646 -23.710  0.00  0.00    -0.375 OA
ATOM     17  H   UNL     1      35.645 -20.417 -23.586  0.00  0.00    +0.211 HD
ENDBRANCH   1  16
BRANCH   1  18
ATOM     18  C   UNL     1      34.604 -17.407 -23.035  0.00  0.00    +0.241 C 
BRANCH  18  19
ATOM     19  O   UNL     1      35.048 -16.341 -22.199  0.00  0.00    -0.472 OA
BRANCH  19  20
ATOM     20  C   UNL     1      34.178 -15.300 -22.017  0.00  0.00    +0.139 C 
ATOM     21  C   UNL     1      33.589 -15.094 -20.769  0.00  0.00    +0.038 C 
ATOM     22  C   UNL     1      33.881 -14.446 -23.077  0.00  0.00    +0.038 C 
ATOM     23  C   UNL     1      32.703 -14.034 -20.583  0.00  0.00    +0.013 C 
ATOM     24  C   UNL     1      32.994 -13.385 -22.892  0.00  0.00    +0.013 C 
ATOM     25  C   UNL     1      32.405 -13.179 -21.645  0.00  0.00    +0.069 C 
BRANCH  25  27
ATOM     26  N   UNL     1      30.758 -11.211 -21.300  0.00  0.00    -0.191 NA
ATOM     27  C   UNL     1      31.496 -12.093 -21.454  0.00  0.00    +0.100 C 
ENDBRANCH  25  27
ENDBRANCH  19  20
ENDBRANCH  18  19
ENDBRANCH   1  18
TORSDOF 8
ENDMDL
MODEL 6
REMARK VINA RESULT:      -8.9      6.138     11.681
REMARK  Name = 24892823
REMARK  8 active torsions:
REMARK  status: ('A' for Active; 'I' for Inactive)
REMARK    1  A    between atoms: C_1  and  C_5
REMARK    2  A    between atoms: C_1  and  O_16
REMARK    3  A    between atoms: C_1  and  C_18
REMARK    4  A    between atoms: N_4  and  C_8
REMARK    5  A    between atoms: C_13  and  C_15
REMARK    6  A    between atoms: C_18  and  O_19
REMARK    7  A    between atoms: O_19  and  C_20
REMARK    8  A    between atoms: C_25  and  C_27
REMARK                            x       y       z     vdW  Elec       q    Type
REMARK                         _______ _______ _______ _____ _____    ______ ____
ROOT
ATOM      1  C   UNL     1      34.810 -21.934 -19.329  0.00  0.00    +0.197 C 
ATOM      2  C   UNL     1      34.415 -23.254 -19.996  0.00  0.00    +0.043 C 
ENDROOT
BRANCH   1   5
ATOM      3  O   UNL     1      36.426 -21.666 -17.559  0.00  0.00    -0.272 OA
ATOM      4  N   UNL     1      34.548 -23.002 -17.148  0.00  0.00    -0.282 N 
ATOM      5  C   UNL     1      35.366 -22.178 -17.913  0.00  0.00    +0.254 C 
ATOM      6  H   UNL     1      33.729 -23.328 -17.585  0.00  0.00    +0.155 HD
BRANCH   4   8
ATOM      7  I   UNL     1      38.130 -25.010 -13.598  0.00  0.00    -0.042 I 
ATOM      8  C   UNL     1      34.755 -23.427 -15.814  0.00  0.00    +0.051 C 
ATOM      9  C   UNL     1      36.007 -23.898 -15.418  0.00  0.00    +0.021 C 
ATOM     10  C   UNL     1      33.708 -23.376 -14.894  0.00  0.00    +0.015 C 
ATOM     11  C   UNL     1      36.212 -24.317 -14.103  0.00  0.00    +0.041 C 
ATOM     12  C   UNL     1      33.912 -23.795 -13.580  0.00  0.00    +0.012 C 
ATOM     13  C   UNL     1      35.164 -24.265 -13.184  0.00  0.00    +0.074 C 
BRANCH  13  15
ATOM     14  N   UNL     1      35.438 -25.020 -10.718  0.00  0.00    -0.191 NA
ATOM     15  C   UNL     1      35.316 -24.682 -11.821  0.00  0.00    +0.101 C 
ENDBRANCH  13  15
ENDBRANCH   4   8
ENDBRANCH   1   5
BRANCH   1  16
ATOM     16  O   UNL     1      33.630 -21.143 -19.197  0.00  0.00    -0.375 OA
ATOM     17  H   UNL     1      33.616 -20.727 -18.321  0.00  0.00    +0.211 HD
ENDBRANCH   1  16
BRANCH   1  18
ATOM     18  C   UNL     1      35.786 -21.151 -20.216  0.00  0.00    +0.241 C 
BRANCH  18  19
ATOM     19  O   UNL     1      35.560 -19.748 -20.106  0.00  0.00    -0.472 OA
BRANCH  19  20
ATOM     20  C   UNL     1      35.327 -19.070 -21.272  0.00  0.00    +0.139 C 
ATOM     21  C   UNL     1      35.390 -17.676 -21.294  0.00  0.00    +0.038 C 
ATOM     22  C   UNL     1      35.028 -19.772 -22.439  0.00  0.00    +0.038 C 
ATOM     23  C   UNL     1      35.153 -16.986 -22.481  0.00  0.00    +0.013 C 
ATOM     24  C   UNL     1      34.790 -19.082 -23.627  0.00  0.00    +0.013 C 
ATOM     25  C   UNL     1      34.853 -17.688 -23.648  0.00  0.00    +0.069 C 
BRANCH  25  27
ATOM     26  N   UNL     1      34.412 -16.405 -25.854  0.00  0.00    -0.191 NA
ATOM     27  C   UNL     1      34.609 -16.980 -24.865  0.00  0.00    +0.100 C 
ENDBRANCH  25  27
ENDBRANCH  19  20
ENDBRANCH  18  19
ENDBRANCH   1  18
TORSDOF 8
ENDMDL
MODEL 7
REMARK VINA RESULT:      -8.8      4.654      7.564
REMARK  Name = 24892823
REMARK  8 active torsions:
REMARK  status: ('A' for Active; 'I' for Inactive)
REMARK    1  A    between atoms: C_1  and  C_5
REMARK    2  A    between atoms: C_1  and  O_16
REMARK    3  A    between atoms: C_1  and  C_18
REMARK    4  A    between atoms: N_4  and  C_8
REMARK    5  A    between atoms: C_13  and  C_15
REMARK    6  A    between atoms: C_18  and  O_19
REMARK    7  A    between atoms: O_19  and  C_20
REMARK    8  A    between atoms: C_25  and  C_27
REMARK                            x       y       z     vdW  Elec       q    Type
REMARK                         _______ _______ _______ _____ _____    ______ ____
ROOT
ATOM      1  C   UNL     1      34.113 -22.275 -18.958  0.00  0.00    +0.197 C 
ATOM      2  C   UNL     1      33.036 -22.641 -17.933  0.00  0.00    +0.043 C 
ENDROOT
BRANCH   1   5
ATOM      3  O   UNL     1      32.509 -20.677 -19.788  0.00  0.00    -0.272 OA
ATOM      4  N   UNL     1      34.714 -20.534 -20.562  0.00  0.00    -0.282 N 
ATOM      5  C   UNL     1      33.673 -21.071 -19.813  0.00  0.00    +0.254 C 
ATOM      6  H   UNL     1      35.590 -20.971 -20.464  0.00  0.00    +0.155 HD
BRANCH   4   8
ATOM      7  I   UNL     1      34.122 -15.154 -20.982  0.00  0.00    -0.042 I 
ATOM      8  C   UNL     1      34.661 -19.432 -21.448  0.00  0.00    +0.051 C 
ATOM      9  C   UNL     1      34.468 -18.143 -20.950  0.00  0.00    +0.021 C 
ATOM     10  C   UNL     1      34.801 -19.633 -22.821  0.00  0.00    +0.015 C 
ATOM     11  C   UNL     1      34.416 -17.057 -21.824  0.00  0.00    +0.041 C 
ATOM     12  C   UNL     1      34.748 -18.548 -23.695  0.00  0.00    +0.012 C 
ATOM     13  C   UNL     1      34.556 -17.260 -23.196  0.00  0.00    +0.074 C 
BRANCH  13  15
ATOM     14  N   UNL     1      34.472 -15.310 -24.905  0.00  0.00    -0.191 NA
ATOM     15  C   UNL     1      34.510 -16.182 -24.140  0.00  0.00    +0.101 C 
ENDBRANCH  13  15
ENDBRANCH   4   8
ENDBRANCH   1   5
BRANCH   1  16
ATOM     16  O   UNL     1      34.276 -23.389 -19.836  0.00  0.00    -0.375 OA
ATOM     17  H   UNL     1      33.932 -23.162 -20.713  0.00  0.00    +0.211 HD
ENDBRANCH   1  16
BRANCH   1  18
ATOM     18  C   UNL     1      35.461 -22.042 -18.265  0.00  0.00    +0.241 C 
BRANCH  18  19
ATOM     19  O   UNL     1      35.325 -22.105 -16.848  0.00  0.00    -0.472 OA
BRANCH  19  20
ATOM     20  C   UNL     1      36.194 -22.928 -16.183  0.00  0.00    +0.139 C 
ATOM     21  C   UNL     1      35.710 -24.029 -15.477  0.00  0.00    +0.038 C 
ATOM     22  C   UNL     1      37.562 -22.665 -16.211  0.00  0.00    +0.038 C 
ATOM     23  C   UNL     1      36.594 -24.867 -14.800  0.00  0.00    +0.013 C 
ATOM     24  C   UNL     1      38.448 -23.502 -15.533  0.00  0.00    +0.013 C 
ATOM     25  C   UNL     1      37.964 -24.604 -14.828  0.00  0.00    +0.069 C 
BRANCH  25  27
ATOM     26  N   UNL     1      39.606 -26.160 -13.567  0.00  0.00    -0.191 NA
ATOM     27  C   UNL     1      38.870 -25.463 -14.133  0.00  0.00    +0.100 C 
ENDBRANCH  25  27
ENDBRANCH  19  20
ENDBRANCH  18  19
ENDBRANCH   1  18
TORSDOF 8
ENDMDL
MODEL 8
REMARK VINA RESULT:      -8.7      3.423      5.867
REMARK  Name = 24892823
REMARK  8 active torsions:
REMARK  status: ('A' for Active; 'I' for Inactive)
REMARK    1  A    between atoms: C_1  and  C_5
REMARK    2  A    between atoms: C_1  and  O_16
REMARK    3  A    between atoms: C_1  and  C_18
REMARK    4  A    between atoms: N_4  and  C_8
REMARK    5  A    between atoms: C_13  and  C_15
REMARK    6  A    between atoms: C_18  and  O_19
REMARK    7  A    between atoms: O_19  and  C_20
REMARK    8  A    between atoms: C_25  and  C_27
REMARK                            x       y       z     vdW  Elec       q    Type
REMARK                         _______ _______ _______ _____ _____    ______ ____
ROOT
ATOM      1  C   UNL     1      31.578 -10.723 -21.770  0.00  0.00    +0.197 C 
ATOM      2  C   UNL     1      31.460 -11.241 -20.334  0.00  0.00    +0.043 C 
ENDROOT
BRANCH   1   5
ATOM      3  O   UNL     1      32.604  -8.715 -20.912  0.00  0.00    -0.272 OA
ATOM      4  N   UNL     1      31.317  -8.553 -22.861  0.00  0.00    -0.282 N 
ATOM      5  C   UNL     1      31.899  -9.216 -21.786  0.00  0.00    +0.254 C 
ATOM      6  H   UNL     1      30.780  -9.105 -23.473  0.00  0.00    +0.155 HD
BRANCH   4   8
ATOM      7  I   UNL     1      33.211  -4.885 -26.386  0.00  0.00    -0.042 I 
ATOM      8  C   UNL     1      31.405  -7.176 -23.178  0.00  0.00    +0.051 C 
ATOM      9  C   UNL     1      32.083  -6.766 -24.326  0.00  0.00    +0.021 C 
ATOM     10  C   UNL     1      30.815  -6.228 -22.342  0.00  0.00    +0.015 C 
ATOM     11  C   UNL     1      32.171  -5.409 -24.637  0.00  0.00    +0.041 C 
ATOM     12  C   UNL     1      30.902  -4.872 -22.653  0.00  0.00    +0.012 C 
ATOM     13  C   UNL     1      31.580  -4.462 -23.801  0.00  0.00    +0.074 C 
BRANCH  13  15
ATOM     14  N   UNL     1      31.685  -1.917 -24.289  0.00  0.00    -0.191 NA
ATOM     15  C   UNL     1      31.638  -3.056 -24.071  0.00  0.00    +0.101 C 
ENDBRANCH  13  15
ENDBRANCH   4   8
ENDBRANCH   1   5
BRANCH   1  16
ATOM     16  O   UNL     1      30.311 -10.899 -22.403  0.00  0.00    -0.375 OA
ATOM     17  H   UNL     1      30.421 -11.439 -23.201  0.00  0.00    +0.211 HD
ENDBRANCH   1  16
BRANCH   1  18
ATOM     18  C   UNL     1      32.600 -11.549 -22.560  0.00  0.00    +0.241 C 
BRANCH  18  19
ATOM     19  O   UNL     1      32.082 -12.840 -22.870  0.00  0.00    -0.472 OA
BRANCH  19  20
ATOM     20  C   UNL     1      32.817 -13.915 -22.446  0.00  0.00    +0.139 C 
ATOM     21  C   UNL     1      33.893 -14.368 -23.210  0.00  0.00    +0.038 C 
ATOM     22  C   UNL     1      32.491 -14.555 -21.252  0.00  0.00    +0.038 C 
ATOM     23  C   UNL     1      34.642 -15.462 -22.779  0.00  0.00    +0.013 C 
ATOM     24  C   UNL     1      33.240 -15.650 -20.820  0.00  0.00    +0.013 C 
ATOM     25  C   UNL     1      34.316 -16.104 -21.584  0.00  0.00    +0.069 C 
BRANCH  25  27
ATOM     26  N   UNL     1      35.708 -18.136 -20.785  0.00  0.00    -0.191 NA
ATOM     27  C   UNL     1      35.083 -17.225 -21.143  0.00  0.00    +0.100 C 
ENDBRANCH  25  27
ENDBRANCH  19  20
ENDBRANCH  18  19
ENDBRANCH   1  18
TORSDOF 8
ENDMDL
MODEL 9
REMARK VINA RESULT:      -8.7      4.441      6.563
REMARK  Name = 24892823
REMARK  8 active torsions:
REMARK  status: ('A' for Active; 'I' for Inactive)
REMARK    1  A    between atoms: C_1  and  C_5
REMARK    2  A    between atoms: C_1  and  O_16
REMARK    3  A    between atoms: C_1  and  C_18
REMARK    4  A    between atoms: N_4  and  C_8
REMARK    5  A    between atoms: C_13  and  C_15
REMARK    6  A    between atoms: C_18  and  O_19
REMARK    7  A    between atoms: O_19  and  C_20
REMARK    8  A    between atoms: C_25  and  C_27
REMARK                            x       y       z     vdW  Elec       q    Type
REMARK                         _______ _______ _______ _____ _____    ______ ____
ROOT
ATOM      1  C   UNL     1      35.467 -20.908 -19.937  0.00  0.00    +0.197 C 
ATOM      2  C   UNL     1      36.135 -22.095 -20.635  0.00  0.00    +0.043 C 
ENDROOT
BRANCH   1   5
ATOM      3  O   UNL     1      33.420 -20.163 -20.971  0.00  0.00    -0.272 OA
ATOM      4  N   UNL     1      35.438 -19.256 -21.737  0.00  0.00    -0.282 N 
ATOM      5  C   UNL     1      34.645 -20.072 -20.937  0.00  0.00    +0.254 C 
ATOM      6  H   UNL     1      36.408 -19.303 -21.579  0.00  0.00    +0.155 HD
BRANCH   4   8
ATOM      7  I   UNL     1      33.880 -14.182 -22.873  0.00  0.00    -0.042 I 
ATOM      8  C   UNL     1      35.013 -18.366 -22.752  0.00  0.00    +0.051 C 
ATOM      9  C   UNL     1      34.720 -17.038 -22.438  0.00  0.00    +0.021 C 
ATOM     10  C   UNL     1      34.888 -18.815 -24.066  0.00  0.00    +0.015 C 
ATOM     11  C   UNL     1      34.300 -16.161 -23.439  0.00  0.00    +0.041 C 
ATOM     12  C   UNL     1      34.469 -17.939 -25.066  0.00  0.00    +0.012 C 
ATOM     13  C   UNL     1      34.175 -16.611 -24.753  0.00  0.00    +0.074 C 
BRANCH  13  15
ATOM     14  N   UNL     1      33.404 -15.063 -26.685  0.00  0.00    -0.191 NA
ATOM     15  C   UNL     1      33.749 -15.755 -25.820  0.00  0.00    +0.101 C 
ENDBRANCH  13  15
ENDBRANCH   4   8
ENDBRANCH   1   5
BRANCH   1  16
ATOM     16  O   UNL     1      36.501 -20.068 -19.423  0.00  0.00    -0.375 OA
ATOM     17  H   UNL     1      36.659 -19.336 -20.039  0.00  0.00    +0.211 HD
ENDBRANCH   1  16
BRANCH   1  18
ATOM     18  C   UNL     1      34.631 -21.383 -18.742  0.00  0.00    +0.241 C 
BRANCH  18  19
ATOM     19  O   UNL     1      34.979 -22.715 -18.375  0.00  0.00    -0.472 OA
BRANCH  19  20
ATOM     20  C   UNL     1      34.964 -23.007 -17.037  0.00  0.00    +0.139 C 
ATOM     21  C   UNL     1      33.817 -23.547 -16.454  0.00  0.00    +0.038 C 
ATOM     22  C   UNL     1      36.094 -22.765 -16.258  0.00  0.00    +0.038 C 
ATOM     23  C   UNL     1      33.801 -23.844 -15.092  0.00  0.00    +0.013 C 
ATOM     24  C   UNL     1      36.079 -23.062 -14.895  0.00  0.00    +0.013 C 
ATOM     25  C   UNL     1      34.932 -23.601 -14.312  0.00  0.00    +0.069 C 
BRANCH  25  27
ATOM     26  N   UNL     1      34.899 -24.152 -11.781  0.00  0.00    -0.191 NA
ATOM     27  C   UNL     1      34.915 -23.905 -12.916  0.00  0.00    +0.100 C 
ENDBRANCH  25  27
ENDBRANCH  19  20
ENDBRANCH  18  19
ENDBRANCH   1  18
TORSDOF 8
ENDMDL
