MODEL 1
REMARK VINA RESULT:      -8.3      0.000      0.000
REMARK  Name = 50942
REMARK  2 active torsions:
REMARK  status: ('A' for Active; 'I' for Inactive)
REMARK    1  A    between atoms: N_3  and  C_14
REMARK    2  A    between atoms: C_14  and  C_17
REMARK                            x       y       z     vdW  Elec       q    Type
REMARK                         _______ _______ _______ _____ _____    ______ ____
ROOT
ATOM      1  O   UNL     1      33.050 -24.313 -13.192  0.00  0.00    -0.272 OA
ATOM      2  O   UNL     1      37.591 -23.159 -13.452  0.00  0.00    -0.252 OA
ATOM      3  N   UNL     1      32.931 -23.610 -16.098  0.00  0.00    -0.235 NA
ATOM      4  N   UNL     1      36.303 -22.983 -15.381  0.00  0.00    -0.228 N 
ATOM      5  N   UNL     1      35.327 -23.741 -13.298  0.00  0.00    -0.211 N 
ATOM      6  N   UNL     1      34.702 -22.897 -17.248  0.00  0.00    -0.240 NA
ATOM      7  C   UNL     1      33.974 -23.583 -15.216  0.00  0.00    +0.192 C 
ATOM      8  C   UNL     1      35.045 -23.143 -15.947  0.00  0.00    +0.136 C 
ATOM      9  C   UNL     1      34.023 -23.919 -13.830  0.00  0.00    +0.254 C 
ATOM     10  C   UNL     1      33.419 -23.189 -17.307  0.00  0.00    +0.203 C 
ATOM     11  C   UNL     1      36.494 -23.283 -14.009  0.00  0.00    +0.318 C 
ATOM     12  C   UNL     1      37.413 -22.511 -16.200  0.00  0.00    +0.123 C 
ATOM     13  C   UNL     1      35.504 -24.053 -11.883  0.00  0.00    +0.124 C 
ENDROOT
BRANCH   3  14
ATOM     14  C   UNL     1      31.568 -24.003 -15.833  0.00  0.00    +0.136 C 
BRANCH  14  17
ATOM     15  O   UNL     1      29.678 -22.967 -14.738  0.00  0.00    -0.327 OA
ATOM     16  O   UNL     1      29.934 -22.729 -17.059  0.00  0.00    -0.327 OA
ATOM     17  C   UNL     1      30.623 -22.816 -15.806  0.00  0.00    +0.252 C 
ATOM     18  C   UNL     1      28.425 -23.180 -15.389  0.00  0.00    +0.177 C 
ATOM     19  C   UNL     1      28.582 -22.453 -16.696  0.00  0.00    +0.177 C 
ENDBRANCH  14  17
ENDBRANCH   3  14
TORSDOF 2
ENDMDL
MODEL 2
REMARK VINA RESULT:      -8.3      2.066      6.618
REMARK  Name = 50942
REMARK  2 active torsions:
REMARK  status: ('A' for Active; 'I' for Inactive)
REMARK    1  A    between atoms: N_3  and  C_14
REMARK    2  A    between atoms: C_14  and  C_17
REMARK                            x       y       z     vdW  Elec       q    Type
REMARK                         _______ _______ _______ _____ _____    ______ ____
ROOT
ATOM      1  O   UNL     1      35.747 -22.866 -16.743  0.00  0.00    -0.272 OA
ATOM      2  O   UNL     1      31.112 -23.535 -16.448  0.00  0.00    -0.252 OA
ATOM      3  N   UNL     1      35.828 -23.691 -13.868  0.00  0.00    -0.235 NA
ATOM      4  N   UNL     1      32.399 -23.925 -14.550  0.00  0.00    -0.228 N 
ATOM      5  N   UNL     1      33.424 -23.195 -16.620  0.00  0.00    -0.211 N 
ATOM      6  N   UNL     1      34.005 -24.256 -12.715  0.00  0.00    -0.240 NA
ATOM      7  C   UNL     1      34.777 -23.573 -14.732  0.00  0.00    +0.192 C 
ATOM      8  C   UNL     1      33.675 -23.924 -14.001  0.00  0.00    +0.136 C 
ATOM      9  C   UNL     1      34.746 -23.178 -16.103  0.00  0.00    +0.254 C 
ATOM     10  C   UNL     1      35.313 -24.105 -12.667  0.00  0.00    +0.203 C 
ATOM     11  C   UNL     1      32.223 -23.553 -15.906  0.00  0.00    +0.318 C 
ATOM     12  C   UNL     1      31.256 -24.306 -13.731  0.00  0.00    +0.123 C 
ATOM     13  C   UNL     1      33.263 -22.808 -18.018  0.00  0.00    +0.124 C 
ENDROOT
BRANCH   3  14
ATOM     14  C   UNL     1      37.222 -23.436 -14.141  0.00  0.00    +0.136 C 
BRANCH  14  17
ATOM     15  O   UNL     1      38.091 -25.662 -13.780  0.00  0.00    -0.327 OA
ATOM     16  O   UNL     1      39.187 -24.230 -15.283  0.00  0.00    -0.327 OA
ATOM     17  C   UNL     1      37.914 -24.634 -14.764  0.00  0.00    +0.252 C 
ATOM     18  C   UNL     1      39.501 -25.720 -13.566  0.00  0.00    +0.177 C 
ATOM     19  C   UNL     1      40.074 -25.272 -14.883  0.00  0.00    +0.177 C 
ENDBRANCH  14  17
ENDBRANCH   3  14
TORSDOF 2
ENDMDL
MODEL 3
REMARK VINA RESULT:      -8.3      8.738     10.709
REMARK  Name = 50942
REMARK  2 active torsions:
REMARK  status: ('A' for Active; 'I' for Inactive)
REMARK    1  A    between atoms: N_3  and  C_14
REMARK    2  A    between atoms: C_14  and  C_17
REMARK                            x       y       z     vdW  Elec       q    Type
REMARK                         _______ _______ _______ _____ _____    ______ ____
ROOT
ATOM      1  O   UNL     1      34.291 -15.908 -20.375  0.00  0.00    -0.272 OA
ATOM      2  O   UNL     1      32.335 -13.219 -23.687  0.00  0.00    -0.252 OA
ATOM      3  N   UNL     1      35.215 -17.637 -22.635  0.00  0.00    -0.235 NA
ATOM      4  N   UNL     1      33.491 -15.122 -24.360  0.00  0.00    -0.228 N 
ATOM      5  N   UNL     1      33.303 -14.545 -22.016  0.00  0.00    -0.211 N 
ATOM      6  N   UNL     1      34.768 -17.185 -24.772  0.00  0.00    -0.240 NA
ATOM      7  C   UNL     1      34.484 -16.483 -22.637  0.00  0.00    +0.192 C 
ATOM      8  C   UNL     1      34.225 -16.230 -23.957  0.00  0.00    +0.136 C 
ATOM      9  C   UNL     1      34.047 -15.663 -21.554  0.00  0.00    +0.254 C 
ATOM     10  C   UNL     1      35.359 -18.020 -23.943  0.00  0.00    +0.203 C 
ATOM     11  C   UNL     1      32.994 -14.221 -23.386  0.00  0.00    +0.318 C 
ATOM     12  C   UNL     1      33.240 -14.895 -25.778  0.00  0.00    +0.123 C 
ATOM     13  C   UNL     1      32.799 -13.630 -20.997  0.00  0.00    +0.124 C 
ENDROOT
BRANCH   3  14
ATOM     14  C   UNL     1      35.745 -18.338 -21.490  0.00  0.00    +0.136 C 
BRANCH  14  17
ATOM     15  O   UNL     1      33.828 -19.799 -21.666  0.00  0.00    -0.327 OA
ATOM     16  O   UNL     1      35.504 -20.287 -20.098  0.00  0.00    -0.327 OA
ATOM     17  C   UNL     1      35.237 -19.765 -21.405  0.00  0.00    +0.252 C 
ATOM     18  C   UNL     1      33.235 -20.153 -20.417  0.00  0.00    +0.177 C 
ATOM     19  C   UNL     1      34.303 -20.969 -19.741  0.00  0.00    +0.177 C 
ENDBRANCH  14  17
ENDBRANCH   3  14
TORSDOF 2
ENDMDL
MODEL 4
REMARK VINA RESULT:      -8.2      1.389      2.685
REMARK  Name = 50942
REMARK  2 active torsions:
REMARK  status: ('A' for Active; 'I' for Inactive)
REMARK    1  A    between atoms: N_3  and  C_14
REMARK    2  A    between atoms: C_14  and  C_17
REMARK                            x       y       z     vdW  Elec       q    Type
REMARK                         _______ _______ _______ _____ _____    ______ ____
ROOT
ATOM      1  O   UNL     1      34.467 -22.819 -17.182  0.00  0.00    -0.272 OA
ATOM      2  O   UNL     1      37.720 -23.229 -13.825  0.00  0.00    -0.252 OA
ATOM      3  N   UNL     1      32.531 -23.795 -15.120  0.00  0.00    -0.235 NA
ATOM      4  N   UNL     1      35.524 -23.790 -13.299  0.00  0.00    -0.228 N 
ATOM      5  N   UNL     1      36.113 -23.016 -15.517  0.00  0.00    -0.211 N 
ATOM      6  N   UNL     1      33.133 -24.309 -13.036  0.00  0.00    -0.240 NA
ATOM      7  C   UNL     1      33.876 -23.570 -15.044  0.00  0.00    +0.192 C 
ATOM      8  C   UNL     1      34.218 -23.892 -13.758  0.00  0.00    +0.136 C 
ATOM      9  C   UNL     1      34.794 -23.104 -16.033  0.00  0.00    +0.254 C 
ATOM     10  C   UNL     1      32.130 -24.239 -13.887  0.00  0.00    +0.203 C 
ATOM     11  C   UNL     1      36.540 -23.339 -14.178  0.00  0.00    +0.318 C 
ATOM     12  C   UNL     1      35.840 -24.147 -11.921  0.00  0.00    +0.123 C 
ATOM     13  C   UNL     1      37.145 -22.551 -16.438  0.00  0.00    +0.124 C 
ENDROOT
BRANCH   3  14
ATOM     14  C   UNL     1      31.673 -23.609 -16.266  0.00  0.00    +0.136 C 
BRANCH  14  17
ATOM     15  O   UNL     1      29.448 -24.206 -15.535  0.00  0.00    -0.327 OA
ATOM     16  O   UNL     1      29.733 -22.372 -16.973  0.00  0.00    -0.327 OA
ATOM     17  C   UNL     1      30.297 -23.102 -15.877  0.00  0.00    +0.252 C 
ATOM     18  C   UNL     1      28.473 -24.250 -16.577  0.00  0.00    +0.177 C 
ATOM     19  C   UNL     1      28.379 -22.819 -17.030  0.00  0.00    +0.177 C 
ENDBRANCH  14  17
ENDBRANCH   3  14
TORSDOF 2
ENDMDL
MODEL 5
REMARK VINA RESULT:      -8.1      1.860      5.844
REMARK  Name = 50942
REMARK  2 active torsions:
REMARK  status: ('A' for Active; 'I' for Inactive)
REMARK    1  A    between atoms: N_3  and  C_14
REMARK    2  A    between atoms: C_14  and  C_17
REMARK                            x       y       z     vdW  Elec       q    Type
REMARK                         _______ _______ _______ _____ _____    ______ ____
ROOT
ATOM      1  O   UNL     1      34.121 -24.143 -12.598  0.00  0.00    -0.272 OA
ATOM      2  O   UNL     1      31.313 -23.759 -16.338  0.00  0.00    -0.252 OA
ATOM      3  N   UNL     1      36.311 -23.238 -14.423  0.00  0.00    -0.235 NA
ATOM      4  N   UNL     1      33.565 -23.238 -16.599  0.00  0.00    -0.228 N 
ATOM      5  N   UNL     1      32.696 -23.958 -14.457  0.00  0.00    -0.211 N 
ATOM      6  N   UNL     1      35.979 -22.757 -16.575  0.00  0.00    -0.240 NA
ATOM      7  C   UNL     1      34.983 -23.445 -14.660  0.00  0.00    +0.192 C 
ATOM      8  C   UNL     1      34.807 -23.143 -15.984  0.00  0.00    +0.136 C 
ATOM      9  C   UNL     1      33.943 -23.878 -13.783  0.00  0.00    +0.254 C 
ATOM     10  C   UNL     1      36.868 -22.824 -15.606  0.00  0.00    +0.203 C 
ATOM     11  C   UNL     1      32.442 -23.657 -15.844  0.00  0.00    +0.318 C 
ATOM     12  C   UNL     1      33.428 -22.907 -18.012  0.00  0.00    +0.123 C 
ATOM     13  C   UNL     1      31.551 -24.392 -13.662  0.00  0.00    +0.124 C 
ENDROOT
BRANCH   3  14
ATOM     14  C   UNL     1      37.019 -23.412 -13.177  0.00  0.00    +0.136 C 
BRANCH  14  17
ATOM     15  O   UNL     1      39.067 -24.669 -13.429  0.00  0.00    -0.327 OA
ATOM     16  O   UNL     1      37.021 -25.688 -13.961  0.00  0.00    -0.327 OA
ATOM     17  C   UNL     1      37.681 -24.774 -13.078  0.00  0.00    +0.252 C 
ATOM     18  C   UNL     1      39.183 -25.374 -14.665  0.00  0.00    +0.177 C 
ATOM     19  C   UNL     1      38.086 -26.401 -14.587  0.00  0.00    +0.177 C 
ENDBRANCH  14  17
ENDBRANCH   3  14
TORSDOF 2
ENDMDL
MODEL 6
REMARK VINA RESULT:      -7.9      3.566      5.536
REMARK  Name = 50942
REMARK  2 active torsions:
REMARK  status: ('A' for Active; 'I' for Inactive)
REMARK    1  A    between atoms: N_3  and  C_14
REMARK    2  A    between atoms: C_14  and  C_17
REMARK                            x       y       z     vdW  Elec       q    Type
REMARK                         _______ _______ _______ _____ _____    ______ ____
ROOT
ATOM      1  O   UNL     1      32.757 -22.642 -18.693  0.00  0.00    -0.272 OA
ATOM      2  O   UNL     1      33.095 -23.860 -14.174  0.00  0.00    -0.252 OA
ATOM      3  N   UNL     1      35.686 -22.053 -18.527  0.00  0.00    -0.235 NA
ATOM      4  N   UNL     1      35.019 -23.133 -15.261  0.00  0.00    -0.228 N 
ATOM      5  N   UNL     1      32.902 -23.257 -16.430  0.00  0.00    -0.211 N 
ATOM      6  N   UNL     1      36.876 -22.329 -16.662  0.00  0.00    -0.240 NA
ATOM      7  C   UNL     1      34.814 -22.513 -17.582  0.00  0.00    +0.192 C 
ATOM      8  C   UNL     1      35.569 -22.674 -16.451  0.00  0.00    +0.136 C 
ATOM      9  C   UNL     1      33.417 -22.791 -17.669  0.00  0.00    +0.254 C 
ATOM     10  C   UNL     1      36.914 -21.959 -17.925  0.00  0.00    +0.203 C 
ATOM     11  C   UNL     1      33.638 -23.448 -15.205  0.00  0.00    +0.318 C 
ATOM     12  C   UNL     1      35.863 -23.286 -14.082  0.00  0.00    +0.123 C 
ATOM     13  C   UNL     1      31.478 -23.576 -16.393  0.00  0.00    +0.124 C 
ENDROOT
BRANCH   3  14
ATOM     14  C   UNL     1      35.396 -21.723 -19.901  0.00  0.00    +0.136 C 
BRANCH  14  17
ATOM     15  O   UNL     1      34.059 -20.151 -21.161  0.00  0.00    -0.327 OA
ATOM     16  O   UNL     1      36.141 -19.471 -20.316  0.00  0.00    -0.327 OA
ATOM     17  C   UNL     1      34.980 -20.273 -20.068  0.00  0.00    +0.252 C 
ATOM     18  C   UNL     1      34.777 -19.430 -22.162  0.00  0.00    +0.177 C 
ATOM     19  C   UNL     1      35.742 -18.593 -21.367  0.00  0.00    +0.177 C 
ENDBRANCH  14  17
ENDBRANCH   3  14
TORSDOF 2
ENDMDL
MODEL 7
REMARK VINA RESULT:      -7.8      4.383      6.115
REMARK  Name = 50942
REMARK  2 active torsions:
REMARK  status: ('A' for Active; 'I' for Inactive)
REMARK    1  A    between atoms: N_3  and  C_14
REMARK    2  A    between atoms: C_14  and  C_17
REMARK                            x       y       z     vdW  Elec       q    Type
REMARK                         _______ _______ _______ _____ _____    ______ ____
ROOT
ATOM      1  O   UNL     1      37.157 -21.539 -18.105  0.00  0.00    -0.272 OA
ATOM      2  O   UNL     1      34.760 -24.016 -14.920  0.00  0.00    -0.252 OA
ATOM      3  N   UNL     1      34.552 -21.300 -19.557  0.00  0.00    -0.235 NA
ATOM      4  N   UNL     1      33.606 -23.193 -16.765  0.00  0.00    -0.228 N 
ATOM      5  N   UNL     1      35.978 -22.782 -16.497  0.00  0.00    -0.211 N 
ATOM      6  N   UNL     1      32.656 -22.203 -18.808  0.00  0.00    -0.240 NA
ATOM      7  C   UNL     1      34.864 -21.924 -18.383  0.00  0.00    +0.192 C 
ATOM      8  C   UNL     1      33.686 -22.468 -17.947  0.00  0.00    +0.136 C 
ATOM      9  C   UNL     1      36.110 -22.035 -17.697  0.00  0.00    +0.254 C 
ATOM     10  C   UNL     1      33.212 -21.495 -19.770  0.00  0.00    +0.203 C 
ATOM     11  C   UNL     1      34.771 -23.380 -15.980  0.00  0.00    +0.318 C 
ATOM     12  C   UNL     1      32.329 -23.753 -16.342  0.00  0.00    +0.123 C 
ATOM     13  C   UNL     1      37.189 -22.965 -15.703  0.00  0.00    +0.124 C 
ENDROOT
BRANCH   3  14
ATOM     14  C   UNL     1      35.443 -20.568 -20.426  0.00  0.00    +0.136 C 
BRANCH  14  17
ATOM     15  O   UNL     1      34.617 -19.521 -22.441  0.00  0.00    -0.327 OA
ATOM     16  O   UNL     1      35.591 -18.190 -20.771  0.00  0.00    -0.327 OA
ATOM     17  C   UNL     1      34.780 -19.343 -21.028  0.00  0.00    +0.252 C 
ATOM     18  C   UNL     1      35.514 -18.580 -23.031  0.00  0.00    +0.177 C 
ATOM     19  C   UNL     1      35.591 -17.480 -22.008  0.00  0.00    +0.177 C 
ENDBRANCH  14  17
ENDBRANCH   3  14
TORSDOF 2
ENDMDL
MODEL 8
REMARK VINA RESULT:      -7.7      9.479     11.338
REMARK  Name = 50942
REMARK  2 active torsions:
REMARK  status: ('A' for Active; 'I' for Inactive)
REMARK    1  A    between atoms: N_3  and  C_14
REMARK    2  A    between atoms: C_14  and  C_17
REMARK                            x       y       z     vdW  Elec       q    Type
REMARK                         _______ _______ _______ _____ _____    ______ ____
ROOT
ATOM      1  O   UNL     1      32.644 -14.891 -19.935  0.00  0.00    -0.272 OA
ATOM      2  O   UNL     1      32.222 -11.403 -23.045  0.00  0.00    -0.252 OA
ATOM      3  N   UNL     1      34.127 -16.341 -22.091  0.00  0.00    -0.235 NA
ATOM      4  N   UNL     1      33.355 -13.326 -23.700  0.00  0.00    -0.228 N 
ATOM      5  N   UNL     1      32.420 -13.131 -21.475  0.00  0.00    -0.211 N 
ATOM      6  N   UNL     1      34.495 -15.468 -24.109  0.00  0.00    -0.240 NA
ATOM      7  C   UNL     1      33.555 -15.101 -22.081  0.00  0.00    +0.192 C 
ATOM      8  C   UNL     1      33.795 -14.590 -23.328  0.00  0.00    +0.136 C 
ATOM      9  C   UNL     1      32.848 -14.416 -21.048  0.00  0.00    +0.254 C 
ATOM     10  C   UNL     1      34.680 -16.516 -23.333  0.00  0.00    +0.203 C 
ATOM     11  C   UNL     1      32.638 -12.534 -22.769  0.00  0.00    +0.318 C 
ATOM     12  C   UNL     1      33.634 -12.826 -25.041  0.00  0.00    +0.123 C 
ATOM     13  C   UNL     1      31.682 -12.331 -20.502  0.00  0.00    +0.124 C 
ENDROOT
BRANCH   3  14
ATOM     14  C   UNL     1      34.159 -17.301 -21.014  0.00  0.00    +0.136 C 
BRANCH  14  17
ATOM     15  O   UNL     1      33.609 -19.621 -21.412  0.00  0.00    -0.327 OA
ATOM     16  O   UNL     1      35.748 -19.066 -20.618  0.00  0.00    -0.327 OA
ATOM     17  C   UNL     1      34.669 -18.656 -21.467  0.00  0.00    +0.252 C 
ATOM     18  C   UNL     1      33.981 -20.508 -20.357  0.00  0.00    +0.177 C 
ATOM     19  C   UNL     1      35.484 -20.444 -20.358  0.00  0.00    +0.177 C 
ENDBRANCH  14  17
ENDBRANCH   3  14
TORSDOF 2
ENDMDL
MODEL 9
REMARK VINA RESULT:      -7.7     12.406     14.031
REMARK  Name = 50942
REMARK  2 active torsions:
REMARK  status: ('A' for Active; 'I' for Inactive)
REMARK    1  A    between atoms: N_3  and  C_14
REMARK    2  A    between atoms: C_14  and  C_17
REMARK                            x       y       z     vdW  Elec       q    Type
REMARK                         _______ _______ _______ _____ _____    ______ ____
ROOT
ATOM      1  O   UNL     1      31.832 -13.112 -21.144  0.00  0.00    -0.272 OA
ATOM      2  O   UNL     1      31.688  -8.422 -21.236  0.00  0.00    -0.252 OA
ATOM      3  N   UNL     1      33.317 -12.899 -23.732  0.00  0.00    -0.235 NA
ATOM      4  N   UNL     1      32.748  -9.522 -22.991  0.00  0.00    -0.228 N 
ATOM      5  N   UNL     1      31.748 -10.764 -21.168  0.00  0.00    -0.211 N 
ATOM      6  N   UNL     1      33.795 -10.948 -24.701  0.00  0.00    -0.240 NA
ATOM      7  C   UNL     1      32.806 -11.931 -22.916  0.00  0.00    +0.192 C 
ATOM      8  C   UNL     1      33.112 -10.748 -23.532  0.00  0.00    +0.136 C 
ATOM      9  C   UNL     1      32.098 -12.040 -21.681  0.00  0.00    +0.254 C 
ATOM     10  C   UNL     1      33.902 -12.258 -24.793  0.00  0.00    +0.203 C 
ATOM     11  C   UNL     1      32.039  -9.484 -21.764  0.00  0.00    +0.318 C 
ATOM     12  C   UNL     1      33.097  -8.289 -23.685  0.00  0.00    +0.123 C 
ATOM     13  C   UNL     1      31.017 -10.745 -19.905  0.00  0.00    +0.124 C 
ENDROOT
BRANCH   3  14
ATOM     14  C   UNL     1      33.264 -14.328 -23.539  0.00  0.00    +0.136 C 
BRANCH  14  17
ATOM     15  O   UNL     1      35.282 -15.658 -23.538  0.00  0.00    -0.327 OA
ATOM     16  O   UNL     1      33.942 -15.603 -21.612  0.00  0.00    -0.327 OA
ATOM     17  C   UNL     1      34.435 -14.840 -22.720  0.00  0.00    +0.252 C 
ATOM     18  C   UNL     1      35.123 -16.978 -23.020  0.00  0.00    +0.177 C 
ATOM     19  C   UNL     1      34.791 -16.748 -21.571  0.00  0.00    +0.177 C 
ENDBRANCH  14  17
ENDBRANCH   3  14
TORSDOF 2
ENDMDL
