MODEL 1
REMARK VINA RESULT:     -10.8      0.000      0.000
REMARK  Name = 5327130
REMARK  4 active torsions:
REMARK  status: ('A' for Active; 'I' for Inactive)
REMARK    1  A    between atoms: N_2  and  C_5
REMARK    2  A    between atoms: N_2  and  C_20
REMARK    3  A    between atoms: C_7  and  C_14
REMARK    4  A    between atoms: C_20  and  C_22
REMARK                            x       y       z     vdW  Elec       q    Type
REMARK                         _______ _______ _______ _____ _____    ______ ____
ROOT
ATOM      1  N   UNL     1      31.593 -23.035 -16.396  0.00  0.00    -0.179 N 
ATOM      2  N   UNL     1      30.315 -22.655 -16.915  0.00  0.00    -0.254 N 
ATOM      3  N   UNL     1      32.432 -23.795 -14.295  0.00  0.00    -0.385 NA
ATOM      4  C   UNL     1      32.889 -23.070 -17.077  0.00  0.00    +0.122 C 
ATOM      5  C   UNL     1      31.401 -23.385 -15.071  0.00  0.00    +0.205 C 
ATOM      6  C   UNL     1      33.636 -23.824 -14.940  0.00  0.00    +0.136 C 
ATOM      7  C   UNL     1      33.925 -23.490 -16.266  0.00  0.00    +0.064 C 
ATOM      8  C   UNL     1      29.995 -23.224 -14.759  0.00  0.00    +0.067 C 
ATOM      9  C   UNL     1      29.350 -22.770 -15.925  0.00  0.00    +0.080 C 
ATOM     10  H   UNL     1      30.145 -22.357 -17.837  0.00  0.00    +0.171 HD
ENDROOT
BRANCH   6  12
ATOM     11 BR   UNL     1      38.507 -25.913 -14.586  0.00  0.00    -0.049 Br
ATOM     12  C   UNL     1      34.718 -24.266 -14.085  0.00  0.00    +0.030 C 
ATOM     13  C   UNL     1      35.883 -24.784 -14.649  0.00  0.00    +0.009 C 
ATOM     14  C   UNL     1      34.593 -24.174 -12.700  0.00  0.00    +0.003 C 
ATOM     15  C   UNL     1      36.926 -25.210 -13.825  0.00  0.00    +0.035 C 
ATOM     16  C   UNL     1      35.636 -24.599 -11.876  0.00  0.00    +0.001 C 
ATOM     17  C   UNL     1      36.801 -25.117 -12.439  0.00  0.00    +0.007 C 
ENDBRANCH   6  12
BRANCH   4  18
ATOM     18  N   UNL     1      33.033 -22.707 -18.413  0.00  0.00    -0.316 N 
ATOM     19  H   UNL     1      32.218 -22.567 -18.947  0.00  0.00    +0.148 HD
BRANCH  18  20
ATOM     20  C   UNL     1      34.309 -22.527 -19.055  0.00  0.00    +0.115 C 
BRANCH  20  22
ATOM     21  N   UNL     1      34.377 -18.855 -21.264  0.00  0.00    -0.242 NA
ATOM     22  C   UNL     1      34.332 -21.239 -19.831  0.00  0.00    +0.000 C 
ATOM     23  C   UNL     1      35.542 -20.723 -20.263  0.00  0.00    +0.018 C 
ATOM     24  C   UNL     1      33.146 -20.581 -20.104  0.00  0.00    +0.018 C 
ATOM     25  C   UNL     1      35.511 -19.534 -20.973  0.00  0.00    +0.099 C 
ATOM     26  C   UNL     1      33.222 -19.398 -20.821  0.00  0.00    +0.099 C 
ENDBRANCH  20  22
ENDBRANCH  18  20
ENDBRANCH   4  18
TORSDOF 4
ENDMDL
MODEL 2
REMARK VINA RESULT:     -10.6      1.119      1.764
REMARK  Name = 5327130
REMARK  4 active torsions:
REMARK  status: ('A' for Active; 'I' for Inactive)
REMARK    1  A    between atoms: N_2  and  C_5
REMARK    2  A    between atoms: N_2  and  C_20
REMARK    3  A    between atoms: C_7  and  C_14
REMARK    4  A    between atoms: C_20  and  C_22
REMARK                            x       y       z     vdW  Elec       q    Type
REMARK                         _______ _______ _______ _____ _____    ______ ____
ROOT
ATOM      1  N   UNL     1      31.423 -22.972 -16.542  0.00  0.00    -0.179 N 
ATOM      2  N   UNL     1      30.129 -22.558 -16.990  0.00  0.00    -0.254 N 
ATOM      3  N   UNL     1      32.317 -23.945 -14.555  0.00  0.00    -0.385 NA
ATOM      4  C   UNL     1      32.705 -22.910 -17.247  0.00  0.00    +0.122 C 
ATOM      5  C   UNL     1      31.263 -23.469 -15.261  0.00  0.00    +0.205 C 
ATOM      6  C   UNL     1      33.507 -23.883 -15.222  0.00  0.00    +0.136 C 
ATOM      7  C   UNL     1      33.763 -23.400 -16.509  0.00  0.00    +0.064 C 
ATOM      8  C   UNL     1      29.863 -23.367 -14.906  0.00  0.00    +0.067 C 
ATOM      9  C   UNL     1      29.187 -22.798 -16.001  0.00  0.00    +0.080 C 
ATOM     10  H   UNL     1      29.935 -22.163 -17.870  0.00  0.00    +0.171 HD
ENDROOT
BRANCH   6  12
ATOM     11 BR   UNL     1      35.818 -24.329 -10.460  0.00  0.00    -0.049 Br
ATOM     12  C   UNL     1      34.614 -24.399 -14.442  0.00  0.00    +0.030 C 
ATOM     13  C   UNL     1      34.671 -24.157 -13.071  0.00  0.00    +0.009 C 
ATOM     14  C   UNL     1      35.619 -25.135 -15.065  0.00  0.00    +0.003 C 
ATOM     15  C   UNL     1      35.737 -24.654 -12.320  0.00  0.00    +0.035 C 
ATOM     16  C   UNL     1      36.685 -25.632 -14.315  0.00  0.00    +0.001 C 
ATOM     17  C   UNL     1      36.744 -25.391 -12.943  0.00  0.00    +0.007 C 
ENDBRANCH   6  12
BRANCH   4  18
ATOM     18  N   UNL     1      32.815 -22.400 -18.537  0.00  0.00    -0.316 N 
ATOM     19  H   UNL     1      32.023 -21.970 -18.938  0.00  0.00    +0.148 HD
BRANCH  18  20
ATOM     20  C   UNL     1      34.022 -22.466 -19.319  0.00  0.00    +0.115 C 
BRANCH  20  22
ATOM     21  N   UNL     1      34.796 -18.702 -21.218  0.00  0.00    -0.242 NA
ATOM     22  C   UNL     1      34.294 -21.145 -19.984  0.00  0.00    +0.000 C 
ATOM     23  C   UNL     1      33.234 -20.337 -20.359  0.00  0.00    +0.018 C 
ATOM     24  C   UNL     1      35.600 -20.750 -20.217  0.00  0.00    +0.018 C 
ATOM     25  C   UNL     1      33.537 -19.130 -20.969  0.00  0.00    +0.099 C 
ATOM     26  C   UNL     1      35.797 -19.525 -20.834  0.00  0.00    +0.099 C 
ENDBRANCH  20  22
ENDBRANCH  18  20
ENDBRANCH   4  18
TORSDOF 4
ENDMDL
MODEL 3
REMARK VINA RESULT:     -10.5      5.929      9.270
REMARK  Name = 5327130
REMARK  4 active torsions:
REMARK  status: ('A' for Active; 'I' for Inactive)
REMARK    1  A    between atoms: N_2  and  C_5
REMARK    2  A    between atoms: N_2  and  C_20
REMARK    3  A    between atoms: C_7  and  C_14
REMARK    4  A    between atoms: C_20  and  C_22
REMARK                            x       y       z     vdW  Elec       q    Type
REMARK                         _______ _______ _______ _____ _____    ______ ____
ROOT
ATOM      1  N   UNL     1      34.281 -16.282 -23.239  0.00  0.00    -0.179 N 
ATOM      2  N   UNL     1      33.949 -15.415 -24.328  0.00  0.00    -0.254 N 
ATOM      3  N   UNL     1      34.963 -18.557 -23.008  0.00  0.00    -0.385 NA
ATOM      4  C   UNL     1      34.298 -15.992 -21.804  0.00  0.00    +0.122 C 
ATOM      5  C   UNL     1      34.602 -17.510 -23.788  0.00  0.00    +0.205 C 
ATOM      6  C   UNL     1      34.977 -18.275 -21.672  0.00  0.00    +0.136 C 
ATOM      7  C   UNL     1      34.670 -17.072 -21.029  0.00  0.00    +0.064 C 
ATOM      8  C   UNL     1      34.470 -17.412 -25.227  0.00  0.00    +0.067 C 
ATOM      9  C   UNL     1      34.064 -16.099 -25.529  0.00  0.00    +0.080 C 
ATOM     10  H   UNL     1      33.680 -14.473 -24.238  0.00  0.00    +0.171 HD
ENDROOT
BRANCH   6  12
ATOM     11 BR   UNL     1      33.449 -22.447 -18.760  0.00  0.00    -0.049 Br
ATOM     12  C   UNL     1      35.367 -19.413 -20.864  0.00  0.00    +0.030 C 
ATOM     13  C   UNL     1      34.392 -20.235 -20.302  0.00  0.00    +0.009 C 
ATOM     14  C   UNL     1      36.718 -19.682 -20.649  0.00  0.00    +0.003 C 
ATOM     15  C   UNL     1      34.768 -21.330 -19.524  0.00  0.00    +0.035 C 
ATOM     16  C   UNL     1      37.094 -20.777 -19.871  0.00  0.00    +0.001 C 
ATOM     17  C   UNL     1      36.120 -21.600 -19.309  0.00  0.00    +0.007 C 
ENDBRANCH   6  12
BRANCH   4  18
ATOM     18  N   UNL     1      33.967 -14.738 -21.299  0.00  0.00    -0.316 N 
ATOM     19  H   UNL     1      34.635 -14.017 -21.368  0.00  0.00    +0.148 HD
BRANCH  18  20
ATOM     20  C   UNL     1      32.702 -14.438 -20.680  0.00  0.00    +0.115 C 
BRANCH  20  22
ATOM     21  N   UNL     1      31.424 -10.477 -21.703  0.00  0.00    -0.242 NA
ATOM     22  C   UNL     1      32.254 -13.048 -21.039  0.00  0.00    +0.000 C 
ATOM     23  C   UNL     1      31.824 -12.189 -20.043  0.00  0.00    +0.018 C 
ATOM     24  C   UNL     1      32.274 -12.642 -22.362  0.00  0.00    +0.018 C 
ATOM     25  C   UNL     1      31.422 -10.920 -20.425  0.00  0.00    +0.099 C 
ATOM     26  C   UNL     1      31.851 -11.353 -22.641  0.00  0.00    +0.099 C 
ENDBRANCH  20  22
ENDBRANCH  18  20
ENDBRANCH   4  18
TORSDOF 4
ENDMDL
MODEL 4
REMARK VINA RESULT:     -10.4      6.347     11.417
REMARK  Name = 5327130
REMARK  4 active torsions:
REMARK  status: ('A' for Active; 'I' for Inactive)
REMARK    1  A    between atoms: N_2  and  C_5
REMARK    2  A    between atoms: N_2  and  C_20
REMARK    3  A    between atoms: C_7  and  C_14
REMARK    4  A    between atoms: C_20  and  C_22
REMARK                            x       y       z     vdW  Elec       q    Type
REMARK                         _______ _______ _______ _____ _____    ______ ____
ROOT
ATOM      1  N   UNL     1      34.507 -16.416 -23.148  0.00  0.00    -0.179 N 
ATOM      2  N   UNL     1      35.039 -17.469 -23.959  0.00  0.00    -0.254 N 
ATOM      3  N   UNL     1      33.261 -14.418 -23.536  0.00  0.00    -0.385 NA
ATOM      4  C   UNL     1      34.584 -16.245 -21.696  0.00  0.00    +0.122 C 
ATOM      5  C   UNL     1      33.872 -15.533 -24.004  0.00  0.00    +0.205 C 
ATOM      6  C   UNL     1      33.338 -14.269 -22.181  0.00  0.00    +0.136 C 
ATOM      7  C   UNL     1      33.955 -15.102 -21.243  0.00  0.00    +0.064 C 
ATOM      8  C   UNL     1      34.006 -16.035 -25.355  0.00  0.00    +0.067 C 
ATOM      9  C   UNL     1      34.735 -17.237 -25.292  0.00  0.00    +0.080 C 
ATOM     10  H   UNL     1      35.544 -18.242 -23.621  0.00  0.00    +0.171 HD
ENDROOT
BRANCH   6  12
ATOM     11 BR   UNL     1      31.700  -9.333 -23.264  0.00  0.00    -0.049 Br
ATOM     12  C   UNL     1      32.676 -13.068 -21.712  0.00  0.00    +0.030 C 
ATOM     13  C   UNL     1      32.533 -11.974 -22.564  0.00  0.00    +0.009 C 
ATOM     14  C   UNL     1      32.183 -13.010 -20.410  0.00  0.00    +0.003 C 
ATOM     15  C   UNL     1      31.896 -10.818 -22.112  0.00  0.00    +0.035 C 
ATOM     16  C   UNL     1      31.546 -11.854 -19.958  0.00  0.00    +0.001 C 
ATOM     17  C   UNL     1      31.402 -10.759 -20.808  0.00  0.00    +0.007 C 
ENDBRANCH   6  12
BRANCH   4  18
ATOM     18  N   UNL     1      35.235 -17.162 -20.877  0.00  0.00    -0.316 N 
ATOM     19  H   UNL     1      35.375 -16.924 -19.931  0.00  0.00    +0.148 HD
BRANCH  18  20
ATOM     20  C   UNL     1      35.716 -18.438 -21.336  0.00  0.00    +0.115 C 
BRANCH  20  22
ATOM     21  N   UNL     1      33.327 -21.613 -19.728  0.00  0.00    -0.242 NA
ATOM     22  C   UNL     1      34.878 -19.553 -20.773  0.00  0.00    +0.000 C 
ATOM     23  C   UNL     1      33.499 -19.496 -20.884  0.00  0.00    +0.018 C 
ATOM     24  C   UNL     1      35.493 -20.623 -20.146  0.00  0.00    +0.018 C 
ATOM     25  C   UNL     1      32.773 -20.547 -20.348  0.00  0.00    +0.099 C 
ATOM     26  C   UNL     1      34.677 -21.623 -19.643  0.00  0.00    +0.099 C 
ENDBRANCH  20  22
ENDBRANCH  18  20
ENDBRANCH   4  18
TORSDOF 4
ENDMDL
MODEL 5
REMARK VINA RESULT:     -10.4      2.966      4.962
REMARK  Name = 5327130
REMARK  4 active torsions:
REMARK  status: ('A' for Active; 'I' for Inactive)
REMARK    1  A    between atoms: N_2  and  C_5
REMARK    2  A    between atoms: N_2  and  C_20
REMARK    3  A    between atoms: C_7  and  C_14
REMARK    4  A    between atoms: C_20  and  C_22
REMARK                            x       y       z     vdW  Elec       q    Type
REMARK                         _______ _______ _______ _____ _____    ______ ____
ROOT
ATOM      1  N   UNL     1      35.188 -22.798 -16.570  0.00  0.00    -0.179 N 
ATOM      2  N   UNL     1      36.593 -22.522 -16.575  0.00  0.00    -0.254 N 
ATOM      3  N   UNL     1      33.601 -23.569 -14.964  0.00  0.00    -0.385 NA
ATOM      4  C   UNL     1      34.222 -22.675 -17.663  0.00  0.00    +0.122 C 
ATOM      5  C   UNL     1      34.869 -23.226 -15.293  0.00  0.00    +0.205 C 
ATOM      6  C   UNL     1      32.708 -23.450 -15.990  0.00  0.00    +0.136 C 
ATOM      7  C   UNL     1      32.937 -23.030 -17.303  0.00  0.00    +0.064 C 
ATOM      8  C   UNL     1      36.078 -23.217 -14.496  0.00  0.00    +0.067 C 
ATOM      9  C   UNL     1      37.129 -22.775 -15.322  0.00  0.00    +0.080 C 
ATOM     10  H   UNL     1      37.102 -22.200 -17.353  0.00  0.00    +0.171 HD
ENDROOT
BRANCH   6  12
ATOM     11 BR   UNL     1      27.510 -22.385 -16.251  0.00  0.00    -0.049 Br
ATOM     12  C   UNL     1      31.362 -23.823 -15.606  0.00  0.00    +0.030 C 
ATOM     13  C   UNL     1      30.278 -23.059 -16.038  0.00  0.00    +0.009 C 
ATOM     14  C   UNL     1      31.152 -24.945 -14.807  0.00  0.00    +0.003 C 
ATOM     15  C   UNL     1      28.982 -23.418 -15.668  0.00  0.00    +0.035 C 
ATOM     16  C   UNL     1      29.856 -25.305 -14.438  0.00  0.00    +0.001 C 
ATOM     17  C   UNL     1      28.771 -24.541 -14.869  0.00  0.00    +0.007 C 
ENDBRANCH   6  12
BRANCH   4  18
ATOM     18  N   UNL     1      34.592 -22.240 -18.932  0.00  0.00    -0.316 N 
ATOM     19  H   UNL     1      35.494 -22.465 -19.257  0.00  0.00    +0.148 HD
BRANCH  18  20
ATOM     20  C   UNL     1      33.728 -21.477 -19.795  0.00  0.00    +0.115 C 
BRANCH  20  22
ATOM     21  N   UNL     1      35.845 -18.162 -21.499  0.00  0.00    -0.242 NA
ATOM     22  C   UNL     1      34.471 -20.314 -20.392  0.00  0.00    +0.000 C 
ATOM     23  C   UNL     1      33.764 -19.278 -20.977  0.00  0.00    +0.018 C 
ATOM     24  C   UNL     1      35.854 -20.290 -20.353  0.00  0.00    +0.018 C 
ATOM     25  C   UNL     1      34.494 -18.230 -21.513  0.00  0.00    +0.099 C 
ATOM     26  C   UNL     1      36.491 -19.197 -20.917  0.00  0.00    +0.099 C 
ENDBRANCH  20  22
ENDBRANCH  18  20
ENDBRANCH   4  18
TORSDOF 4
ENDMDL
MODEL 6
REMARK VINA RESULT:     -10.3      3.207      6.793
REMARK  Name = 5327130
REMARK  4 active torsions:
REMARK  status: ('A' for Active; 'I' for Inactive)
REMARK    1  A    between atoms: N_2  and  C_5
REMARK    2  A    between atoms: N_2  and  C_20
REMARK    3  A    between atoms: C_7  and  C_14
REMARK    4  A    between atoms: C_20  and  C_22
REMARK                            x       y       z     vdW  Elec       q    Type
REMARK                         _______ _______ _______ _____ _____    ______ ____
ROOT
ATOM      1  N   UNL     1      34.800 -22.223 -18.017  0.00  0.00    -0.179 N 
ATOM      2  N   UNL     1      35.745 -21.668 -18.937  0.00  0.00    -0.254 N 
ATOM      3  N   UNL     1      32.438 -22.557 -17.981  0.00  0.00    -0.385 NA
ATOM      4  C   UNL     1      35.036 -22.804 -16.694  0.00  0.00    +0.122 C 
ATOM      5  C   UNL     1      33.554 -22.116 -18.609  0.00  0.00    +0.205 C 
ATOM      6  C   UNL     1      32.669 -23.098 -16.749  0.00  0.00    +0.136 C 
ATOM      7  C   UNL     1      33.884 -23.247 -16.074  0.00  0.00    +0.064 C 
ATOM      8  C   UNL     1      33.719 -21.492 -19.905  0.00  0.00    +0.067 C 
ATOM      9  C   UNL     1      35.091 -21.227 -20.078  0.00  0.00    +0.080 C 
ATOM     10  H   UNL     1      36.715 -21.608 -18.784  0.00  0.00    +0.171 HD
ENDROOT
BRANCH   6  12
ATOM     11 BR   UNL     1      27.439 -22.480 -16.054  0.00  0.00    -0.049 Br
ATOM     12  C   UNL     1      31.457 -23.561 -16.104  0.00  0.00    +0.030 C 
ATOM     13  C   UNL     1      30.248 -22.912 -16.348  0.00  0.00    +0.009 C 
ATOM     14  C   UNL     1      31.503 -24.654 -15.241  0.00  0.00    +0.003 C 
ATOM     15  C   UNL     1      29.081 -23.358 -15.726  0.00  0.00    +0.035 C 
ATOM     16  C   UNL     1      30.336 -25.100 -14.619  0.00  0.00    +0.001 C 
ATOM     17  C   UNL     1      29.126 -24.452 -14.862  0.00  0.00    +0.007 C 
ENDBRANCH   6  12
BRANCH   4  18
ATOM     18  N   UNL     1      36.310 -22.889 -16.140  0.00  0.00    -0.316 N 
ATOM     19  H   UNL     1      37.082 -22.676 -16.714  0.00  0.00    +0.148 HD
BRANCH  18  20
ATOM     20  C   UNL     1      36.560 -23.273 -14.775  0.00  0.00    +0.115 C 
BRANCH  20  22
ATOM     21  N   UNL     1      38.527 -27.078 -14.618  0.00  0.00    -0.242 NA
ATOM     22  C   UNL     1      37.250 -24.608 -14.719  0.00  0.00    +0.000 C 
ATOM     23  C   UNL     1      38.632 -24.662 -14.658  0.00  0.00    +0.018 C 
ATOM     24  C   UNL     1      36.497 -25.769 -14.732  0.00  0.00    +0.018 C 
ATOM     25  C   UNL     1      39.219 -25.916 -14.609  0.00  0.00    +0.099 C 
ATOM     26  C   UNL     1      37.180 -26.974 -14.679  0.00  0.00    +0.099 C 
ENDBRANCH  20  22
ENDBRANCH  18  20
ENDBRANCH   4  18
TORSDOF 4
ENDMDL
MODEL 7
REMARK VINA RESULT:     -10.3      3.082      6.858
REMARK  Name = 5327130
REMARK  4 active torsions:
REMARK  status: ('A' for Active; 'I' for Inactive)
REMARK    1  A    between atoms: N_2  and  C_5
REMARK    2  A    between atoms: N_2  and  C_20
REMARK    3  A    between atoms: C_7  and  C_14
REMARK    4  A    between atoms: C_20  and  C_22
REMARK                            x       y       z     vdW  Elec       q    Type
REMARK                         _______ _______ _______ _____ _____    ______ ____
ROOT
ATOM      1  N   UNL     1      35.632 -22.275 -17.552  0.00  0.00    -0.179 N 
ATOM      2  N   UNL     1      36.577 -21.766 -18.499  0.00  0.00    -0.254 N 
ATOM      3  N   UNL     1      33.311 -22.825 -17.575  0.00  0.00    -0.385 NA
ATOM      4  C   UNL     1      35.841 -22.640 -16.150  0.00  0.00    +0.122 C 
ATOM      5  C   UNL     1      34.419 -22.371 -18.209  0.00  0.00    +0.205 C 
ATOM      6  C   UNL     1      33.517 -23.164 -16.269  0.00  0.00    +0.136 C 
ATOM      7  C   UNL     1      34.699 -23.099 -15.525  0.00  0.00    +0.064 C 
ATOM      8  C   UNL     1      34.604 -21.922 -19.573  0.00  0.00    +0.067 C 
ATOM      9  C   UNL     1      35.954 -21.554 -19.720  0.00  0.00    +0.080 C 
ATOM     10  H   UNL     1      37.527 -21.593 -18.312  0.00  0.00    +0.171 HD
ENDROOT
BRANCH   6  12
ATOM     11 BR   UNL     1      28.207 -23.268 -16.163  0.00  0.00    -0.049 Br
ATOM     12  C   UNL     1      32.315 -23.646 -15.619  0.00  0.00    +0.030 C 
ATOM     13  C   UNL     1      31.063 -23.287 -16.117  0.00  0.00    +0.009 C 
ATOM     14  C   UNL     1      32.412 -24.466 -14.497  0.00  0.00    +0.003 C 
ATOM     15  C   UNL     1      29.906 -23.751 -15.491  0.00  0.00    +0.035 C 
ATOM     16  C   UNL     1      31.255 -24.930 -13.871  0.00  0.00    +0.001 C 
ATOM     17  C   UNL     1      30.003 -24.573 -14.368  0.00  0.00    +0.007 C 
ENDBRANCH   6  12
BRANCH   4  18
ATOM     18  N   UNL     1      37.083 -22.524 -15.532  0.00  0.00    -0.316 N 
ATOM     19  H   UNL     1      37.324 -21.658 -15.130  0.00  0.00    +0.148 HD
BRANCH  18  20
ATOM     20  C   UNL     1      38.034 -23.602 -15.450  0.00  0.00    +0.115 C 
BRANCH  20  22
ATOM     21  N   UNL     1      37.090 -26.195 -12.170  0.00  0.00    -0.242 NA
ATOM     22  C   UNL     1      37.704 -24.512 -14.299  0.00  0.00    +0.000 C 
ATOM     23  C   UNL     1      37.488 -25.859 -14.532  0.00  0.00    +0.018 C 
ATOM     24  C   UNL     1      37.617 -23.994 -13.019  0.00  0.00    +0.018 C 
ATOM     25  C   UNL     1      37.186 -26.655 -13.439  0.00  0.00    +0.099 C 
ATOM     26  C   UNL     1      37.309 -24.873 -11.993  0.00  0.00    +0.099 C 
ENDBRANCH  20  22
ENDBRANCH  18  20
ENDBRANCH   4  18
TORSDOF 4
ENDMDL
MODEL 8
REMARK VINA RESULT:     -10.2      2.912      6.744
REMARK  Name = 5327130
REMARK  4 active torsions:
REMARK  status: ('A' for Active; 'I' for Inactive)
REMARK    1  A    between atoms: N_2  and  C_5
REMARK    2  A    between atoms: N_2  and  C_20
REMARK    3  A    between atoms: C_7  and  C_14
REMARK    4  A    between atoms: C_20  and  C_22
REMARK                            x       y       z     vdW  Elec       q    Type
REMARK                         _______ _______ _______ _____ _____    ______ ____
ROOT
ATOM      1  N   UNL     1      34.898 -24.254 -14.733  0.00  0.00    -0.179 N 
ATOM      2  N   UNL     1      35.124 -25.019 -13.545  0.00  0.00    -0.254 N 
ATOM      3  N   UNL     1      36.268 -23.166 -16.356  0.00  0.00    -0.385 NA
ATOM      4  C   UNL     1      33.628 -23.880 -15.359  0.00  0.00    +0.122 C 
ATOM      5  C   UNL     1      36.142 -23.903 -15.226  0.00  0.00    +0.205 C 
ATOM      6  C   UNL     1      35.078 -22.823 -16.932  0.00  0.00    +0.136 C 
ATOM      7  C   UNL     1      33.782 -23.130 -16.508  0.00  0.00    +0.064 C 
ATOM      8  C   UNL     1      37.151 -24.450 -14.343  0.00  0.00    +0.067 C 
ATOM      9  C   UNL     1      36.486 -25.137 -13.311  0.00  0.00    +0.080 C 
ATOM     10  H   UNL     1      34.418 -25.405 -12.979  0.00  0.00    +0.171 HD
ENDROOT
BRANCH   6  12
ATOM     11 BR   UNL     1      32.772 -20.164 -20.910  0.00  0.00    -0.049 Br
ATOM     12  C   UNL     1      35.246 -22.036 -18.137  0.00  0.00    +0.030 C 
ATOM     13  C   UNL     1      34.126 -21.564 -18.820  0.00  0.00    +0.009 C 
ATOM     14  C   UNL     1      36.525 -21.754 -18.611  0.00  0.00    +0.003 C 
ATOM     15  C   UNL     1      34.288 -20.807 -19.981  0.00  0.00    +0.035 C 
ATOM     16  C   UNL     1      36.687 -20.997 -19.771  0.00  0.00    +0.001 C 
ATOM     17  C   UNL     1      35.568 -20.524 -20.456  0.00  0.00    +0.007 C 
ENDBRANCH   6  12
BRANCH   4  18
ATOM     18  N   UNL     1      32.400 -24.258 -14.824  0.00  0.00    -0.316 N 
ATOM     19  H   UNL     1      32.178 -25.217 -14.800  0.00  0.00    +0.148 HD
BRANCH  18  20
ATOM     20  C   UNL     1      31.437 -23.322 -14.305  0.00  0.00    +0.115 C 
BRANCH  20  22
ATOM     21  N   UNL     1      27.816 -23.466 -16.594  0.00  0.00    -0.242 NA
ATOM     22  C   UNL     1      30.166 -23.373 -15.108  0.00  0.00    +0.000 C 
ATOM     23  C   UNL     1      29.859 -24.511 -15.833  0.00  0.00    +0.018 C 
ATOM     24  C   UNL     1      29.317 -22.280 -15.115  0.00  0.00    +0.018 C 
ATOM     25  C   UNL     1      28.677 -24.508 -16.555  0.00  0.00    +0.099 C 
ATOM     26  C   UNL     1      28.159 -22.376 -15.871  0.00  0.00    +0.099 C 
ENDBRANCH  20  22
ENDBRANCH  18  20
ENDBRANCH   4  18
TORSDOF 4
ENDMDL
MODEL 9
REMARK VINA RESULT:     -10.1     11.951     15.395
REMARK  Name = 5327130
REMARK  4 active torsions:
REMARK  status: ('A' for Active; 'I' for Inactive)
REMARK    1  A    between atoms: N_2  and  C_5
REMARK    2  A    between atoms: N_2  and  C_20
REMARK    3  A    between atoms: C_7  and  C_14
REMARK    4  A    between atoms: C_20  and  C_22
REMARK                            x       y       z     vdW  Elec       q    Type
REMARK                         _______ _______ _______ _____ _____    ______ ____
ROOT
ATOM      1  N   UNL     1      31.935 -10.944 -21.079  0.00  0.00    -0.179 N 
ATOM      2  N   UNL     1      31.526 -11.760 -19.977  0.00  0.00    -0.254 N 
ATOM      3  N   UNL     1      32.304  -8.615 -21.441  0.00  0.00    -0.385 NA
ATOM      4  C   UNL     1      32.279 -11.347 -22.444  0.00  0.00    +0.122 C 
ATOM      5  C   UNL     1      31.954  -9.638 -20.625  0.00  0.00    +0.205 C 
ATOM      6  C   UNL     1      32.624  -9.001 -22.711  0.00  0.00    +0.136 C 
ATOM      7  C   UNL     1      32.632 -10.289 -23.257  0.00  0.00    +0.064 C 
ATOM      8  C   UNL     1      31.556  -9.635 -19.232  0.00  0.00    +0.067 C 
ATOM      9  C   UNL     1      31.298 -10.968 -18.862  0.00  0.00    +0.080 C 
ATOM     10  H   UNL     1      31.423 -12.738 -20.005  0.00  0.00    +0.171 HD
ENDROOT
BRANCH   6  12
ATOM     11 BR   UNL     1      31.175  -4.434 -25.004  0.00  0.00    -0.049 Br
ATOM     12  C   UNL     1      32.994  -7.887 -23.560  0.00  0.00    +0.030 C 
ATOM     13  C   UNL     1      32.069  -6.878 -23.825  0.00  0.00    +0.009 C 
ATOM     14  C   UNL     1      34.273  -7.826 -24.109  0.00  0.00    +0.003 C 
ATOM     15  C   UNL     1      32.426  -5.804 -24.642  0.00  0.00    +0.035 C 
ATOM     16  C   UNL     1      34.629  -6.753 -24.926  0.00  0.00    +0.001 C 
ATOM     17  C   UNL     1      33.706  -5.743 -25.192  0.00  0.00    +0.007 C 
ENDBRANCH   6  12
BRANCH   4  18
ATOM     18  N   UNL     1      32.244 -12.677 -22.854  0.00  0.00    -0.316 N 
ATOM     19  H   UNL     1      31.423 -13.010 -23.283  0.00  0.00    +0.148 HD
BRANCH  18  20
ATOM     20  C   UNL     1      33.344 -13.591 -22.684  0.00  0.00    +0.115 C 
BRANCH  20  22
ATOM     21  N   UNL     1      33.785 -16.075 -26.149  0.00  0.00    -0.242 NA
ATOM     22  C   UNL     1      33.499 -14.462 -23.899  0.00  0.00    +0.000 C 
ATOM     23  C   UNL     1      32.989 -14.039 -25.115  0.00  0.00    +0.018 C 
ATOM     24  C   UNL     1      34.149 -15.679 -23.792  0.00  0.00    +0.018 C 
ATOM     25  C   UNL     1      33.157 -14.878 -26.204  0.00  0.00    +0.099 C 
ATOM     26  C   UNL     1      34.266 -16.445 -24.941  0.00  0.00    +0.099 C 
ENDBRANCH  20  22
ENDBRANCH  18  20
ENDBRANCH   4  18
TORSDOF 4
ENDMDL
