MODEL 1
REMARK VINA RESULT:     -10.2      0.000      0.000
REMARK  Name = 5280961
REMARK  4 active torsions:
REMARK  status: ('A' for Active; 'I' for Inactive)
REMARK    1  A    between atoms: C_4  and  C_12
REMARK    2  A    between atoms: C_7  and  O_20
REMARK    3  A    between atoms: C_11  and  O_22
REMARK    4  A    between atoms: C_17  and  O_18
REMARK                            x       y       z     vdW  Elec       q    Type
REMARK                         _______ _______ _______ _____ _____    ______ ____
ROOT
ATOM      1  O   UNL     1      37.103 -19.835 -20.074  0.00  0.00    -0.450 OA
ATOM      2  O   UNL     1      33.278 -20.134 -21.463  0.00  0.00    -0.286 OA
ATOM      3  C   UNL     1      34.886 -20.804 -19.878  0.00  0.00    +0.107 C 
ATOM      4  C   UNL     1      35.420 -19.115 -21.670  0.00  0.00    +0.077 C 
ATOM      5  C   UNL     1      36.208 -20.669 -19.455  0.00  0.00    +0.154 C 
ATOM      6  C   UNL     1      34.422 -20.023 -21.040  0.00  0.00    +0.204 C 
ATOM      7  C   UNL     1      34.019 -21.671 -19.209  0.00  0.00    +0.143 C 
ATOM      8  C   UNL     1      36.654 -19.096 -21.142  0.00  0.00    +0.183 C 
ATOM      9  C   UNL     1      36.670 -21.402 -18.360  0.00  0.00    +0.074 C 
ATOM     10  C   UNL     1      34.483 -22.402 -18.116  0.00  0.00    +0.073 C 
ATOM     11  C   UNL     1      35.805 -22.268 -17.691  0.00  0.00    +0.140 C 
ENDROOT
BRANCH   4  12
ATOM     12  C   UNL     1      35.077 -18.251 -22.811  0.00  0.00    +0.006 C 
ATOM     13  C   UNL     1      34.799 -18.815 -24.058  0.00  0.00    +0.003 C 
ATOM     14  C   UNL     1      35.026 -16.865 -22.651  0.00  0.00    +0.003 C 
ATOM     15  C   UNL     1      34.473 -17.997 -25.139  0.00  0.00    +0.037 C 
ATOM     16  C   UNL     1      34.700 -16.047 -23.732  0.00  0.00    +0.037 C 
ATOM     17  C   UNL     1      34.423 -16.613 -24.976  0.00  0.00    +0.134 C 
BRANCH  17  18
ATOM     18  O   UNL     1      34.104 -15.814 -26.032  0.00  0.00    -0.506 OA
ATOM     19  H   UNL     1      33.958 -16.192 -26.877  0.00  0.00    +0.292 HD
ENDBRANCH  17  18
ENDBRANCH   4  12
BRANCH   7  20
ATOM     20  O   UNL     1      32.719 -21.839 -19.580  0.00  0.00    -0.505 OA
ATOM     21  H   UNL     1      32.375 -21.366 -20.312  0.00  0.00    +0.292 HD
ENDBRANCH   7  20
BRANCH  11  22
ATOM     22  O   UNL     1      36.252 -22.984 -16.624  0.00  0.00    -0.505 OA
ATOM     23  H   UNL     1      36.392 -22.561 -15.800  0.00  0.00    +0.292 HD
ENDBRANCH  11  22
TORSDOF 4
ENDMDL
MODEL 2
REMARK VINA RESULT:      -9.9      1.856      7.217
REMARK  Name = 5280961
REMARK  4 active torsions:
REMARK  status: ('A' for Active; 'I' for Inactive)
REMARK    1  A    between atoms: C_4  and  C_12
REMARK    2  A    between atoms: C_7  and  O_20
REMARK    3  A    between atoms: C_11  and  O_22
REMARK    4  A    between atoms: C_17  and  O_18
REMARK                            x       y       z     vdW  Elec       q    Type
REMARK                         _______ _______ _______ _____ _____    ______ ____
ROOT
ATOM      1  O   UNL     1      34.375 -18.168 -24.626  0.00  0.00    -0.450 OA
ATOM      2  O   UNL     1      34.703 -16.678 -20.842  0.00  0.00    -0.286 OA
ATOM      3  C   UNL     1      34.264 -16.269 -23.119  0.00  0.00    +0.107 C 
ATOM      4  C   UNL     1      34.776 -18.584 -22.267  0.00  0.00    +0.077 C 
ATOM      5  C   UNL     1      34.175 -16.832 -24.392  0.00  0.00    +0.154 C 
ATOM      6  C   UNL     1      34.587 -17.137 -21.971  0.00  0.00    +0.204 C 
ATOM      7  C   UNL     1      34.051 -14.900 -22.940  0.00  0.00    +0.143 C 
ATOM      8  C   UNL     1      34.655 -18.970 -23.547  0.00  0.00    +0.183 C 
ATOM      9  C   UNL     1      33.875 -16.029 -25.492  0.00  0.00    +0.074 C 
ATOM     10  C   UNL     1      33.751 -14.099 -24.042  0.00  0.00    +0.073 C 
ATOM     11  C   UNL     1      33.662 -14.661 -25.315  0.00  0.00    +0.140 C 
ENDROOT
BRANCH   4  12
ATOM     12  C   UNL     1      35.064 -19.565 -21.208  0.00  0.00    +0.006 C 
ATOM     13  C   UNL     1      34.027 -20.305 -20.638  0.00  0.00    +0.003 C 
ATOM     14  C   UNL     1      36.376 -19.758 -20.771  0.00  0.00    +0.003 C 
ATOM     15  C   UNL     1      34.300 -21.235 -19.635  0.00  0.00    +0.037 C 
ATOM     16  C   UNL     1      36.649 -20.689 -19.768  0.00  0.00    +0.037 C 
ATOM     17  C   UNL     1      35.611 -21.427 -19.200  0.00  0.00    +0.134 C 
BRANCH  17  18
ATOM     18  O   UNL     1      35.877 -22.335 -18.221  0.00  0.00    -0.506 OA
ATOM     19  H   UNL     1      35.861 -23.251 -18.416  0.00  0.00    +0.292 HD
ENDBRANCH  17  18
ENDBRANCH   4  12
BRANCH   7  20
ATOM     20  O   UNL     1      34.124 -14.299 -21.719  0.00  0.00    -0.505 OA
ATOM     21  H   UNL     1      34.340 -14.804 -20.960  0.00  0.00    +0.292 HD
ENDBRANCH   7  20
BRANCH  11  22
ATOM     22  O   UNL     1      33.369 -13.874 -26.387  0.00  0.00    -0.505 OA
ATOM     23  H   UNL     1      32.477 -13.724 -26.628  0.00  0.00    +0.292 HD
ENDBRANCH  11  22
TORSDOF 4
ENDMDL
MODEL 3
REMARK VINA RESULT:      -9.7      2.136      7.358
REMARK  Name = 5280961
REMARK  4 active torsions:
REMARK  status: ('A' for Active; 'I' for Inactive)
REMARK    1  A    between atoms: C_4  and  C_12
REMARK    2  A    between atoms: C_7  and  O_20
REMARK    3  A    between atoms: C_11  and  O_22
REMARK    4  A    between atoms: C_17  and  O_18
REMARK                            x       y       z     vdW  Elec       q    Type
REMARK                         _______ _______ _______ _____ _____    ______ ____
ROOT
ATOM      1  O   UNL     1      34.364 -14.977 -21.507  0.00  0.00    -0.450 OA
ATOM      2  O   UNL     1      34.314 -18.231 -23.968  0.00  0.00    -0.286 OA
ATOM      3  C   UNL     1      34.135 -15.894 -23.743  0.00  0.00    +0.107 C 
ATOM      4  C   UNL     1      34.597 -17.381 -21.762  0.00  0.00    +0.077 C 
ATOM      5  C   UNL     1      34.152 -14.820 -22.853  0.00  0.00    +0.154 C 
ATOM      6  C   UNL     1      34.350 -17.258 -23.225  0.00  0.00    +0.204 C 
ATOM      7  C   UNL     1      33.914 -15.674 -25.104  0.00  0.00    +0.143 C 
ATOM      8  C   UNL     1      34.584 -16.250 -21.040  0.00  0.00    +0.183 C 
ATOM      9  C   UNL     1      33.946 -13.521 -23.319  0.00  0.00    +0.074 C 
ATOM     10  C   UNL     1      33.708 -14.375 -25.569  0.00  0.00    +0.073 C 
ATOM     11  C   UNL     1      33.725 -13.301 -24.679  0.00  0.00    +0.140 C 
ENDROOT
BRANCH   4  12
ATOM     12  C   UNL     1      34.865 -18.680 -21.123  0.00  0.00    +0.006 C 
ATOM     13  C   UNL     1      36.179 -19.088 -20.890  0.00  0.00    +0.003 C 
ATOM     14  C   UNL     1      33.805 -19.507 -20.748  0.00  0.00    +0.003 C 
ATOM     15  C   UNL     1      36.433 -20.318 -20.284  0.00  0.00    +0.037 C 
ATOM     16  C   UNL     1      34.059 -20.738 -20.141  0.00  0.00    +0.037 C 
ATOM     17  C   UNL     1      35.373 -21.143 -19.909  0.00  0.00    +0.134 C 
BRANCH  17  18
ATOM     18  O   UNL     1      35.620 -22.344 -19.318  0.00  0.00    -0.506 OA
ATOM     19  H   UNL     1      35.721 -22.395 -18.388  0.00  0.00    +0.292 HD
ENDBRANCH  17  18
ENDBRANCH   4  12
BRANCH   7  20
ATOM     20  O   UNL     1      33.888 -16.686 -26.016  0.00  0.00    -0.505 OA
ATOM     21  H   UNL     1      33.565 -16.530 -26.881  0.00  0.00    +0.292 HD
ENDBRANCH   7  20
BRANCH  11  22
ATOM     22  O   UNL     1      33.523 -12.035 -25.138  0.00  0.00    -0.505 OA
ATOM     23  H   UNL     1      32.653 -11.696 -25.211  0.00  0.00    +0.292 HD
ENDBRANCH  11  22
TORSDOF 4
ENDMDL
MODEL 4
REMARK VINA RESULT:      -9.4      1.197      2.405
REMARK  Name = 5280961
REMARK  4 active torsions:
REMARK  status: ('A' for Active; 'I' for Inactive)
REMARK    1  A    between atoms: C_4  and  C_12
REMARK    2  A    between atoms: C_7  and  O_20
REMARK    3  A    between atoms: C_11  and  O_22
REMARK    4  A    between atoms: C_17  and  O_18
REMARK                            x       y       z     vdW  Elec       q    Type
REMARK                         _______ _______ _______ _____ _____    ______ ____
ROOT
ATOM      1  O   UNL     1      32.512 -20.961 -20.005  0.00  0.00    -0.450 OA
ATOM      2  O   UNL     1      36.429 -20.023 -20.655  0.00  0.00    -0.286 OA
ATOM      3  C   UNL     1      34.845 -21.223 -19.391  0.00  0.00    +0.107 C 
ATOM      4  C   UNL     1      34.160 -19.769 -21.331  0.00  0.00    +0.077 C 
ATOM      5  C   UNL     1      33.490 -21.499 -19.209  0.00  0.00    +0.154 C 
ATOM      6  C   UNL     1      35.253 -20.314 -20.480  0.00  0.00    +0.204 C 
ATOM      7  C   UNL     1      35.799 -21.799 -18.549  0.00  0.00    +0.143 C 
ATOM      8  C   UNL     1      32.905 -20.133 -21.028  0.00  0.00    +0.183 C 
ATOM      9  C   UNL     1      33.082 -22.352 -18.183  0.00  0.00    +0.074 C 
ATOM     10  C   UNL     1      35.388 -22.652 -17.524  0.00  0.00    +0.073 C 
ATOM     11  C   UNL     1      34.033 -22.928 -17.341  0.00  0.00    +0.140 C 
ENDROOT
BRANCH   4  12
ATOM     12  C   UNL     1      34.433 -18.883 -22.475  0.00  0.00    +0.006 C 
ATOM     13  C   UNL     1      34.468 -19.402 -23.770  0.00  0.00    +0.003 C 
ATOM     14  C   UNL     1      34.656 -17.520 -22.267  0.00  0.00    +0.003 C 
ATOM     15  C   UNL     1      34.725 -18.562 -24.854  0.00  0.00    +0.037 C 
ATOM     16  C   UNL     1      34.913 -16.680 -23.351  0.00  0.00    +0.037 C 
ATOM     17  C   UNL     1      34.947 -17.201 -24.644  0.00  0.00    +0.134 C 
BRANCH  17  18
ATOM     18  O   UNL     1      35.198 -16.381 -25.701  0.00  0.00    -0.506 OA
ATOM     19  H   UNL     1      36.066 -16.059 -25.847  0.00  0.00    +0.292 HD
ENDBRANCH  17  18
ENDBRANCH   4  12
BRANCH   7  20
ATOM     20  O   UNL     1      37.135 -21.565 -18.683  0.00  0.00    -0.505 OA
ATOM     21  H   UNL     1      37.474 -20.701 -18.556  0.00  0.00    +0.292 HD
ENDBRANCH   7  20
BRANCH  11  22
ATOM     22  O   UNL     1      33.638 -23.760 -16.339  0.00  0.00    -0.505 OA
ATOM     23  H   UNL     1      34.224 -23.957 -15.635  0.00  0.00    +0.292 HD
ENDBRANCH  11  22
TORSDOF 4
ENDMDL
MODEL 5
REMARK VINA RESULT:      -9.3      7.213      8.963
REMARK  Name = 5280961
REMARK  4 active torsions:
REMARK  status: ('A' for Active; 'I' for Inactive)
REMARK    1  A    between atoms: C_4  and  C_12
REMARK    2  A    between atoms: C_7  and  O_20
REMARK    3  A    between atoms: C_11  and  O_22
REMARK    4  A    between atoms: C_17  and  O_18
REMARK                            x       y       z     vdW  Elec       q    Type
REMARK                         _______ _______ _______ _____ _____    ______ ____
ROOT
ATOM      1  O   UNL     1      34.822 -23.510 -16.415  0.00  0.00    -0.450 OA
ATOM      2  O   UNL     1      32.646 -24.450 -13.095  0.00  0.00    -0.286 OA
ATOM      3  C   UNL     1      34.765 -24.226 -14.097  0.00  0.00    +0.107 C 
ATOM      4  C   UNL     1      32.646 -23.696 -15.353  0.00  0.00    +0.077 C 
ATOM      5  C   UNL     1      35.456 -23.904 -15.265  0.00  0.00    +0.154 C 
ATOM      6  C   UNL     1      33.292 -24.147 -14.089  0.00  0.00    +0.204 C 
ATOM      7  C   UNL     1      35.463 -24.622 -12.954  0.00  0.00    +0.143 C 
ATOM      8  C   UNL     1      33.451 -23.419 -16.390  0.00  0.00    +0.183 C 
ATOM      9  C   UNL     1      36.849 -23.976 -15.296  0.00  0.00    +0.074 C 
ATOM     10  C   UNL     1      36.856 -24.694 -12.987  0.00  0.00    +0.073 C 
ATOM     11  C   UNL     1      37.548 -24.372 -14.155  0.00  0.00    +0.140 C 
ENDROOT
BRANCH   4  12
ATOM     12  C   UNL     1      31.187 -23.536 -15.468  0.00  0.00    +0.006 C 
ATOM     13  C   UNL     1      30.577 -22.352 -15.049  0.00  0.00    +0.003 C 
ATOM     14  C   UNL     1      30.409 -24.567 -15.998  0.00  0.00    +0.003 C 
ATOM     15  C   UNL     1      29.195 -22.199 -15.160  0.00  0.00    +0.037 C 
ATOM     16  C   UNL     1      29.027 -24.414 -16.108  0.00  0.00    +0.037 C 
ATOM     17  C   UNL     1      28.420 -23.231 -15.690  0.00  0.00    +0.134 C 
BRANCH  17  18
ATOM     18  O   UNL     1      27.071 -23.083 -15.797  0.00  0.00    -0.506 OA
ATOM     19  H   UNL     1      26.510 -23.410 -15.122  0.00  0.00    +0.292 HD
ENDBRANCH  17  18
ENDBRANCH   4  12
BRANCH   7  20
ATOM     20  O   UNL     1      34.838 -24.947 -11.787  0.00  0.00    -0.505 OA
ATOM     21  H   UNL     1      35.308 -24.911 -10.978  0.00  0.00    +0.292 HD
ENDBRANCH   7  20
BRANCH  11  22
ATOM     22  O   UNL     1      38.907 -24.444 -14.181  0.00  0.00    -0.505 OA
ATOM     23  H   UNL     1      39.383 -24.618 -13.394  0.00  0.00    +0.292 HD
ENDBRANCH  11  22
TORSDOF 4
ENDMDL
MODEL 6
REMARK VINA RESULT:      -9.2      5.887     10.298
REMARK  Name = 5280961
REMARK  4 active torsions:
REMARK  status: ('A' for Active; 'I' for Inactive)
REMARK    1  A    between atoms: C_4  and  C_12
REMARK    2  A    between atoms: C_7  and  O_20
REMARK    3  A    between atoms: C_11  and  O_22
REMARK    4  A    between atoms: C_17  and  O_18
REMARK                            x       y       z     vdW  Elec       q    Type
REMARK                         _______ _______ _______ _____ _____    ______ ____
ROOT
ATOM      1  O   UNL     1      31.746 -11.267 -21.917  0.00  0.00    -0.450 OA
ATOM      2  O   UNL     1      34.569 -11.205 -24.863  0.00  0.00    -0.286 OA
ATOM      3  C   UNL     1      33.301 -10.001 -23.285  0.00  0.00    +0.107 C 
ATOM      4  C   UNL     1      33.097 -12.502 -23.513  0.00  0.00    +0.077 C 
ATOM      5  C   UNL     1      32.324 -10.082 -22.293  0.00  0.00    +0.154 C 
ATOM      6  C   UNL     1      33.735 -11.235 -23.966  0.00  0.00    +0.204 C 
ATOM      7  C   UNL     1      33.854  -8.765 -23.627  0.00  0.00    +0.143 C 
ATOM      8  C   UNL     1      32.174 -12.413 -22.544  0.00  0.00    +0.183 C 
ATOM      9  C   UNL     1      31.895  -8.927 -21.639  0.00  0.00    +0.074 C 
ATOM     10  C   UNL     1      33.423  -7.612 -22.972  0.00  0.00    +0.073 C 
ATOM     11  C   UNL     1      32.446  -7.691 -21.980  0.00  0.00    +0.140 C 
ENDROOT
BRANCH   4  12
ATOM     12  C   UNL     1      33.468 -13.808 -24.082  0.00  0.00    +0.006 C 
ATOM     13  C   UNL     1      34.299 -14.673 -23.367  0.00  0.00    +0.003 C 
ATOM     14  C   UNL     1      32.990 -14.186 -25.339  0.00  0.00    +0.003 C 
ATOM     15  C   UNL     1      34.649 -15.911 -23.906  0.00  0.00    +0.037 C 
ATOM     16  C   UNL     1      33.341 -15.424 -25.877  0.00  0.00    +0.037 C 
ATOM     17  C   UNL     1      34.170 -16.287 -25.161  0.00  0.00    +0.134 C 
BRANCH  17  18
ATOM     18  O   UNL     1      34.512 -17.495 -25.687  0.00  0.00    -0.506 OA
ATOM     19  H   UNL     1      35.351 -17.609 -26.088  0.00  0.00    +0.292 HD
ENDBRANCH  17  18
ENDBRANCH   4  12
BRANCH   7  20
ATOM     20  O   UNL     1      34.812  -8.630 -24.588  0.00  0.00    -0.505 OA
ATOM     21  H   UNL     1      34.567  -8.430 -25.469  0.00  0.00    +0.292 HD
ENDBRANCH   7  20
BRANCH  11  22
ATOM     22  O   UNL     1      32.029  -6.562 -21.344  0.00  0.00    -0.505 OA
ATOM     23  H   UNL     1      31.444  -6.623 -20.616  0.00  0.00    +0.292 HD
ENDBRANCH  11  22
TORSDOF 4
ENDMDL
MODEL 7
REMARK VINA RESULT:      -9.2      5.892     10.277
REMARK  Name = 5280961
REMARK  4 active torsions:
REMARK  status: ('A' for Active; 'I' for Inactive)
REMARK    1  A    between atoms: C_4  and  C_12
REMARK    2  A    between atoms: C_7  and  O_20
REMARK    3  A    between atoms: C_11  and  O_22
REMARK    4  A    between atoms: C_17  and  O_18
REMARK                            x       y       z     vdW  Elec       q    Type
REMARK                         _______ _______ _______ _____ _____    ______ ____
ROOT
ATOM      1  O   UNL     1      31.743 -11.268 -21.921  0.00  0.00    -0.450 OA
ATOM      2  O   UNL     1      34.567 -11.208 -24.866  0.00  0.00    -0.286 OA
ATOM      3  C   UNL     1      33.300 -10.004 -23.288  0.00  0.00    +0.107 C 
ATOM      4  C   UNL     1      33.093 -12.504 -23.517  0.00  0.00    +0.077 C 
ATOM      5  C   UNL     1      32.323 -10.083 -22.297  0.00  0.00    +0.154 C 
ATOM      6  C   UNL     1      33.734 -11.238 -23.969  0.00  0.00    +0.204 C 
ATOM      7  C   UNL     1      33.856  -8.768 -23.630  0.00  0.00    +0.143 C 
ATOM      8  C   UNL     1      32.170 -12.414 -22.548  0.00  0.00    +0.183 C 
ATOM      9  C   UNL     1      31.895  -8.928 -21.642  0.00  0.00    +0.074 C 
ATOM     10  C   UNL     1      33.426  -7.614 -22.974  0.00  0.00    +0.073 C 
ATOM     11  C   UNL     1      32.449  -7.693 -21.982  0.00  0.00    +0.140 C 
ENDROOT
BRANCH   4  12
ATOM     12  C   UNL     1      33.463 -13.810 -24.087  0.00  0.00    +0.006 C 
ATOM     13  C   UNL     1      32.981 -14.189 -25.341  0.00  0.00    +0.003 C 
ATOM     14  C   UNL     1      34.296 -14.675 -23.374  0.00  0.00    +0.003 C 
ATOM     15  C   UNL     1      33.332 -15.426 -25.881  0.00  0.00    +0.037 C 
ATOM     16  C   UNL     1      34.647 -15.912 -23.914  0.00  0.00    +0.037 C 
ATOM     17  C   UNL     1      34.165 -16.288 -25.168  0.00  0.00    +0.134 C 
BRANCH  17  18
ATOM     18  O   UNL     1      34.507 -17.495 -25.694  0.00  0.00    -0.506 OA
ATOM     19  H   UNL     1      34.336 -18.281 -25.213  0.00  0.00    +0.292 HD
ENDBRANCH  17  18
ENDBRANCH   4  12
BRANCH   7  20
ATOM     20  O   UNL     1      34.814  -8.634 -24.590  0.00  0.00    -0.505 OA
ATOM     21  H   UNL     1      34.570  -8.428 -25.470  0.00  0.00    +0.292 HD
ENDBRANCH   7  20
BRANCH  11  22
ATOM     22  O   UNL     1      32.033  -6.563 -21.346  0.00  0.00    -0.505 OA
ATOM     23  H   UNL     1      31.378  -6.020 -21.737  0.00  0.00    +0.292 HD
ENDBRANCH  11  22
TORSDOF 4
ENDMDL
MODEL 8
REMARK VINA RESULT:      -9.1      7.053      9.748
REMARK  Name = 5280961
REMARK  4 active torsions:
REMARK  status: ('A' for Active; 'I' for Inactive)
REMARK    1  A    between atoms: C_4  and  C_12
REMARK    2  A    between atoms: C_7  and  O_20
REMARK    3  A    between atoms: C_11  and  O_22
REMARK    4  A    between atoms: C_17  and  O_18
REMARK                            x       y       z     vdW  Elec       q    Type
REMARK                         _______ _______ _______ _____ _____    ______ ____
ROOT
ATOM      1  O   UNL     1      33.190 -23.152 -16.974  0.00  0.00    -0.450 OA
ATOM      2  O   UNL     1      33.325 -24.480 -13.119  0.00  0.00    -0.286 OA
ATOM      3  C   UNL     1      32.042 -23.590 -14.881  0.00  0.00    +0.107 C 
ATOM      4  C   UNL     1      34.489 -24.116 -15.163  0.00  0.00    +0.077 C 
ATOM      5  C   UNL     1      32.058 -23.139 -16.201  0.00  0.00    +0.154 C 
ATOM      6  C   UNL     1      33.289 -24.102 -14.283  0.00  0.00    +0.204 C 
ATOM      7  C   UNL     1      30.858 -23.553 -14.141  0.00  0.00    +0.143 C 
ATOM      8  C   UNL     1      34.341 -23.650 -16.412  0.00  0.00    +0.183 C 
ATOM      9  C   UNL     1      30.891 -22.647 -16.786  0.00  0.00    +0.074 C 
ATOM     10  C   UNL     1      29.693 -23.061 -14.728  0.00  0.00    +0.073 C 
ATOM     11  C   UNL     1      29.708 -22.609 -16.048  0.00  0.00    +0.140 C 
ENDROOT
BRANCH   4  12
ATOM     12  C   UNL     1      35.787 -24.637 -14.703  0.00  0.00    +0.006 C 
ATOM     13  C   UNL     1      36.195 -25.922 -15.066  0.00  0.00    +0.003 C 
ATOM     14  C   UNL     1      36.614 -23.848 -13.902  0.00  0.00    +0.003 C 
ATOM     15  C   UNL     1      37.425 -26.415 -14.631  0.00  0.00    +0.037 C 
ATOM     16  C   UNL     1      37.844 -24.341 -13.467  0.00  0.00    +0.037 C 
ATOM     17  C   UNL     1      38.250 -25.624 -13.831  0.00  0.00    +0.134 C 
BRANCH  17  18
ATOM     18  O   UNL     1      39.450 -26.105 -13.406  0.00  0.00    -0.506 OA
ATOM     19  H   UNL     1      40.196 -26.066 -13.971  0.00  0.00    +0.292 HD
ENDBRANCH  17  18
ENDBRANCH   4  12
BRANCH   7  20
ATOM     20  O   UNL     1      30.786 -23.982 -12.849  0.00  0.00    -0.505 OA
ATOM     21  H   UNL     1      30.180 -24.655 -12.612  0.00  0.00    +0.292 HD
ENDBRANCH   7  20
BRANCH  11  22
ATOM     22  O   UNL     1      28.567 -22.129 -16.615  0.00  0.00    -0.505 OA
ATOM     23  H   UNL     1      28.617 -21.540 -17.342  0.00  0.00    +0.292 HD
ENDBRANCH  11  22
TORSDOF 4
ENDMDL
MODEL 9
REMARK VINA RESULT:      -9.1      4.044      6.977
REMARK  Name = 5280961
REMARK  4 active torsions:
REMARK  status: ('A' for Active; 'I' for Inactive)
REMARK    1  A    between atoms: C_4  and  C_12
REMARK    2  A    between atoms: C_7  and  O_20
REMARK    3  A    between atoms: C_11  and  O_22
REMARK    4  A    between atoms: C_17  and  O_18
REMARK                            x       y       z     vdW  Elec       q    Type
REMARK                         _______ _______ _______ _____ _____    ______ ____
ROOT
ATOM      1  O   UNL     1      33.513 -15.516 -25.661  0.00  0.00    -0.450 OA
ATOM      2  O   UNL     1      34.405 -14.328 -21.861  0.00  0.00    -0.286 OA
ATOM      3  C   UNL     1      34.379 -16.057 -23.459  0.00  0.00    +0.107 C 
ATOM      4  C   UNL     1      33.593 -13.730 -24.018  0.00  0.00    +0.077 C 
ATOM      5  C   UNL     1      34.045 -16.409 -24.767  0.00  0.00    +0.154 C 
ATOM      6  C   UNL     1      34.153 -14.671 -23.009  0.00  0.00    +0.204 C 
ATOM      7  C   UNL     1      34.918 -17.010 -22.591  0.00  0.00    +0.143 C 
ATOM      8  C   UNL     1      33.326 -14.223 -25.237  0.00  0.00    +0.183 C 
ATOM      9  C   UNL     1      34.246 -17.716 -25.212  0.00  0.00    +0.074 C 
ATOM     10  C   UNL     1      35.118 -18.316 -23.039  0.00  0.00    +0.073 C 
ATOM     11  C   UNL     1      34.784 -18.669 -24.346  0.00  0.00    +0.140 C 
ENDROOT
BRANCH   4  12
ATOM     12  C   UNL     1      33.355 -12.310 -23.711  0.00  0.00    +0.006 C 
ATOM     13  C   UNL     1      34.127 -11.322 -24.325  0.00  0.00    +0.003 C 
ATOM     14  C   UNL     1      32.357 -11.946 -22.805  0.00  0.00    +0.003 C 
ATOM     15  C   UNL     1      33.901  -9.976 -24.035  0.00  0.00    +0.037 C 
ATOM     16  C   UNL     1      32.131 -10.601 -22.515  0.00  0.00    +0.037 C 
ATOM     17  C   UNL     1      32.903  -9.616 -23.131  0.00  0.00    +0.134 C 
BRANCH  17  18
ATOM     18  O   UNL     1      32.683  -8.303 -22.847  0.00  0.00    -0.506 OA
ATOM     19  H   UNL     1      33.406  -7.735 -22.668  0.00  0.00    +0.292 HD
ENDBRANCH  17  18
ENDBRANCH   4  12
BRANCH   7  20
ATOM     20  O   UNL     1      35.263 -16.719 -21.305  0.00  0.00    -0.505 OA
ATOM     21  H   UNL     1      35.566 -15.861 -21.083  0.00  0.00    +0.292 HD
ENDBRANCH   7  20
BRANCH  11  22
ATOM     22  O   UNL     1      34.981 -19.945 -24.778  0.00  0.00    -0.505 OA
ATOM     23  H   UNL     1      34.383 -20.332 -25.386  0.00  0.00    +0.292 HD
ENDBRANCH  11  22
TORSDOF 4
ENDMDL
