MODEL 1
REMARK VINA RESULT:      -8.0      0.000      0.000
REMARK  Name = 444766
REMARK  5 active torsions:
REMARK  status: ('A' for Active; 'I' for Inactive)
REMARK    1  A    between atoms: C_8  and  C_21
REMARK    2  A    between atoms: C_9  and  N_13
REMARK    3  A    between atoms: C_14  and  C_17
REMARK    4  A    between atoms: C_17  and  O_18
REMARK    5  A    between atoms: C_21  and  O_22
REMARK                            x       y       z     vdW  Elec       q    Type
REMARK                         _______ _______ _______ _____ _____    ______ ____
ROOT
ATOM      1  S   UNL     1      36.480 -23.718 -15.722  0.00  0.00    -0.079 S 
ATOM      2  N   UNL     1      32.445 -23.555 -15.305  0.00  0.00    +0.387 N 
ATOM      3  C   UNL     1      34.797 -24.203 -13.841  0.00  0.00    -0.016 A 
ATOM      4  C   UNL     1      33.475 -24.275 -13.143  0.00  0.00    +0.003 C 
ATOM      5  C   UNL     1      34.892 -23.689 -15.119  0.00  0.00    -0.017 A 
ATOM      6  C   UNL     1      32.432 -23.381 -13.842  0.00  0.00    -0.076 C 
ATOM      7  C   UNL     1      33.735 -23.131 -15.886  0.00  0.00    -0.048 C 
ATOM      8  C   UNL     1      36.063 -24.636 -13.355  0.00  0.00    +0.091 A 
ATOM      9  C   UNL     1      37.067 -24.431 -14.278  0.00  0.00    +0.087 A 
ATOM     10  H   UNL     1      31.697 -22.995 -15.713  0.00  0.00    -0.084 HD
ATOM     11  H   UNL     1      32.309 -24.545 -15.512  0.00  0.00    -0.084 HD
ENDROOT
BRANCH   9  13
ATOM     12  O   UNL     1      38.523 -27.016 -14.671  0.00  0.00    -0.263 OA
ATOM     13  N   UNL     1      38.410 -24.694 -14.227  0.00  0.00    -0.270 N 
ATOM     14  C   UNL     1      39.025 -25.933 -14.422  0.00  0.00    +0.326 C 
ATOM     15  H   UNL     1      39.002 -23.931 -14.035  0.00  0.00    +0.156 HD
BRANCH  14  17
ATOM     16  O   UNL     1      41.219 -26.789 -13.920  0.00  0.00    -0.240 OA
ATOM     17  C   UNL     1      40.534 -25.857 -14.293  0.00  0.00    +0.393 C 
BRANCH  17  18
ATOM     18  O   UNL     1      40.968 -24.635 -14.642  0.00  0.00    -0.474 OA
ATOM     19  H   UNL     1      40.509 -23.873 -14.350  0.00  0.00    +0.296 HD
ENDBRANCH  17  18
ENDBRANCH  14  17
ENDBRANCH   9  13
BRANCH   8  21
ATOM     20  O   UNL     1      36.107 -24.656 -10.979  0.00  0.00    -0.245 OA
ATOM     21  C   UNL     1      36.308 -25.222 -12.060  0.00  0.00    +0.339 C 
BRANCH  21  22
ATOM     22  O   UNL     1      36.799 -26.500 -12.093  0.00  0.00    -0.477 OA
ATOM     23  H   UNL     1      36.540 -27.084 -12.777  0.00  0.00    +0.295 HD
ENDBRANCH  21  22
ENDBRANCH   8  21
TORSDOF 5
ENDMDL
MODEL 2
REMARK VINA RESULT:      -8.0      5.389      8.049
REMARK  Name = 444766
REMARK  5 active torsions:
REMARK  status: ('A' for Active; 'I' for Inactive)
REMARK    1  A    between atoms: C_8  and  C_21
REMARK    2  A    between atoms: C_9  and  N_13
REMARK    3  A    between atoms: C_14  and  C_17
REMARK    4  A    between atoms: C_17  and  O_18
REMARK    5  A    between atoms: C_21  and  O_22
REMARK                            x       y       z     vdW  Elec       q    Type
REMARK                         _______ _______ _______ _____ _____    ______ ____
ROOT
ATOM      1  S   UNL     1      31.763 -23.467 -14.103  0.00  0.00    -0.079 S 
ATOM      2  N   UNL     1      35.517 -24.829 -13.376  0.00  0.00    +0.387 N 
ATOM      3  C   UNL     1      33.918 -23.762 -15.472  0.00  0.00    -0.016 A 
ATOM      4  C   UNL     1      35.355 -24.072 -15.754  0.00  0.00    +0.003 C 
ATOM      5  C   UNL     1      33.416 -23.846 -14.189  0.00  0.00    -0.017 A 
ATOM      6  C   UNL     1      36.183 -24.077 -14.454  0.00  0.00    -0.076 C 
ATOM      7  C   UNL     1      34.239 -24.198 -12.989  0.00  0.00    -0.048 C 
ATOM      8  C   UNL     1      32.911 -23.382 -16.404  0.00  0.00    +0.091 A 
ATOM      9  C   UNL     1      31.689 -23.190 -15.793  0.00  0.00    +0.087 A 
ATOM     10  H   UNL     1      36.132 -24.859 -12.562  0.00  0.00    -0.084 HD
ATOM     11  H   UNL     1      35.321 -25.771 -13.714  0.00  0.00    -0.084 HD
ENDROOT
BRANCH   9  13
ATOM     12  O   UNL     1      29.129 -24.736 -15.912  0.00  0.00    -0.263 OA
ATOM     13  N   UNL     1      30.471 -22.826 -16.301  0.00  0.00    -0.270 N 
ATOM     14  C   UNL     1      29.311 -23.603 -16.324  0.00  0.00    +0.326 C 
ATOM     15  H   UNL     1      30.407 -21.923 -16.690  0.00  0.00    +0.156 HD
BRANCH  14  17
ATOM     16  O   UNL     1      27.869 -21.718 -16.734  0.00  0.00    -0.240 OA
ATOM     17  C   UNL     1      28.142 -22.879 -16.965  0.00  0.00    +0.393 C 
BRANCH  17  18
ATOM     18  O   UNL     1      27.486 -23.705 -17.796  0.00  0.00    -0.474 OA
ATOM     19  H   UNL     1      27.921 -24.057 -18.547  0.00  0.00    +0.296 HD
ENDBRANCH  17  18
ENDBRANCH  14  17
ENDBRANCH   9  13
BRANCH   8  21
ATOM     20  O   UNL     1      33.813 -23.929 -18.534  0.00  0.00    -0.245 OA
ATOM     21  C   UNL     1      33.104 -23.207 -17.822  0.00  0.00    +0.339 C 
BRANCH  21  22
ATOM     22  O   UNL     1      32.429 -22.147 -18.366  0.00  0.00    -0.477 OA
ATOM     23  H   UNL     1      31.500 -22.187 -18.471  0.00  0.00    +0.295 HD
ENDBRANCH  21  22
ENDBRANCH   8  21
TORSDOF 5
ENDMDL
MODEL 3
REMARK VINA RESULT:      -8.0      5.295      7.926
REMARK  Name = 444766
REMARK  5 active torsions:
REMARK  status: ('A' for Active; 'I' for Inactive)
REMARK    1  A    between atoms: C_8  and  C_21
REMARK    2  A    between atoms: C_9  and  N_13
REMARK    3  A    between atoms: C_14  and  C_17
REMARK    4  A    between atoms: C_17  and  O_18
REMARK    5  A    between atoms: C_21  and  O_22
REMARK                            x       y       z     vdW  Elec       q    Type
REMARK                         _______ _______ _______ _____ _____    ______ ____
ROOT
ATOM      1  S   UNL     1      32.684 -22.957 -17.015  0.00  0.00    -0.079 S 
ATOM      2  N   UNL     1      35.899 -23.191 -14.547  0.00  0.00    +0.387 N 
ATOM      3  C   UNL     1      33.134 -23.853 -14.648  0.00  0.00    -0.016 A 
ATOM      4  C   UNL     1      33.918 -24.232 -13.430  0.00  0.00    +0.003 C 
ATOM      5  C   UNL     1      33.765 -23.331 -15.759  0.00  0.00    -0.017 A 
ATOM      6  C   UNL     1      35.421 -24.337 -13.753  0.00  0.00    -0.076 C 
ATOM      7  C   UNL     1      35.246 -23.144 -15.871  0.00  0.00    -0.048 C 
ATOM      8  C   UNL     1      31.725 -23.937 -14.837  0.00  0.00    +0.091 A 
ATOM      9  C   UNL     1      31.344 -23.482 -16.083  0.00  0.00    +0.087 A 
ATOM     10  H   UNL     1      36.907 -23.274 -14.677  0.00  0.00    -0.084 HD
ATOM     11  H   UNL     1      35.669 -22.334 -14.044  0.00  0.00    -0.084 HD
ENDROOT
BRANCH   9  13
ATOM     12  O   UNL     1      28.939 -21.910 -15.244  0.00  0.00    -0.263 OA
ATOM     13  N   UNL     1      30.113 -23.387 -16.673  0.00  0.00    -0.270 N 
ATOM     14  C   UNL     1      29.029 -22.629 -16.224  0.00  0.00    +0.326 C 
ATOM     15  H   UNL     1      29.978 -23.906 -17.500  0.00  0.00    +0.156 HD
BRANCH  14  17
ATOM     16  O   UNL     1      27.497 -23.802 -17.666  0.00  0.00    -0.240 OA
ATOM     17  C   UNL     1      27.818 -22.760 -17.127  0.00  0.00    +0.393 C 
BRANCH  17  18
ATOM     18  O   UNL     1      27.186 -21.580 -17.229  0.00  0.00    -0.474 OA
ATOM     19  H   UNL     1      27.584 -20.875 -17.699  0.00  0.00    +0.296 HD
ENDBRANCH  17  18
ENDBRANCH  14  17
ENDBRANCH   9  13
BRANCH   8  21
ATOM     20  O   UNL     1      30.626 -23.979 -12.731  0.00  0.00    -0.245 OA
ATOM     21  C   UNL     1      30.778 -24.434 -13.870  0.00  0.00    +0.339 C 
BRANCH  21  22
ATOM     22  O   UNL     1      30.018 -25.489 -14.303  0.00  0.00    -0.477 OA
ATOM     23  H   UNL     1      30.219 -25.910 -15.114  0.00  0.00    +0.295 HD
ENDBRANCH  21  22
ENDBRANCH   8  21
TORSDOF 5
ENDMDL
MODEL 4
REMARK VINA RESULT:      -7.8      2.889      3.877
REMARK  Name = 444766
REMARK  5 active torsions:
REMARK  status: ('A' for Active; 'I' for Inactive)
REMARK    1  A    between atoms: C_8  and  C_21
REMARK    2  A    between atoms: C_9  and  N_13
REMARK    3  A    between atoms: C_14  and  C_17
REMARK    4  A    between atoms: C_17  and  O_18
REMARK    5  A    between atoms: C_21  and  O_22
REMARK                            x       y       z     vdW  Elec       q    Type
REMARK                         _______ _______ _______ _____ _____    ______ ____
ROOT
ATOM      1  S   UNL     1      37.197 -22.083 -16.254  0.00  0.00    -0.079 S 
ATOM      2  N   UNL     1      35.161 -22.120 -19.766  0.00  0.00    +0.387 N 
ATOM      3  C   UNL     1      34.830 -22.741 -17.010  0.00  0.00    -0.016 A 
ATOM      4  C   UNL     1      33.660 -22.909 -17.928  0.00  0.00    +0.003 C 
ATOM      5  C   UNL     1      35.998 -22.157 -17.455  0.00  0.00    -0.017 A 
ATOM      6  C   UNL     1      33.812 -22.025 -19.181  0.00  0.00    -0.076 C 
ATOM      7  C   UNL     1      36.188 -21.609 -18.836  0.00  0.00    -0.048 C 
ATOM      8  C   UNL     1      34.933 -23.144 -15.648  0.00  0.00    +0.091 A 
ATOM      9  C   UNL     1      36.169 -22.846 -15.114  0.00  0.00    +0.087 A 
ATOM     10  H   UNL     1      35.191 -21.572 -20.626  0.00  0.00    -0.084 HD
ATOM     11  H   UNL     1      35.360 -23.102 -19.957  0.00  0.00    -0.084 HD
ENDROOT
BRANCH   9  13
ATOM     12  O   UNL     1      38.074 -24.948 -14.159  0.00  0.00    -0.263 OA
ATOM     13  N   UNL     1      36.688 -23.052 -13.864  0.00  0.00    -0.270 N 
ATOM     14  C   UNL     1      37.578 -24.060 -13.487  0.00  0.00    +0.326 C 
ATOM     15  H   UNL     1      36.405 -22.425 -13.159  0.00  0.00    +0.156 HD
BRANCH  14  17
ATOM     16  O   UNL     1      37.795 -24.917 -11.246  0.00  0.00    -0.240 OA
ATOM     17  C   UNL     1      37.944 -23.989 -12.017  0.00  0.00    +0.393 C 
BRANCH  17  18
ATOM     18  O   UNL     1      38.439 -22.776 -11.721  0.00  0.00    -0.474 OA
ATOM     19  H   UNL     1      38.871 -22.634 -10.902  0.00  0.00    +0.296 HD
ENDBRANCH  17  18
ENDBRANCH  14  17
ENDBRANCH   9  13
BRANCH   8  21
ATOM     20  O   UNL     1      32.764 -23.319 -14.693  0.00  0.00    -0.245 OA
ATOM     21  C   UNL     1      33.892 -23.786 -14.883  0.00  0.00    +0.339 C 
BRANCH  21  22
ATOM     22  O   UNL     1      34.237 -25.001 -14.353  0.00  0.00    -0.477 OA
ATOM     23  H   UNL     1      33.889 -25.268 -13.526  0.00  0.00    +0.295 HD
ENDBRANCH  21  22
ENDBRANCH   8  21
TORSDOF 5
ENDMDL
MODEL 5
REMARK VINA RESULT:      -7.6      2.472      4.099
REMARK  Name = 444766
REMARK  5 active torsions:
REMARK  status: ('A' for Active; 'I' for Inactive)
REMARK    1  A    between atoms: C_8  and  C_21
REMARK    2  A    between atoms: C_9  and  N_13
REMARK    3  A    between atoms: C_14  and  C_17
REMARK    4  A    between atoms: C_17  and  O_18
REMARK    5  A    between atoms: C_21  and  O_22
REMARK                            x       y       z     vdW  Elec       q    Type
REMARK                         _______ _______ _______ _____ _____    ______ ____
ROOT
ATOM      1  S   UNL     1      33.846 -23.880 -15.168  0.00  0.00    -0.079 S 
ATOM      2  N   UNL     1      32.795 -22.122 -18.673  0.00  0.00    +0.387 N 
ATOM      3  C   UNL     1      35.079 -22.665 -17.068  0.00  0.00    -0.016 A 
ATOM      4  C   UNL     1      35.275 -21.980 -18.384  0.00  0.00    +0.003 C 
ATOM      5  C   UNL     1      33.842 -23.159 -16.706  0.00  0.00    -0.017 A 
ATOM      6  C   UNL     1      34.101 -22.275 -19.338  0.00  0.00    -0.076 C 
ATOM      7  C   UNL     1      32.629 -23.103 -17.581  0.00  0.00    -0.048 C 
ATOM      8  C   UNL     1      36.048 -22.882 -16.046  0.00  0.00    +0.091 A 
ATOM      9  C   UNL     1      35.511 -23.533 -14.956  0.00  0.00    +0.087 A 
ATOM     10  H   UNL     1      32.053 -22.262 -19.360  0.00  0.00    -0.084 HD
ATOM     11  H   UNL     1      32.745 -21.185 -18.274  0.00  0.00    -0.084 HD
ENDROOT
BRANCH   9  13
ATOM     12  O   UNL     1      37.059 -26.016 -14.324  0.00  0.00    -0.263 OA
ATOM     13  N   UNL     1      36.075 -23.935 -13.774  0.00  0.00    -0.270 N 
ATOM     14  C   UNL     1      36.788 -25.114 -13.549  0.00  0.00    +0.326 C 
ATOM     15  H   UNL     1      35.966 -23.329 -13.006  0.00  0.00    +0.156 HD
BRANCH  14  17
ATOM     16  O   UNL     1      37.668 -24.288 -11.465  0.00  0.00    -0.240 OA
ATOM     17  C   UNL     1      37.270 -25.234 -12.116  0.00  0.00    +0.393 C 
BRANCH  17  18
ATOM     18  O   UNL     1      37.188 -26.509 -11.705  0.00  0.00    -0.474 OA
ATOM     19  H   UNL     1      37.788 -27.148 -12.036  0.00  0.00    +0.296 HD
ENDBRANCH  17  18
ENDBRANCH  14  17
ENDBRANCH   9  13
BRANCH   8  21
ATOM     20  O   UNL     1      37.831 -21.339 -16.347  0.00  0.00    -0.245 OA
ATOM     21  C   UNL     1      37.433 -22.485 -16.108  0.00  0.00    +0.339 C 
BRANCH  21  22
ATOM     22  O   UNL     1      38.329 -23.495 -15.877  0.00  0.00    -0.477 OA
ATOM     23  H   UNL     1      38.024 -24.368 -15.729  0.00  0.00    +0.295 HD
ENDBRANCH  21  22
ENDBRANCH   8  21
TORSDOF 5
ENDMDL
MODEL 6
REMARK VINA RESULT:      -7.5     10.580     12.122
REMARK  Name = 444766
REMARK  5 active torsions:
REMARK  status: ('A' for Active; 'I' for Inactive)
REMARK    1  A    between atoms: C_8  and  C_21
REMARK    2  A    between atoms: C_9  and  N_13
REMARK    3  A    between atoms: C_14  and  C_17
REMARK    4  A    between atoms: C_17  and  O_18
REMARK    5  A    between atoms: C_21  and  O_22
REMARK                            x       y       z     vdW  Elec       q    Type
REMARK                         _______ _______ _______ _____ _____    ______ ____
ROOT
ATOM      1  S   UNL     1      34.818 -17.562 -24.130  0.00  0.00    -0.079 S 
ATOM      2  N   UNL     1      32.777 -14.493 -25.833  0.00  0.00    +0.387 N 
ATOM      3  C   UNL     1      33.789 -15.351 -23.317  0.00  0.00    -0.016 A 
ATOM      4  C   UNL     1      33.109 -14.021 -23.400  0.00  0.00    +0.003 C 
ATOM      5  C   UNL     1      34.056 -16.080 -24.458  0.00  0.00    -0.017 A 
ATOM      6  C   UNL     1      33.147 -13.470 -24.839  0.00  0.00    -0.076 C 
ATOM      7  C   UNL     1      33.746 -15.608 -25.845  0.00  0.00    -0.048 C 
ATOM      8  C   UNL     1      34.216 -16.039 -22.145  0.00  0.00    +0.091 A 
ATOM      9  C   UNL     1      34.793 -17.256 -22.444  0.00  0.00    +0.087 A 
ATOM     10  H   UNL     1      32.754 -14.064 -26.759  0.00  0.00    -0.084 HD
ATOM     11  H   UNL     1      31.861 -14.867 -25.585  0.00  0.00    -0.084 HD
ENDROOT
BRANCH   9  13
ATOM     12  O   UNL     1      33.556 -19.768 -21.386  0.00  0.00    -0.263 OA
ATOM     13  N   UNL     1      35.332 -18.223 -21.638  0.00  0.00    -0.270 N 
ATOM     14  C   UNL     1      34.693 -19.378 -21.180  0.00  0.00    +0.326 C 
ATOM     15  H   UNL     1      36.266 -18.092 -21.354  0.00  0.00    +0.156 HD
BRANCH  14  17
ATOM     16  O   UNL     1      36.721 -19.901 -19.992  0.00  0.00    -0.240 OA
ATOM     17  C   UNL     1      35.593 -20.228 -20.304  0.00  0.00    +0.393 C 
BRANCH  17  18
ATOM     18  O   UNL     1      34.960 -21.357 -19.948  0.00  0.00    -0.474 OA
ATOM     19  H   UNL     1      35.312 -22.189 -20.194  0.00  0.00    +0.296 HD
ENDBRANCH  17  18
ENDBRANCH  14  17
ENDBRANCH   9  13
BRANCH   8  21
ATOM     20  O   UNL     1      35.025 -15.348 -20.021  0.00  0.00    -0.245 OA
ATOM     21  C   UNL     1      34.083 -15.555 -20.794  0.00  0.00    +0.339 C 
BRANCH  21  22
ATOM     22  O   UNL     1      32.793 -15.325 -20.392  0.00  0.00    -0.477 OA
ATOM     23  H   UNL     1      32.504 -15.623 -19.553  0.00  0.00    +0.295 HD
ENDBRANCH  21  22
ENDBRANCH   8  21
TORSDOF 5
ENDMDL
MODEL 7
REMARK VINA RESULT:      -7.4      2.822      4.466
REMARK  Name = 444766
REMARK  5 active torsions:
REMARK  status: ('A' for Active; 'I' for Inactive)
REMARK    1  A    between atoms: C_8  and  C_21
REMARK    2  A    between atoms: C_9  and  N_13
REMARK    3  A    between atoms: C_14  and  C_17
REMARK    4  A    between atoms: C_17  and  O_18
REMARK    5  A    between atoms: C_21  and  O_22
REMARK                            x       y       z     vdW  Elec       q    Type
REMARK                         _______ _______ _______ _____ _____    ______ ____
ROOT
ATOM      1  S   UNL     1      36.588 -22.467 -15.703  0.00  0.00    -0.079 S 
ATOM      2  N   UNL     1      35.145 -22.300 -19.494  0.00  0.00    +0.387 N 
ATOM      3  C   UNL     1      34.310 -22.848 -16.832  0.00  0.00    -0.016 A 
ATOM      4  C   UNL     1      33.288 -22.886 -17.925  0.00  0.00    +0.003 C 
ATOM      5  C   UNL     1      35.595 -22.410 -17.081  0.00  0.00    -0.017 A 
ATOM      6  C   UNL     1      33.741 -22.040 -19.131  0.00  0.00    -0.076 C 
ATOM      7  C   UNL     1      36.065 -21.904 -18.408  0.00  0.00    -0.048 C 
ATOM      8  C   UNL     1      34.146 -23.246 -15.474  0.00  0.00    +0.091 A 
ATOM      9  C   UNL     1      35.309 -23.091 -14.748  0.00  0.00    +0.087 A 
ATOM     10  H   UNL     1      35.376 -21.768 -20.334  0.00  0.00    -0.084 HD
ATOM     11  H   UNL     1      35.255 -23.300 -19.659  0.00  0.00    -0.084 HD
ENDROOT
BRANCH   9  13
ATOM     12  O   UNL     1      36.424 -25.560 -13.476  0.00  0.00    -0.263 OA
ATOM     13  N   UNL     1      35.594 -23.344 -13.433  0.00  0.00    -0.270 N 
ATOM     14  C   UNL     1      36.117 -24.527 -12.906  0.00  0.00    +0.326 C 
ATOM     15  H   UNL     1      35.413 -22.617 -12.794  0.00  0.00    +0.156 HD
BRANCH  14  17
ATOM     16  O   UNL     1      37.252 -23.902 -10.876  0.00  0.00    -0.240 OA
ATOM     17  C   UNL     1      36.307 -24.457 -11.403  0.00  0.00    +0.393 C 
BRANCH  17  18
ATOM     18  O   UNL     1      35.299 -25.087 -10.778  0.00  0.00    -0.474 OA
ATOM     19  H   UNL     1      35.473 -25.844 -10.255  0.00  0.00    +0.296 HD
ENDBRANCH  17  18
ENDBRANCH  14  17
ENDBRANCH   9  13
BRANCH   8  21
ATOM     20  O   UNL     1      32.824 -24.835 -14.301  0.00  0.00    -0.245 OA
ATOM     21  C   UNL     1      32.929 -23.753 -14.890  0.00  0.00    +0.339 C 
BRANCH  21  22
ATOM     22  O   UNL     1      31.842 -22.932 -15.029  0.00  0.00    -0.477 OA
ATOM     23  H   UNL     1      31.446 -22.546 -14.273  0.00  0.00    +0.295 HD
ENDBRANCH  21  22
ENDBRANCH   8  21
TORSDOF 5
ENDMDL
MODEL 8
REMARK VINA RESULT:      -7.4     12.452     14.232
REMARK  Name = 444766
REMARK  5 active torsions:
REMARK  status: ('A' for Active; 'I' for Inactive)
REMARK    1  A    between atoms: C_8  and  C_21
REMARK    2  A    between atoms: C_9  and  N_13
REMARK    3  A    between atoms: C_14  and  C_17
REMARK    4  A    between atoms: C_17  and  O_18
REMARK    5  A    between atoms: C_21  and  O_22
REMARK                            x       y       z     vdW  Elec       q    Type
REMARK                         _______ _______ _______ _____ _____    ______ ____
ROOT
ATOM      1  S   UNL     1      34.525 -15.809 -24.697  0.00  0.00    -0.079 S 
ATOM      2  N   UNL     1      35.037 -19.583 -23.293  0.00  0.00    +0.387 N 
ATOM      3  C   UNL     1      34.439 -16.951 -22.396  0.00  0.00    -0.016 A 
ATOM      4  C   UNL     1      34.459 -18.063 -21.393  0.00  0.00    +0.003 C 
ATOM      5  C   UNL     1      34.557 -17.216 -23.745  0.00  0.00    -0.017 A 
ATOM      6  C   UNL     1      34.222 -19.424 -22.075  0.00  0.00    -0.076 C 
ATOM      7  C   UNL     1      34.665 -18.592 -24.323  0.00  0.00    -0.048 C 
ATOM      8  C   UNL     1      34.328 -15.554 -22.144  0.00  0.00    +0.091 A 
ATOM      9  C   UNL     1      34.361 -14.816 -23.309  0.00  0.00    +0.087 A 
ATOM     10  H   UNL     1      34.895 -20.521 -23.668  0.00  0.00    -0.084 HD
ATOM     11  H   UNL     1      36.016 -19.438 -23.046  0.00  0.00    -0.084 HD
ENDROOT
BRANCH   9  13
ATOM     12  O   UNL     1      32.002 -12.982 -23.132  0.00  0.00    -0.263 OA
ATOM     13  N   UNL     1      34.285 -13.466 -23.527  0.00  0.00    -0.270 N 
ATOM     14  C   UNL     1      33.144 -12.668 -23.425  0.00  0.00    +0.326 C 
ATOM     15  H   UNL     1      35.122 -13.012 -23.780  0.00  0.00    +0.156 HD
BRANCH  14  17
ATOM     16  O   UNL     1      32.682 -10.305 -23.420  0.00  0.00    -0.240 OA
ATOM     17  C   UNL     1      33.427 -11.211 -23.738  0.00  0.00    +0.393 C 
BRANCH  17  18
ATOM     18  O   UNL     1      34.590 -11.096 -24.398  0.00  0.00    -0.474 OA
ATOM     19  H   UNL     1      35.319 -11.635 -24.160  0.00  0.00    +0.296 HD
ENDBRANCH  17  18
ENDBRANCH  14  17
ENDBRANCH   9  13
BRANCH   8  21
ATOM     20  O   UNL     1      35.047 -14.988 -19.951  0.00  0.00    -0.245 OA
ATOM     21  C   UNL     1      34.193 -14.945 -20.844  0.00  0.00    +0.339 C 
BRANCH  21  22
ATOM     22  O   UNL     1      33.011 -14.283 -20.641  0.00  0.00    -0.477 OA
ATOM     23  H   UNL     1      32.966 -13.583 -20.020  0.00  0.00    +0.295 HD
ENDBRANCH  21  22
ENDBRANCH   8  21
TORSDOF 5
ENDMDL
MODEL 9
REMARK VINA RESULT:      -7.4     14.348     16.177
REMARK  Name = 444766
REMARK  5 active torsions:
REMARK  status: ('A' for Active; 'I' for Inactive)
REMARK    1  A    between atoms: C_8  and  C_21
REMARK    2  A    between atoms: C_9  and  N_13
REMARK    3  A    between atoms: C_14  and  C_17
REMARK    4  A    between atoms: C_17  and  O_18
REMARK    5  A    between atoms: C_21  and  O_22
REMARK                            x       y       z     vdW  Elec       q    Type
REMARK                         _______ _______ _______ _____ _____    ______ ____
ROOT
ATOM      1  S   UNL     1      32.255 -13.373 -22.340  0.00  0.00    -0.079 S 
ATOM      2  N   UNL     1      31.726  -9.597 -20.948  0.00  0.00    +0.387 N 
ATOM      3  C   UNL     1      32.810 -11.004 -23.169  0.00  0.00    -0.016 A 
ATOM      4  C   UNL     1      32.836  -9.508 -23.187  0.00  0.00    +0.003 C 
ATOM      5  C   UNL     1      32.141 -11.686 -22.173  0.00  0.00    -0.017 A 
ATOM      6  C   UNL     1      31.751  -8.926 -22.261  0.00  0.00    -0.076 C 
ATOM      7  C   UNL     1      31.365 -11.023 -21.079  0.00  0.00    -0.048 C 
ATOM      8  C   UNL     1      33.436 -11.897 -24.085  0.00  0.00    +0.091 A 
ATOM      9  C   UNL     1      33.215 -13.217 -23.752  0.00  0.00    +0.087 A 
ATOM     10  H   UNL     1      31.040  -9.134 -20.351  0.00  0.00    -0.084 HD
ATOM     11  H   UNL     1      32.658  -9.537 -20.539  0.00  0.00    -0.084 HD
ENDROOT
BRANCH   9  13
ATOM     12  O   UNL     1      35.058 -15.342 -22.728  0.00  0.00    -0.263 OA
ATOM     13  N   UNL     1      33.622 -14.381 -24.346  0.00  0.00    -0.270 N 
ATOM     14  C   UNL     1      34.490 -15.333 -23.807  0.00  0.00    +0.326 C 
ATOM     15  H   UNL     1      33.266 -14.566 -25.246  0.00  0.00    +0.156 HD
BRANCH  14  17
ATOM     16  O   UNL     1      34.308 -16.532 -25.888  0.00  0.00    -0.240 OA
ATOM     17  C   UNL     1      34.722 -16.502 -24.746  0.00  0.00    +0.393 C 
BRANCH  17  18
ATOM     18  O   UNL     1      35.432 -17.459 -24.127  0.00  0.00    -0.474 OA
ATOM     19  H   UNL     1      35.232 -17.692 -23.242  0.00  0.00    +0.296 HD
ENDBRANCH  17  18
ENDBRANCH  14  17
ENDBRANCH   9  13
BRANCH   8  21
ATOM     20  O   UNL     1      33.979 -11.858 -26.398  0.00  0.00    -0.245 OA
ATOM     21  C   UNL     1      34.214 -11.508 -25.236  0.00  0.00    +0.339 C 
BRANCH  21  22
ATOM     22  O   UNL     1      35.277 -10.691 -24.959  0.00  0.00    -0.477 OA
ATOM     23  H   UNL     1      35.159  -9.762 -24.927  0.00  0.00    +0.295 HD
ENDBRANCH  21  22
ENDBRANCH   8  21
TORSDOF 5
ENDMDL
