MODEL 1
REMARK VINA RESULT:      -8.9      0.000      0.000
REMARK  Name = 5282237
REMARK  15 active torsions:
REMARK  status: ('A' for Active; 'I' for Inactive)
REMARK    1  A    between atoms: C_2  and  C_9
REMARK    2  A    between atoms: C_3  and  C_21
REMARK    3  A    between atoms: C_4  and  O_7
REMARK    4  A    between atoms: C_10  and  C_11
REMARK    5  A    between atoms: C_11  and  C_12
REMARK    6  A    between atoms: C_11  and  O_19
REMARK    7  A    between atoms: C_12  and  C_15
REMARK    8  A    between atoms: C_15  and  C_16
REMARK    9  A    between atoms: C_16  and  C_17
REMARK   10  A    between atoms: C_21  and  C_22
REMARK   11  A    between atoms: C_22  and  C_23
REMARK   12  A    between atoms: C_23  and  C_24
REMARK   13  A    between atoms: C_24  and  C_25
REMARK   14  A    between atoms: C_26  and  C_28
REMARK   15  A    between atoms: C_28  and  O_29
REMARK                            x       y       z     vdW  Elec       q    Type
REMARK                         _______ _______ _______ _____ _____    ______ ____
ROOT
ATOM      1  O   UNL     1      29.961 -22.527 -17.116  0.00  0.00    -0.296 OA
ATOM      2  C   UNL     1      32.038 -23.972 -14.647  0.00  0.00    +0.056 C 
ATOM      3  C   UNL     1      31.981 -23.045 -15.871  0.00  0.00    +0.064 C 
ATOM      4  C   UNL     1      30.798 -23.582 -13.832  0.00  0.00    +0.122 C 
ATOM      5  C   UNL     1      29.702 -23.378 -14.877  0.00  0.00    +0.094 C 
ATOM      6  C   UNL     1      30.485 -22.936 -16.086  0.00  0.00    +0.153 C 
ENDROOT
BRANCH   4   7
ATOM      7  O   UNL     1      30.448 -24.630 -12.943  0.00  0.00    -0.384 OA
ATOM      8  H   UNL     1      29.820 -24.297 -12.283  0.00  0.00    +0.210 HD
ENDBRANCH   4   7
BRANCH   2   9
ATOM      9  C   UNL     1      33.310 -23.826 -13.875  0.00  0.00    -0.026 C 
ATOM     10  C   UNL     1      34.344 -24.677 -13.978  0.00  0.00    -0.002 C 
BRANCH  10  11
ATOM     11  C   UNL     1      35.653 -24.598 -13.223  0.00  0.00    +0.132 C 
BRANCH  11  12
ATOM     12  C   UNL     1      36.860 -25.285 -13.945  0.00  0.00    +0.029 C 
ATOM     13  C   UNL     1      37.649 -26.173 -12.952  0.00  0.00    +0.003 C 
ATOM     14  C   UNL     1      36.333 -26.215 -15.063  0.00  0.00    +0.003 C 
BRANCH  12  15
ATOM     15  C   UNL     1      37.863 -24.260 -14.558  0.00  0.00    +0.003 C 
BRANCH  15  16
ATOM     16  C   UNL     1      37.257 -22.920 -14.995  0.00  0.00    +0.000 C 
BRANCH  16  17
ATOM     17  C   UNL     1      37.589 -22.620 -16.460  0.00  0.00    +0.000 C 
ATOM     18  C   UNL     1      37.181 -21.207 -16.844  0.00  0.00    +0.000 C 
ENDBRANCH  16  17
ENDBRANCH  15  16
ENDBRANCH  12  15
ENDBRANCH  11  12
BRANCH  11  19
ATOM     19  O   UNL     1      35.491 -25.150 -11.913  0.00  0.00    -0.380 OA
ATOM     20  H   UNL     1      34.925 -25.936 -11.962  0.00  0.00    +0.211 HD
ENDBRANCH  11  19
ENDBRANCH  10  11
ENDBRANCH   2   9
BRANCH   3  21
ATOM     21  C   UNL     1      32.705 -23.602 -17.084  0.00  0.00    +0.008 C 
BRANCH  21  22
ATOM     22  C   UNL     1      34.001 -22.861 -17.422  0.00  0.00    +0.001 C 
BRANCH  22  23
ATOM     23  C   UNL     1      34.131 -22.518 -18.910  0.00  0.00    +0.005 C 
BRANCH  23  24
ATOM     24  C   UNL     1      33.016 -21.594 -19.410  0.00  0.00    +0.026 C 
BRANCH  24  25
ATOM     25  C   UNL     1      33.533 -20.406 -20.171  0.00  0.00    -0.019 C 
ATOM     26  C   UNL     1      34.823 -20.246 -20.495  0.00  0.00    +0.077 C 
BRANCH  26  28
ATOM     27  O   UNL     1      35.674 -18.013 -20.748  0.00  0.00    -0.245 OA
ATOM     28  C   UNL     1      35.252 -19.046 -21.246  0.00  0.00    +0.341 C 
BRANCH  28  29
ATOM     29  O   UNL     1      35.086 -19.307 -22.571  0.00  0.00    -0.441 OA
ATOM     30  C   UNL     1      35.361 -18.213 -23.451  0.00  0.00    +0.256 C 
ENDBRANCH  28  29
ENDBRANCH  26  28
ENDBRANCH  24  25
ENDBRANCH  23  24
ENDBRANCH  22  23
ENDBRANCH  21  22
ENDBRANCH   3  21
TORSDOF 15
ENDMDL
MODEL 2
REMARK VINA RESULT:      -8.9      1.545      2.478
REMARK  Name = 5282237
REMARK  15 active torsions:
REMARK  status: ('A' for Active; 'I' for Inactive)
REMARK    1  A    between atoms: C_2  and  C_9
REMARK    2  A    between atoms: C_3  and  C_21
REMARK    3  A    between atoms: C_4  and  O_7
REMARK    4  A    between atoms: C_10  and  C_11
REMARK    5  A    between atoms: C_11  and  C_12
REMARK    6  A    between atoms: C_11  and  O_19
REMARK    7  A    between atoms: C_12  and  C_15
REMARK    8  A    between atoms: C_15  and  C_16
REMARK    9  A    between atoms: C_16  and  C_17
REMARK   10  A    between atoms: C_21  and  C_22
REMARK   11  A    between atoms: C_22  and  C_23
REMARK   12  A    between atoms: C_23  and  C_24
REMARK   13  A    between atoms: C_24  and  C_25
REMARK   14  A    between atoms: C_26  and  C_28
REMARK   15  A    between atoms: C_28  and  O_29
REMARK                            x       y       z     vdW  Elec       q    Type
REMARK                         _______ _______ _______ _____ _____    ______ ____
ROOT
ATOM      1  O   UNL     1      30.670 -22.737 -16.775  0.00  0.00    -0.296 OA
ATOM      2  C   UNL     1      33.625 -23.960 -15.267  0.00  0.00    +0.056 C 
ATOM      3  C   UNL     1      33.038 -22.975 -16.289  0.00  0.00    +0.064 C 
ATOM      4  C   UNL     1      32.674 -23.855 -14.068  0.00  0.00    +0.122 C 
ATOM      5  C   UNL     1      31.281 -23.776 -14.689  0.00  0.00    +0.094 C 
ATOM      6  C   UNL     1      31.555 -23.118 -16.016  0.00  0.00    +0.153 C 
ENDROOT
BRANCH   4   7
ATOM      7  O   UNL     1      32.790 -25.009 -13.251  0.00  0.00    -0.384 OA
ATOM      8  H   UNL     1      31.940 -25.477 -13.232  0.00  0.00    +0.210 HD
ENDBRANCH   4   7
BRANCH   2   9
ATOM      9  C   UNL     1      35.043 -23.645 -14.915  0.00  0.00    -0.026 C 
ATOM     10  C   UNL     1      36.101 -24.248 -15.481  0.00  0.00    -0.002 C 
BRANCH  10  11
ATOM     11  C   UNL     1      37.559 -23.989 -15.167  0.00  0.00    +0.132 C 
BRANCH  11  12
ATOM     12  C   UNL     1      38.280 -25.161 -14.421  0.00  0.00    +0.029 C 
ATOM     13  C   UNL     1      37.620 -26.515 -14.778  0.00  0.00    +0.003 C 
ATOM     14  C   UNL     1      39.753 -25.239 -14.885  0.00  0.00    +0.003 C 
BRANCH  12  15
ATOM     15  C   UNL     1      38.235 -25.009 -12.870  0.00  0.00    +0.003 C 
BRANCH  15  16
ATOM     16  C   UNL     1      37.080 -25.732 -12.165  0.00  0.00    +0.000 C 
BRANCH  16  17
ATOM     17  C   UNL     1      36.040 -24.734 -11.650  0.00  0.00    +0.000 C 
ATOM     18  C   UNL     1      36.674 -23.394 -11.311  0.00  0.00    +0.000 C 
ENDBRANCH  16  17
ENDBRANCH  15  16
ENDBRANCH  12  15
ENDBRANCH  11  12
BRANCH  11  19
ATOM     19  O   UNL     1      37.683 -22.780 -14.412  0.00  0.00    -0.380 OA
ATOM     20  H   UNL     1      38.062 -22.086 -14.974  0.00  0.00    +0.211 HD
ENDBRANCH  11  19
ENDBRANCH  10  11
ENDBRANCH   2   9
BRANCH   3  21
ATOM     21  C   UNL     1      33.400 -23.308 -17.726  0.00  0.00    +0.008 C 
BRANCH  21  22
ATOM     22  C   UNL     1      34.461 -22.379 -18.324  0.00  0.00    +0.001 C 
BRANCH  22  23
ATOM     23  C   UNL     1      34.123 -21.913 -19.744  0.00  0.00    +0.005 C 
BRANCH  23  24
ATOM     24  C   UNL     1      33.069 -20.802 -19.775  0.00  0.00    +0.026 C 
BRANCH  24  25
ATOM     25  C   UNL     1      33.357 -19.745 -20.803  0.00  0.00    -0.019 C 
ATOM     26  C   UNL     1      34.514 -19.669 -21.474  0.00  0.00    +0.077 C 
BRANCH  26  28
ATOM     27  O   UNL     1      34.624 -17.398 -22.251  0.00  0.00    -0.245 OA
ATOM     28  C   UNL     1      34.719 -18.595 -22.471  0.00  0.00    +0.341 C 
BRANCH  28  29
ATOM     29  O   UNL     1      35.025 -19.187 -23.657  0.00  0.00    -0.441 OA
ATOM     30  C   UNL     1      34.398 -18.615 -24.809  0.00  0.00    +0.256 C 
ENDBRANCH  28  29
ENDBRANCH  26  28
ENDBRANCH  24  25
ENDBRANCH  23  24
ENDBRANCH  22  23
ENDBRANCH  21  22
ENDBRANCH   3  21
TORSDOF 15
ENDMDL
MODEL 3
REMARK VINA RESULT:      -8.6      1.494      5.525
REMARK  Name = 5282237
REMARK  15 active torsions:
REMARK  status: ('A' for Active; 'I' for Inactive)
REMARK    1  A    between atoms: C_2  and  C_9
REMARK    2  A    between atoms: C_3  and  C_21
REMARK    3  A    between atoms: C_4  and  O_7
REMARK    4  A    between atoms: C_10  and  C_11
REMARK    5  A    between atoms: C_11  and  C_12
REMARK    6  A    between atoms: C_11  and  O_19
REMARK    7  A    between atoms: C_12  and  C_15
REMARK    8  A    between atoms: C_15  and  C_16
REMARK    9  A    between atoms: C_16  and  C_17
REMARK   10  A    between atoms: C_21  and  C_22
REMARK   11  A    between atoms: C_22  and  C_23
REMARK   12  A    between atoms: C_23  and  C_24
REMARK   13  A    between atoms: C_24  and  C_25
REMARK   14  A    between atoms: C_26  and  C_28
REMARK   15  A    between atoms: C_28  and  O_29
REMARK                            x       y       z     vdW  Elec       q    Type
REMARK                         _______ _______ _______ _____ _____    ______ ____
ROOT
ATOM      1  O   UNL     1      39.228 -23.863 -15.339  0.00  0.00    -0.296 OA
ATOM      2  C   UNL     1      35.907 -24.351 -14.231  0.00  0.00    +0.056 C 
ATOM      3  C   UNL     1      36.802 -23.930 -15.406  0.00  0.00    +0.064 C 
ATOM      4  C   UNL     1      36.622 -25.575 -13.645  0.00  0.00    +0.122 C 
ATOM      5  C   UNL     1      38.104 -25.209 -13.687  0.00  0.00    +0.094 C 
ATOM      6  C   UNL     1      38.175 -24.277 -14.869  0.00  0.00    +0.153 C 
ENDROOT
BRANCH   4   7
ATOM      7  O   UNL     1      36.201 -25.792 -12.308  0.00  0.00    -0.384 OA
ATOM      8  H   UNL     1      35.992 -24.940 -11.893  0.00  0.00    +0.210 HD
ENDBRANCH   4   7
BRANCH   2   9
ATOM      9  C   UNL     1      34.503 -24.644 -14.654  0.00  0.00    -0.026 C 
ATOM     10  C   UNL     1      33.438 -24.492 -13.851  0.00  0.00    -0.002 C 
BRANCH  10  11
ATOM     11  C   UNL     1      31.995 -24.778 -14.206  0.00  0.00    +0.132 C 
BRANCH  11  12
ATOM     12  C   UNL     1      31.243 -23.581 -14.879  0.00  0.00    +0.029 C 
ATOM     13  C   UNL     1      31.564 -22.259 -14.140  0.00  0.00    +0.003 C 
ATOM     14  C   UNL     1      31.735 -23.415 -16.336  0.00  0.00    +0.003 C 
BRANCH  12  15
ATOM     15  C   UNL     1      29.694 -23.760 -14.875  0.00  0.00    +0.003 C 
BRANCH  15  16
ATOM     16  C   UNL     1      29.107 -24.490 -16.089  0.00  0.00    +0.000 C 
BRANCH  16  17
ATOM     17  C   UNL     1      28.129 -23.591 -16.850  0.00  0.00    +0.000 C 
ATOM     18  C   UNL     1      27.580 -22.487 -15.961  0.00  0.00    +0.000 C 
ENDBRANCH  16  17
ENDBRANCH  15  16
ENDBRANCH  12  15
ENDBRANCH  11  12
BRANCH  11  19
ATOM     19  O   UNL     1      31.284 -25.206 -13.040  0.00  0.00    -0.380 OA
ATOM     20  H   UNL     1      30.757 -24.469 -12.695  0.00  0.00    +0.211 HD
ENDBRANCH  11  19
ENDBRANCH  10  11
ENDBRANCH   2   9
BRANCH   3  21
ATOM     21  C   UNL     1      36.673 -22.460 -15.767  0.00  0.00    +0.008 C 
BRANCH  21  22
ATOM     22  C   UNL     1      36.348 -22.216 -17.244  0.00  0.00    +0.001 C 
BRANCH  22  23
ATOM     23  C   UNL     1      34.873 -22.454 -17.585  0.00  0.00    +0.005 C 
BRANCH  23  24
ATOM     24  C   UNL     1      34.587 -22.380 -19.089  0.00  0.00    +0.026 C 
BRANCH  24  25
ATOM     25  C   UNL     1      35.212 -21.182 -19.748  0.00  0.00    -0.019 C 
ATOM     26  C   UNL     1      34.533 -20.342 -20.540  0.00  0.00    +0.077 C 
BRANCH  26  28
ATOM     27  O   UNL     1      35.946 -18.399 -20.560  0.00  0.00    -0.245 OA
ATOM     28  C   UNL     1      35.223 -19.185 -21.152  0.00  0.00    +0.341 C 
BRANCH  28  29
ATOM     29  O   UNL     1      34.901 -19.166 -22.473  0.00  0.00    -0.441 OA
ATOM     30  C   UNL     1      34.760 -17.865 -23.052  0.00  0.00    +0.256 C 
ENDBRANCH  28  29
ENDBRANCH  26  28
ENDBRANCH  24  25
ENDBRANCH  23  24
ENDBRANCH  22  23
ENDBRANCH  21  22
ENDBRANCH   3  21
TORSDOF 15
ENDMDL
MODEL 4
REMARK VINA RESULT:      -8.4      2.603      8.412
REMARK  Name = 5282237
REMARK  15 active torsions:
REMARK  status: ('A' for Active; 'I' for Inactive)
REMARK    1  A    between atoms: C_2  and  C_9
REMARK    2  A    between atoms: C_3  and  C_21
REMARK    3  A    between atoms: C_4  and  O_7
REMARK    4  A    between atoms: C_10  and  C_11
REMARK    5  A    between atoms: C_11  and  C_12
REMARK    6  A    between atoms: C_11  and  O_19
REMARK    7  A    between atoms: C_12  and  C_15
REMARK    8  A    between atoms: C_15  and  C_16
REMARK    9  A    between atoms: C_16  and  C_17
REMARK   10  A    between atoms: C_21  and  C_22
REMARK   11  A    between atoms: C_22  and  C_23
REMARK   12  A    between atoms: C_23  and  C_24
REMARK   13  A    between atoms: C_24  and  C_25
REMARK   14  A    between atoms: C_26  and  C_28
REMARK   15  A    between atoms: C_28  and  O_29
REMARK                            x       y       z     vdW  Elec       q    Type
REMARK                         _______ _______ _______ _____ _____    ______ ____
ROOT
ATOM      1  O   UNL     1      35.634 -23.315 -15.338  0.00  0.00    -0.296 OA
ATOM      2  C   UNL     1      35.047 -22.145 -18.622  0.00  0.00    +0.056 C 
ATOM      3  C   UNL     1      34.430 -22.400 -17.239  0.00  0.00    +0.064 C 
ATOM      4  C   UNL     1      36.419 -21.534 -18.306  0.00  0.00    +0.122 C 
ATOM      5  C   UNL     1      36.935 -22.346 -17.120  0.00  0.00    +0.094 C 
ATOM      6  C   UNL     1      35.660 -22.760 -16.431  0.00  0.00    +0.153 C 
ENDROOT
BRANCH   4   7
ATOM      7  O   UNL     1      37.285 -21.676 -19.420  0.00  0.00    -0.384 OA
ATOM      8  H   UNL     1      36.837 -22.185 -20.114  0.00  0.00    +0.210 HD
ENDBRANCH   4   7
BRANCH   2   9
ATOM      9  C   UNL     1      34.198 -21.258 -19.475  0.00  0.00    -0.026 C 
ATOM     10  C   UNL     1      34.662 -20.587 -20.542  0.00  0.00    -0.002 C 
BRANCH  10  11
ATOM     11  C   UNL     1      33.866 -19.667 -21.442  0.00  0.00    +0.132 C 
BRANCH  11  12
ATOM     12  C   UNL     1      34.715 -18.562 -22.154  0.00  0.00    +0.029 C 
ATOM     13  C   UNL     1      36.164 -18.558 -21.606  0.00  0.00    +0.003 C 
ATOM     14  C   UNL     1      34.805 -18.873 -23.666  0.00  0.00    +0.003 C 
BRANCH  12  15
ATOM     15  C   UNL     1      34.133 -17.130 -21.956  0.00  0.00    +0.003 C 
BRANCH  15  16
ATOM     16  C   UNL     1      34.853 -16.257 -20.920  0.00  0.00    +0.000 C 
BRANCH  16  17
ATOM     17  C   UNL     1      34.128 -14.923 -20.726  0.00  0.00    +0.000 C 
ATOM     18  C   UNL     1      32.631 -15.123 -20.548  0.00  0.00    +0.000 C 
ENDBRANCH  16  17
ENDBRANCH  15  16
ENDBRANCH  12  15
ENDBRANCH  11  12
BRANCH  11  19
ATOM     19  O   UNL     1      32.804 -19.062 -20.698  0.00  0.00    -0.380 OA
ATOM     20  H   UNL     1      33.041 -19.038 -19.758  0.00  0.00    +0.211 HD
ENDBRANCH  11  19
ENDBRANCH  10  11
ENDBRANCH   2   9
BRANCH   3  21
ATOM     21  C   UNL     1      33.388 -23.505 -17.237  0.00  0.00    +0.008 C 
BRANCH  21  22
ATOM     22  C   UNL     1      32.001 -23.043 -16.783  0.00  0.00    +0.001 C 
BRANCH  22  23
ATOM     23  C   UNL     1      31.877 -22.908 -15.262  0.00  0.00    +0.005 C 
BRANCH  23  24
ATOM     24  C   UNL     1      30.564 -23.477 -14.715  0.00  0.00    +0.026 C 
BRANCH  24  25
ATOM     25  C   UNL     1      29.471 -23.528 -15.746  0.00  0.00    -0.019 C 
ATOM     26  C   UNL     1      28.538 -22.576 -15.875  0.00  0.00    +0.077 C 
BRANCH  26  28
ATOM     27  O   UNL     1      27.502 -23.510 -17.831  0.00  0.00    -0.245 OA
ATOM     28  C   UNL     1      27.494 -22.702 -16.915  0.00  0.00    +0.341 C 
BRANCH  28  29
ATOM     29  O   UNL     1      26.544 -21.761 -16.662  0.00  0.00    -0.441 OA
ATOM     30  C   UNL     1      25.996 -21.116 -17.816  0.00  0.00    +0.256 C 
ENDBRANCH  28  29
ENDBRANCH  26  28
ENDBRANCH  24  25
ENDBRANCH  23  24
ENDBRANCH  22  23
ENDBRANCH  21  22
ENDBRANCH   3  21
TORSDOF 15
ENDMDL
MODEL 5
REMARK VINA RESULT:      -8.3      5.991     13.018
REMARK  Name = 5282237
REMARK  15 active torsions:
REMARK  status: ('A' for Active; 'I' for Inactive)
REMARK    1  A    between atoms: C_2  and  C_9
REMARK    2  A    between atoms: C_3  and  C_21
REMARK    3  A    between atoms: C_4  and  O_7
REMARK    4  A    between atoms: C_10  and  C_11
REMARK    5  A    between atoms: C_11  and  C_12
REMARK    6  A    between atoms: C_11  and  O_19
REMARK    7  A    between atoms: C_12  and  C_15
REMARK    8  A    between atoms: C_15  and  C_16
REMARK    9  A    between atoms: C_16  and  C_17
REMARK   10  A    between atoms: C_21  and  C_22
REMARK   11  A    between atoms: C_22  and  C_23
REMARK   12  A    between atoms: C_23  and  C_24
REMARK   13  A    between atoms: C_24  and  C_25
REMARK   14  A    between atoms: C_26  and  C_28
REMARK   15  A    between atoms: C_28  and  O_29
REMARK                            x       y       z     vdW  Elec       q    Type
REMARK                         _______ _______ _______ _____ _____    ______ ____
ROOT
ATOM      1  O   UNL     1      34.312 -17.553 -24.539  0.00  0.00    -0.296 OA
ATOM      2  C   UNL     1      33.404 -14.162 -24.125  0.00  0.00    +0.056 C 
ATOM      3  C   UNL     1      34.215 -15.335 -23.556  0.00  0.00    +0.064 C 
ATOM      4  C   UNL     1      33.651 -14.244 -25.637  0.00  0.00    +0.122 C 
ATOM      5  C   UNL     1      33.599 -15.737 -25.954  0.00  0.00    +0.094 C 
ATOM      6  C   UNL     1      34.069 -16.358 -24.663  0.00  0.00    +0.153 C 
ENDROOT
BRANCH   4   7
ATOM      7  O   UNL     1      32.630 -13.552 -26.337  0.00  0.00    -0.384 OA
ATOM      8  H   UNL     1      32.979 -12.708 -26.666  0.00  0.00    +0.210 HD
ENDBRANCH   4   7
BRANCH   2   9
ATOM      9  C   UNL     1      33.807 -12.846 -23.540  0.00  0.00    -0.026 C 
ATOM     10  C   UNL     1      33.223 -11.680 -23.861  0.00  0.00    -0.002 C 
BRANCH  10  11
ATOM     11  C   UNL     1      33.584 -10.315 -23.318  0.00  0.00    +0.132 C 
BRANCH  11  12
ATOM     12  C   UNL     1      32.391  -9.540 -22.665  0.00  0.00    +0.029 C 
ATOM     13  C   UNL     1      32.918  -8.444 -21.706  0.00  0.00    +0.003 C 
ATOM     14  C   UNL     1      31.575  -8.823 -23.766  0.00  0.00    +0.003 C 
BRANCH  12  15
ATOM     15  C   UNL     1      31.444 -10.468 -21.844  0.00  0.00    +0.003 C 
BRANCH  15  16
ATOM     16  C   UNL     1      31.413 -10.213 -20.332  0.00  0.00    +0.000 C 
BRANCH  16  17
ATOM     17  C   UNL     1      31.614 -11.516 -19.552  0.00  0.00    +0.000 C 
ATOM     18  C   UNL     1      31.986 -12.665 -20.474  0.00  0.00    +0.000 C 
ENDBRANCH  16  17
ENDBRANCH  15  16
ENDBRANCH  12  15
ENDBRANCH  11  12
BRANCH  11  19
ATOM     19  O   UNL     1      34.169  -9.521 -24.355  0.00  0.00    -0.380 OA
ATOM     20  H   UNL     1      33.512  -9.362 -25.050  0.00  0.00    +0.211 HD
ENDBRANCH  11  19
ENDBRANCH  10  11
ENDBRANCH   2   9
BRANCH   3  21
ATOM     21  C   UNL     1      33.691 -15.841 -22.223  0.00  0.00    +0.008 C 
BRANCH  21  22
ATOM     22  C   UNL     1      34.792 -16.144 -21.203  0.00  0.00    +0.001 C 
BRANCH  22  23
ATOM     23  C   UNL     1      35.227 -17.613 -21.202  0.00  0.00    +0.005 C 
BRANCH  23  24
ATOM     24  C   UNL     1      34.045 -18.587 -21.265  0.00  0.00    +0.026 C 
BRANCH  24  25
ATOM     25  C   UNL     1      34.353 -19.926 -20.659  0.00  0.00    -0.019 C 
ATOM     26  C   UNL     1      33.460 -20.640 -19.960  0.00  0.00    +0.077 C 
BRANCH  26  28
ATOM     27  O   UNL     1      34.920 -22.505 -19.557  0.00  0.00    -0.245 OA
ATOM     28  C   UNL     1      33.844 -21.951 -19.394  0.00  0.00    +0.341 C 
BRANCH  28  29
ATOM     29  O   UNL     1      32.787 -22.414 -18.673  0.00  0.00    -0.441 OA
ATOM     30  C   UNL     1      33.124 -23.150 -17.493  0.00  0.00    +0.256 C 
ENDBRANCH  28  29
ENDBRANCH  26  28
ENDBRANCH  24  25
ENDBRANCH  23  24
ENDBRANCH  22  23
ENDBRANCH  21  22
ENDBRANCH   3  21
TORSDOF 15
ENDMDL
MODEL 6
REMARK VINA RESULT:      -8.2      2.237      7.007
REMARK  Name = 5282237
REMARK  15 active torsions:
REMARK  status: ('A' for Active; 'I' for Inactive)
REMARK    1  A    between atoms: C_2  and  C_9
REMARK    2  A    between atoms: C_3  and  C_21
REMARK    3  A    between atoms: C_4  and  O_7
REMARK    4  A    between atoms: C_10  and  C_11
REMARK    5  A    between atoms: C_11  and  C_12
REMARK    6  A    between atoms: C_11  and  O_19
REMARK    7  A    between atoms: C_12  and  C_15
REMARK    8  A    between atoms: C_15  and  C_16
REMARK    9  A    between atoms: C_16  and  C_17
REMARK   10  A    between atoms: C_21  and  C_22
REMARK   11  A    between atoms: C_22  and  C_23
REMARK   12  A    between atoms: C_23  and  C_24
REMARK   13  A    between atoms: C_24  and  C_25
REMARK   14  A    between atoms: C_26  and  C_28
REMARK   15  A    between atoms: C_28  and  O_29
REMARK                            x       y       z     vdW  Elec       q    Type
REMARK                         _______ _______ _______ _____ _____    ______ ____
ROOT
ATOM      1  O   UNL     1      34.549 -24.456 -11.751  0.00  0.00    -0.296 OA
ATOM      2  C   UNL     1      34.539 -24.032 -15.260  0.00  0.00    +0.056 C 
ATOM      3  C   UNL     1      33.754 -23.826 -13.957  0.00  0.00    +0.064 C 
ATOM      4  C   UNL     1      35.973 -23.626 -14.894  0.00  0.00    +0.122 C 
ATOM      5  C   UNL     1      36.190 -24.206 -13.497  0.00  0.00    +0.094 C 
ATOM      6  C   UNL     1      34.797 -24.198 -12.923  0.00  0.00    +0.153 C 
ENDROOT
BRANCH   4   7
ATOM      7  O   UNL     1      36.891 -24.191 -15.815  0.00  0.00    -0.384 OA
ATOM      8  H   UNL     1      37.797 -23.989 -15.532  0.00  0.00    +0.210 HD
ENDBRANCH   4   7
BRANCH   2   9
ATOM      9  C   UNL     1      33.983 -23.239 -16.399  0.00  0.00    -0.026 C 
ATOM     10  C   UNL     1      34.225 -23.520 -17.689  0.00  0.00    -0.002 C 
BRANCH  10  11
ATOM     11  C   UNL     1      33.706 -22.758 -18.889  0.00  0.00    +0.132 C 
BRANCH  11  12
ATOM     12  C   UNL     1      34.746 -21.783 -19.537  0.00  0.00    +0.029 C 
ATOM     13  C   UNL     1      35.854 -21.420 -18.519  0.00  0.00    +0.003 C 
ATOM     14  C   UNL     1      35.439 -22.485 -20.729  0.00  0.00    +0.003 C 
BRANCH  12  15
ATOM     15  C   UNL     1      34.102 -20.450 -20.027  0.00  0.00    +0.003 C 
BRANCH  15  16
ATOM     16  C   UNL     1      34.888 -19.690 -21.103  0.00  0.00    +0.000 C 
BRANCH  16  17
ATOM     17  C   UNL     1      34.247 -18.330 -21.393  0.00  0.00    +0.000 C 
ATOM     18  C   UNL     1      35.299 -17.261 -21.640  0.00  0.00    +0.000 C 
ENDBRANCH  16  17
ENDBRANCH  15  16
ENDBRANCH  12  15
ENDBRANCH  11  12
BRANCH  11  19
ATOM     19  O   UNL     1      32.523 -22.038 -18.530  0.00  0.00    -0.380 OA
ATOM     20  H   UNL     1      32.725 -21.423 -17.808  0.00  0.00    +0.211 HD
ENDBRANCH  11  19
ENDBRANCH  10  11
ENDBRANCH   2   9
BRANCH   3  21
ATOM     21  C   UNL     1      32.506 -24.686 -13.861  0.00  0.00    +0.008 C 
BRANCH  21  22
ATOM     22  C   UNL     1      31.219 -23.883 -13.652  0.00  0.00    +0.001 C 
BRANCH  22  23
ATOM     23  C   UNL     1      30.938 -22.888 -14.782  0.00  0.00    +0.005 C 
BRANCH  23  24
ATOM     24  C   UNL     1      30.331 -23.549 -16.024  0.00  0.00    +0.026 C 
BRANCH  24  25
ATOM     25  C   UNL     1      29.051 -22.901 -16.470  0.00  0.00    -0.019 C 
ATOM     26  C   UNL     1      27.987 -22.748 -15.670  0.00  0.00    +0.077 C 
BRANCH  26  28
ATOM     27  O   UNL     1      25.666 -22.128 -15.650  0.00  0.00    -0.245 OA
ATOM     28  C   UNL     1      26.762 -22.099 -16.187  0.00  0.00    +0.341 C 
BRANCH  28  29
ATOM     29  O   UNL     1      27.086 -21.480 -17.354  0.00  0.00    -0.441 OA
ATOM     30  C   UNL     1      25.976 -21.081 -18.165  0.00  0.00    +0.256 C 
ENDBRANCH  28  29
ENDBRANCH  26  28
ENDBRANCH  24  25
ENDBRANCH  23  24
ENDBRANCH  22  23
ENDBRANCH  21  22
ENDBRANCH   3  21
TORSDOF 15
ENDMDL
MODEL 7
REMARK VINA RESULT:      -8.2      3.482      9.953
REMARK  Name = 5282237
REMARK  15 active torsions:
REMARK  status: ('A' for Active; 'I' for Inactive)
REMARK    1  A    between atoms: C_2  and  C_9
REMARK    2  A    between atoms: C_3  and  C_21
REMARK    3  A    between atoms: C_4  and  O_7
REMARK    4  A    between atoms: C_10  and  C_11
REMARK    5  A    between atoms: C_11  and  C_12
REMARK    6  A    between atoms: C_11  and  O_19
REMARK    7  A    between atoms: C_12  and  C_15
REMARK    8  A    between atoms: C_15  and  C_16
REMARK    9  A    between atoms: C_16  and  C_17
REMARK   10  A    between atoms: C_21  and  C_22
REMARK   11  A    between atoms: C_22  and  C_23
REMARK   12  A    between atoms: C_23  and  C_24
REMARK   13  A    between atoms: C_24  and  C_25
REMARK   14  A    between atoms: C_26  and  C_28
REMARK   15  A    between atoms: C_28  and  O_29
REMARK                            x       y       z     vdW  Elec       q    Type
REMARK                         _______ _______ _______ _____ _____    ______ ____
ROOT
ATOM      1  O   UNL     1      36.596 -21.504 -19.089  0.00  0.00    -0.296 OA
ATOM      2  C   UNL     1      34.991 -19.444 -21.472  0.00  0.00    +0.056 C 
ATOM      3  C   UNL     1      34.833 -20.220 -20.155  0.00  0.00    +0.064 C 
ATOM      4  C   UNL     1      36.362 -18.768 -21.336  0.00  0.00    +0.122 C 
ATOM      5  C   UNL     1      37.251 -19.830 -20.693  0.00  0.00    +0.094 C 
ATOM      6  C   UNL     1      36.265 -20.631 -19.883  0.00  0.00    +0.153 C 
ENDROOT
BRANCH   4   7
ATOM      7  O   UNL     1      36.859 -18.412 -22.616  0.00  0.00    -0.384 OA
ATOM      8  H   UNL     1      36.694 -17.469 -22.776  0.00  0.00    +0.210 HD
ENDBRANCH   4   7
BRANCH   2   9
ATOM      9  C   UNL     1      33.881 -18.469 -21.701  0.00  0.00    -0.026 C 
ATOM     10  C   UNL     1      33.821 -17.261 -21.118  0.00  0.00    -0.002 C 
BRANCH  10  11
ATOM     11  C   UNL     1      32.727 -16.230 -21.295  0.00  0.00    +0.132 C 
BRANCH  11  12
ATOM     12  C   UNL     1      33.236 -14.751 -21.368  0.00  0.00    +0.029 C 
ATOM     13  C   UNL     1      32.327 -13.826 -20.522  0.00  0.00    +0.003 C 
ATOM     14  C   UNL     1      34.657 -14.663 -20.765  0.00  0.00    +0.003 C 
BRANCH  12  15
ATOM     15  C   UNL     1      33.257 -14.190 -22.822  0.00  0.00    +0.003 C 
BRANCH  15  16
ATOM     16  C   UNL     1      34.343 -14.766 -23.740  0.00  0.00    +0.000 C 
BRANCH  16  17
ATOM     17  C   UNL     1      33.739 -15.732 -24.764  0.00  0.00    +0.000 C 
ATOM     18  C   UNL     1      34.718 -16.836 -25.132  0.00  0.00    +0.000 C 
ENDBRANCH  16  17
ENDBRANCH  15  16
ENDBRANCH  12  15
ENDBRANCH  11  12
BRANCH  11  19
ATOM     19  O   UNL     1      31.763 -16.362 -20.246  0.00  0.00    -0.380 OA
ATOM     20  H   UNL     1      31.800 -17.262 -19.885  0.00  0.00    +0.211 HD
ENDBRANCH  11  19
ENDBRANCH  10  11
ENDBRANCH   2   9
BRANCH   3  21
ATOM     21  C   UNL     1      33.897 -21.412 -20.266  0.00  0.00    +0.008 C 
BRANCH  21  22
ATOM     22  C   UNL     1      33.120 -21.705 -18.980  0.00  0.00    +0.001 C 
BRANCH  22  23
ATOM     23  C   UNL     1      33.742 -22.826 -18.141  0.00  0.00    +0.005 C 
BRANCH  23  24
ATOM     24  C   UNL     1      32.930 -23.154 -16.883  0.00  0.00    +0.026 C 
BRANCH  24  25
ATOM     25  C   UNL     1      31.459 -22.895 -17.049  0.00  0.00    -0.019 C 
ATOM     26  C   UNL     1      30.545 -23.231 -16.129  0.00  0.00    +0.077 C 
BRANCH  26  28
ATOM     27  O   UNL     1      28.677 -21.940 -16.912  0.00  0.00    -0.245 OA
ATOM     28  C   UNL     1      29.115 -22.942 -16.369  0.00  0.00    +0.341 C 
BRANCH  28  29
ATOM     29  O   UNL     1      28.395 -23.986 -15.876  0.00  0.00    -0.441 OA
ATOM     30  C   UNL     1      29.071 -24.796 -14.909  0.00  0.00    +0.256 C 
ENDBRANCH  28  29
ENDBRANCH  26  28
ENDBRANCH  24  25
ENDBRANCH  23  24
ENDBRANCH  22  23
ENDBRANCH  21  22
ENDBRANCH   3  21
TORSDOF 15
ENDMDL
MODEL 8
REMARK VINA RESULT:      -8.2      6.374     11.633
REMARK  Name = 5282237
REMARK  15 active torsions:
REMARK  status: ('A' for Active; 'I' for Inactive)
REMARK    1  A    between atoms: C_2  and  C_9
REMARK    2  A    between atoms: C_3  and  C_21
REMARK    3  A    between atoms: C_4  and  O_7
REMARK    4  A    between atoms: C_10  and  C_11
REMARK    5  A    between atoms: C_11  and  C_12
REMARK    6  A    between atoms: C_11  and  O_19
REMARK    7  A    between atoms: C_12  and  C_15
REMARK    8  A    between atoms: C_15  and  C_16
REMARK    9  A    between atoms: C_16  and  C_17
REMARK   10  A    between atoms: C_21  and  C_22
REMARK   11  A    between atoms: C_22  and  C_23
REMARK   12  A    between atoms: C_23  and  C_24
REMARK   13  A    between atoms: C_24  and  C_25
REMARK   14  A    between atoms: C_26  and  C_28
REMARK   15  A    between atoms: C_28  and  O_29
REMARK                            x       y       z     vdW  Elec       q    Type
REMARK                         _______ _______ _______ _____ _____    ______ ____
ROOT
ATOM      1  O   UNL     1      32.670 -12.544 -26.443  0.00  0.00    -0.296 OA
ATOM      2  C   UNL     1      34.037 -15.017 -24.318  0.00  0.00    +0.056 C 
ATOM      3  C   UNL     1      33.128 -13.782 -24.405  0.00  0.00    +0.064 C 
ATOM      4  C   UNL     1      33.665 -15.835 -25.562  0.00  0.00    +0.122 C 
ATOM      5  C   UNL     1      33.499 -14.796 -26.669  0.00  0.00    +0.094 C 
ATOM      6  C   UNL     1      33.055 -13.576 -25.904  0.00  0.00    +0.153 C 
ENDROOT
BRANCH   4   7
ATOM      7  O   UNL     1      34.709 -16.740 -25.882  0.00  0.00    -0.384 OA
ATOM      8  H   UNL     1      35.551 -16.390 -25.551  0.00  0.00    +0.210 HD
ENDBRANCH   4   7
BRANCH   2   9
ATOM      9  C   UNL     1      33.853 -15.779 -23.045  0.00  0.00    -0.026 C 
ATOM     10  C   UNL     1      34.780 -16.604 -22.532  0.00  0.00    -0.002 C 
BRANCH  10  11
ATOM     11  C   UNL     1      34.659 -17.412 -21.258  0.00  0.00    +0.132 C 
BRANCH  11  12
ATOM     12  C   UNL     1      34.938 -18.942 -21.431  0.00  0.00    +0.029 C 
ATOM     13  C   UNL     1      34.995 -19.314 -22.934  0.00  0.00    +0.003 C 
ATOM     14  C   UNL     1      36.319 -19.287 -20.828  0.00  0.00    +0.003 C 
BRANCH  12  15
ATOM     15  C   UNL     1      33.847 -19.836 -20.766  0.00  0.00    +0.003 C 
BRANCH  15  16
ATOM     16  C   UNL     1      34.371 -20.974 -19.881  0.00  0.00    +0.000 C 
BRANCH  16  17
ATOM     17  C   UNL     1      33.218 -21.704 -19.187  0.00  0.00    +0.000 C 
ATOM     18  C   UNL     1      33.717 -22.894 -18.383  0.00  0.00    +0.000 C 
ENDBRANCH  16  17
ENDBRANCH  15  16
ENDBRANCH  12  15
ENDBRANCH  11  12
BRANCH  11  19
ATOM     19  O   UNL     1      33.364 -17.215 -20.681  0.00  0.00    -0.380 OA
ATOM     20  H   UNL     1      33.454 -17.069 -19.727  0.00  0.00    +0.211 HD
ENDBRANCH  11  19
ENDBRANCH  10  11
ENDBRANCH   2   9
BRANCH   3  21
ATOM     21  C   UNL     1      33.684 -12.571 -23.677  0.00  0.00    +0.008 C 
BRANCH  21  22
ATOM     22  C   UNL     1      32.608 -11.693 -23.032  0.00  0.00    +0.001 C 
BRANCH  22  23
ATOM     23  C   UNL     1      31.805 -12.419 -21.948  0.00  0.00    +0.005 C 
BRANCH  23  24
ATOM     24  C   UNL     1      31.454 -11.519 -20.759  0.00  0.00    +0.026 C 
BRANCH  24  25
ATOM     25  C   UNL     1      31.829 -10.081 -20.979  0.00  0.00    -0.019 C 
ATOM     26  C   UNL     1      32.167  -9.249 -19.984  0.00  0.00    +0.077 C 
BRANCH  26  28
ATOM     27  O   UNL     1      32.890  -7.017 -19.467  0.00  0.00    -0.245 OA
ATOM     28  C   UNL     1      32.522  -7.845 -20.285  0.00  0.00    +0.341 C 
BRANCH  28  29
ATOM     29  O   UNL     1      32.360  -7.657 -21.623  0.00  0.00    -0.441 OA
ATOM     30  C   UNL     1      32.225  -6.295 -22.040  0.00  0.00    +0.256 C 
ENDBRANCH  28  29
ENDBRANCH  26  28
ENDBRANCH  24  25
ENDBRANCH  23  24
ENDBRANCH  22  23
ENDBRANCH  21  22
ENDBRANCH   3  21
TORSDOF 15
ENDMDL
MODEL 9
REMARK VINA RESULT:      -8.2      2.047      6.936
REMARK  Name = 5282237
REMARK  15 active torsions:
REMARK  status: ('A' for Active; 'I' for Inactive)
REMARK    1  A    between atoms: C_2  and  C_9
REMARK    2  A    between atoms: C_3  and  C_21
REMARK    3  A    between atoms: C_4  and  O_7
REMARK    4  A    between atoms: C_10  and  C_11
REMARK    5  A    between atoms: C_11  and  C_12
REMARK    6  A    between atoms: C_11  and  O_19
REMARK    7  A    between atoms: C_12  and  C_15
REMARK    8  A    between atoms: C_15  and  C_16
REMARK    9  A    between atoms: C_16  and  C_17
REMARK   10  A    between atoms: C_21  and  C_22
REMARK   11  A    between atoms: C_22  and  C_23
REMARK   12  A    between atoms: C_23  and  C_24
REMARK   13  A    between atoms: C_24  and  C_25
REMARK   14  A    between atoms: C_26  and  C_28
REMARK   15  A    between atoms: C_28  and  O_29
REMARK                            x       y       z     vdW  Elec       q    Type
REMARK                         _______ _______ _______ _____ _____    ______ ____
ROOT
ATOM      1  O   UNL     1      36.016 -25.412 -11.387  0.00  0.00    -0.296 OA
ATOM      2  C   UNL     1      36.135 -24.526 -14.807  0.00  0.00    +0.056 C 
ATOM      3  C   UNL     1      35.821 -24.043 -13.383  0.00  0.00    +0.064 C 
ATOM      4  C   UNL     1      37.425 -25.340 -14.643  0.00  0.00    +0.122 C 
ATOM      5  C   UNL     1      37.221 -26.123 -13.348  0.00  0.00    +0.094 C 
ATOM      6  C   UNL     1      36.311 -25.217 -12.560  0.00  0.00    +0.153 C 
ENDROOT
BRANCH   4   7
ATOM      7  O   UNL     1      37.586 -26.225 -15.740  0.00  0.00    -0.384 OA
ATOM      8  H   UNL     1      38.337 -26.815 -15.570  0.00  0.00    +0.210 HD
ENDBRANCH   4   7
BRANCH   2   9
ATOM      9  C   UNL     1      36.278 -23.398 -15.778  0.00  0.00    -0.026 C 
ATOM     10  C   UNL     1      35.321 -23.041 -16.649  0.00  0.00    -0.002 C 
BRANCH  10  11
ATOM     11  C   UNL     1      35.400 -21.921 -17.664  0.00  0.00    +0.132 C 
BRANCH  11  12
ATOM     12  C   UNL     1      34.565 -22.165 -18.965  0.00  0.00    +0.029 C 
ATOM     13  C   UNL     1      35.489 -22.173 -20.207  0.00  0.00    +0.003 C 
ATOM     14  C   UNL     1      33.892 -23.556 -18.894  0.00  0.00    +0.003 C 
BRANCH  12  15
ATOM     15  C   UNL     1      33.474 -21.076 -19.197  0.00  0.00    +0.003 C 
BRANCH  15  16
ATOM     16  C   UNL     1      33.230 -20.681 -20.659  0.00  0.00    +0.000 C 
BRANCH  16  17
ATOM     17  C   UNL     1      33.697 -19.247 -20.925  0.00  0.00    +0.000 C 
ATOM     18  C   UNL     1      34.378 -19.125 -22.279  0.00  0.00    +0.000 C 
ENDBRANCH  16  17
ENDBRANCH  15  16
ENDBRANCH  12  15
ENDBRANCH  11  12
BRANCH  11  19
ATOM     19  O   UNL     1      36.767 -21.671 -18.003  0.00  0.00    -0.380 OA
ATOM     20  H   UNL     1      37.333 -21.894 -17.247  0.00  0.00    +0.211 HD
ENDBRANCH  11  19
ENDBRANCH  10  11
ENDBRANCH   2   9
BRANCH   3  21
ATOM     21  C   UNL     1      34.349 -23.747 -13.156  0.00  0.00    +0.008 C 
BRANCH  21  22
ATOM     22  C   UNL     1      33.408 -24.709 -13.887  0.00  0.00    +0.001 C 
BRANCH  22  23
ATOM     23  C   UNL     1      32.030 -24.104 -14.174  0.00  0.00    +0.005 C 
BRANCH  23  24
ATOM     24  C   UNL     1      32.035 -23.142 -15.367  0.00  0.00    +0.026 C 
BRANCH  24  25
ATOM     25  C   UNL     1      30.805 -23.257 -16.222  0.00  0.00    -0.019 C 
ATOM     26  C   UNL     1      29.632 -22.694 -15.901  0.00  0.00    +0.077 C 
BRANCH  26  28
ATOM     27  O   UNL     1      28.193 -23.867 -17.427  0.00  0.00    -0.245 OA
ATOM     28  C   UNL     1      28.467 -22.856 -16.797  0.00  0.00    +0.341 C 
BRANCH  28  29
ATOM     29  O   UNL     1      27.774 -21.686 -16.787  0.00  0.00    -0.441 OA
ATOM     30  C   UNL     1      26.533 -21.701 -17.500  0.00  0.00    +0.256 C 
ENDBRANCH  28  29
ENDBRANCH  26  28
ENDBRANCH  24  25
ENDBRANCH  23  24
ENDBRANCH  22  23
ENDBRANCH  21  22
ENDBRANCH   3  21
TORSDOF 15
ENDMDL
