MODEL 1
REMARK VINA RESULT:      -5.7      0.000      0.000
REMARK  Name = 446719
REMARK  9 active torsions:
REMARK  status: ('A' for Active; 'I' for Inactive)
REMARK    1  A    between atoms: CA_1  and  N_2
REMARK    2  A    between atoms: CA_1  and  C_7
REMARK    3  A    between atoms: CA_1  and  C_10
REMARK    4  A    between atoms: C_7  and  O_8
REMARK    5  A    between atoms: C_10  and  C_11
REMARK    6  A    between atoms: C_11  and  C_12
REMARK    7  A    between atoms: C_12  and  C_13
REMARK    8  A    between atoms: C_13  and  C_15
REMARK    9  A    between atoms: C_15  and  O_16
REMARK                            x       y       z     vdW  Elec       q    Type
REMARK                         _______ _______ _______ _____ _____    ______ ____
ROOT
ATOM      1  CA  UNL     1      36.625 -23.548 -11.611  0.00  0.00    +0.036 C 
ENDROOT
BRANCH   1   2
ATOM      2  N   UNL     1      37.919 -24.219 -11.476  0.00  0.00    +0.389 N 
ATOM      3  H1  UNL     1      38.663 -23.584 -11.766  0.00  0.00    -0.088 HD
ATOM      4  H2  UNL     1      37.933 -25.051 -12.066  0.00  0.00    -0.088 HD
ATOM      5  H3  UNL     1      38.062 -24.489 -10.504  0.00  0.00    -0.088 HD
ENDBRANCH   1   2
BRANCH   1   7
ATOM      6  OXT UNL     1      35.433 -24.477  -9.694  0.00  0.00    -0.253 OA
ATOM      7  C   UNL     1      35.570 -24.383 -10.907  0.00  0.00    +0.293 C 
BRANCH   7   8
ATOM      8  O   UNL     1      34.768 -25.038 -11.788  0.00  0.00    -0.482 OA
ATOM      9  H   UNL     1      34.699 -24.736 -12.672  0.00  0.00    +0.295 HD
ENDBRANCH   7   8
ENDBRANCH   1   7
BRANCH   1  10
ATOM     10  C   UNL     1      36.267 -23.279 -13.080  0.00  0.00    -0.011 C 
BRANCH  10  11
ATOM     11  C   UNL     1      37.408 -23.516 -14.080  0.00  0.00    -0.001 C 
BRANCH  11  12
ATOM     12  C   UNL     1      36.994 -24.393 -15.266  0.00  0.00    +0.012 C 
BRANCH  12  13
ATOM     13  C   UNL     1      36.285 -25.678 -14.850  0.00  0.00    +0.109 C 
BRANCH  13  15
ATOM     14  O   UNL     1      38.226 -27.109 -14.704  0.00  0.00    -0.250 OA
ATOM     15  C   UNL     1      37.242 -26.619 -14.164  0.00  0.00    +0.314 C 
BRANCH  15  16
ATOM     16  O   UNL     1      36.888 -26.878 -12.881  0.00  0.00    -0.480 OA
ATOM     17  H   UNL     1      36.040 -27.230 -12.691  0.00  0.00    +0.295 HD
ENDBRANCH  15  16
ENDBRANCH  13  15
ENDBRANCH  12  13
ENDBRANCH  11  12
ENDBRANCH  10  11
ENDBRANCH   1  10
TORSDOF 9
ENDMDL
MODEL 2
REMARK VINA RESULT:      -5.7      2.572      4.942
REMARK  Name = 446719
REMARK  9 active torsions:
REMARK  status: ('A' for Active; 'I' for Inactive)
REMARK    1  A    between atoms: CA_1  and  N_2
REMARK    2  A    between atoms: CA_1  and  C_7
REMARK    3  A    between atoms: CA_1  and  C_10
REMARK    4  A    between atoms: C_7  and  O_8
REMARK    5  A    between atoms: C_10  and  C_11
REMARK    6  A    between atoms: C_11  and  C_12
REMARK    7  A    between atoms: C_12  and  C_13
REMARK    8  A    between atoms: C_13  and  C_15
REMARK    9  A    between atoms: C_15  and  O_16
REMARK                            x       y       z     vdW  Elec       q    Type
REMARK                         _______ _______ _______ _____ _____    ______ ____
ROOT
ATOM      1  CA  UNL     1      39.011 -25.204 -14.296  0.00  0.00    +0.036 C 
ENDROOT
BRANCH   1   2
ATOM      2  N   UNL     1      38.558 -24.390 -15.425  0.00  0.00    +0.389 N 
ATOM      3  H1  UNL     1      37.540 -24.327 -15.413  0.00  0.00    -0.088 HD
ATOM      4  H2  UNL     1      38.861 -24.822 -16.299  0.00  0.00    -0.088 HD
ATOM      5  H3  UNL     1      38.958 -23.455 -15.352  0.00  0.00    -0.088 HD
ENDBRANCH   1   2
BRANCH   1   7
ATOM      6  OXT UNL     1      41.037 -26.521 -13.947  0.00  0.00    -0.253 OA
ATOM      7  C   UNL     1      40.268 -25.950 -14.710  0.00  0.00    +0.293 C 
BRANCH   7   8
ATOM      8  O   UNL     1      40.461 -25.916 -16.055  0.00  0.00    -0.482 OA
ATOM      9  H   UNL     1      39.775 -26.185 -16.633  0.00  0.00    +0.295 HD
ENDBRANCH   7   8
ENDBRANCH   1   7
BRANCH   1  10
ATOM     10  C   UNL     1      37.913 -26.154 -13.794  0.00  0.00    -0.011 C 
BRANCH  10  11
ATOM     11  C   UNL     1      37.311 -25.785 -12.430  0.00  0.00    -0.001 C 
BRANCH  11  12
ATOM     12  C   UNL     1      36.027 -24.957 -12.544  0.00  0.00    +0.012 C 
BRANCH  12  13
ATOM     13  C   UNL     1      36.282 -23.458 -12.670  0.00  0.00    +0.109 C 
BRANCH  13  15
ATOM     14  O   UNL     1      36.916 -23.067 -10.372  0.00  0.00    -0.250 OA
ATOM     15  C   UNL     1      37.184 -22.975 -11.563  0.00  0.00    +0.314 C 
BRANCH  15  16
ATOM     16  O   UNL     1      38.326 -22.410 -12.030  0.00  0.00    -0.480 OA
ATOM     17  H   UNL     1      38.282 -21.735 -12.679  0.00  0.00    +0.295 HD
ENDBRANCH  15  16
ENDBRANCH  13  15
ENDBRANCH  12  13
ENDBRANCH  11  12
ENDBRANCH  10  11
ENDBRANCH   1  10
TORSDOF 9
ENDMDL
MODEL 3
REMARK VINA RESULT:      -5.6      2.139      4.478
REMARK  Name = 446719
REMARK  9 active torsions:
REMARK  status: ('A' for Active; 'I' for Inactive)
REMARK    1  A    between atoms: CA_1  and  N_2
REMARK    2  A    between atoms: CA_1  and  C_7
REMARK    3  A    between atoms: CA_1  and  C_10
REMARK    4  A    between atoms: C_7  and  O_8
REMARK    5  A    between atoms: C_10  and  C_11
REMARK    6  A    between atoms: C_11  and  C_12
REMARK    7  A    between atoms: C_12  and  C_13
REMARK    8  A    between atoms: C_13  and  C_15
REMARK    9  A    between atoms: C_15  and  O_16
REMARK                            x       y       z     vdW  Elec       q    Type
REMARK                         _______ _______ _______ _____ _____    ______ ____
ROOT
ATOM      1  CA  UNL     1      38.689 -25.601 -14.522  0.00  0.00    +0.036 C 
ENDROOT
BRANCH   1   2
ATOM      2  N   UNL     1      38.691 -26.081 -13.139  0.00  0.00    +0.389 N 
ATOM      3  H1  UNL     1      37.804 -25.844 -12.695  0.00  0.00    -0.088 HD
ATOM      4  H2  UNL     1      39.456 -25.639 -12.628  0.00  0.00    -0.088 HD
ATOM      5  H3  UNL     1      38.817 -27.092 -13.131  0.00  0.00    -0.088 HD
ENDBRANCH   1   2
BRANCH   1   7
ATOM      6  OXT UNL     1      40.935 -24.666 -14.319  0.00  0.00    -0.253 OA
ATOM      7  C   UNL     1      40.123 -25.336 -14.945  0.00  0.00    +0.293 C 
BRANCH   7   8
ATOM      8  O   UNL     1      40.424 -25.934 -16.128  0.00  0.00    -0.482 OA
ATOM      9  H   UNL     1      39.738 -26.162 -16.725  0.00  0.00    +0.295 HD
ENDBRANCH   7   8
ENDBRANCH   1   7
BRANCH   1  10
ATOM     10  C   UNL     1      37.794 -24.366 -14.701  0.00  0.00    -0.011 C 
BRANCH  10  11
ATOM     11  C   UNL     1      36.323 -24.673 -15.023  0.00  0.00    -0.001 C 
BRANCH  11  12
ATOM     12  C   UNL     1      35.413 -24.609 -13.793  0.00  0.00    +0.012 C 
BRANCH  12  13
ATOM     13  C   UNL     1      35.917 -23.655 -12.716  0.00  0.00    +0.109 C 
BRANCH  13  15
ATOM     14  O   UNL     1      35.289 -24.993 -10.805  0.00  0.00    -0.250 OA
ATOM     15  C   UNL     1      36.157 -24.389 -11.421  0.00  0.00    +0.314 C 
BRANCH  15  16
ATOM     16  O   UNL     1      37.444 -24.296 -11.000  0.00  0.00    -0.480 OA
ATOM     17  H   UNL     1      38.015 -25.037 -11.074  0.00  0.00    +0.295 HD
ENDBRANCH  15  16
ENDBRANCH  13  15
ENDBRANCH  12  13
ENDBRANCH  11  12
ENDBRANCH  10  11
ENDBRANCH   1  10
TORSDOF 9
ENDMDL
MODEL 4
REMARK VINA RESULT:      -5.6      1.854      2.362
REMARK  Name = 446719
REMARK  9 active torsions:
REMARK  status: ('A' for Active; 'I' for Inactive)
REMARK    1  A    between atoms: CA_1  and  N_2
REMARK    2  A    between atoms: CA_1  and  C_7
REMARK    3  A    between atoms: CA_1  and  C_10
REMARK    4  A    between atoms: C_7  and  O_8
REMARK    5  A    between atoms: C_10  and  C_11
REMARK    6  A    between atoms: C_11  and  C_12
REMARK    7  A    between atoms: C_12  and  C_13
REMARK    8  A    between atoms: C_13  and  C_15
REMARK    9  A    between atoms: C_15  and  O_16
REMARK                            x       y       z     vdW  Elec       q    Type
REMARK                         _______ _______ _______ _____ _____    ______ ____
ROOT
ATOM      1  CA  UNL     1      36.674 -23.380 -12.209  0.00  0.00    +0.036 C 
ENDROOT
BRANCH   1   2
ATOM      2  N   UNL     1      37.786 -23.653 -11.298  0.00  0.00    +0.389 N 
ATOM      3  H1  UNL     1      37.485 -23.497 -10.336  0.00  0.00    -0.088 HD
ATOM      4  H2  UNL     1      38.564 -23.029 -11.516  0.00  0.00    -0.088 HD
ATOM      5  H3  UNL     1      38.086 -24.620 -11.409  0.00  0.00    -0.088 HD
ENDBRANCH   1   2
BRANCH   1   7
ATOM      6  OXT UNL     1      35.449 -25.051 -10.918  0.00  0.00    -0.253 OA
ATOM      7  C   UNL     1      35.443 -24.113 -11.705  0.00  0.00    +0.293 C 
BRANCH   7   8
ATOM      8  O   UNL     1      34.297 -23.608 -12.233  0.00  0.00    -0.482 OA
ATOM      9  H   UNL     1      33.468 -23.843 -11.865  0.00  0.00    +0.295 HD
ENDBRANCH   7   8
ENDBRANCH   1   7
BRANCH   1  10
ATOM     10  C   UNL     1      37.014 -23.748 -13.660  0.00  0.00    -0.011 C 
BRANCH  10  11
ATOM     11  C   UNL     1      36.697 -25.199 -14.052  0.00  0.00    -0.001 C 
BRANCH  11  12
ATOM     12  C   UNL     1      37.919 -25.960 -14.576  0.00  0.00    +0.012 C 
BRANCH  12  13
ATOM     13  C   UNL     1      39.233 -25.492 -13.959  0.00  0.00    +0.109 C 
BRANCH  13  15
ATOM     14  O   UNL     1      41.306 -26.725 -14.109  0.00  0.00    -0.250 OA
ATOM     15  C   UNL     1      40.408 -26.111 -14.672  0.00  0.00    +0.314 C 
BRANCH  15  16
ATOM     16  O   UNL     1      40.373 -25.903 -16.012  0.00  0.00    -0.480 OA
ATOM     17  H   UNL     1      40.877 -26.449 -16.584  0.00  0.00    +0.295 HD
ENDBRANCH  15  16
ENDBRANCH  13  15
ENDBRANCH  12  13
ENDBRANCH  11  12
ENDBRANCH  10  11
ENDBRANCH   1  10
TORSDOF 9
ENDMDL
MODEL 5
REMARK VINA RESULT:      -5.5      1.769      4.329
REMARK  Name = 446719
REMARK  9 active torsions:
REMARK  status: ('A' for Active; 'I' for Inactive)
REMARK    1  A    between atoms: CA_1  and  N_2
REMARK    2  A    between atoms: CA_1  and  C_7
REMARK    3  A    between atoms: CA_1  and  C_10
REMARK    4  A    between atoms: C_7  and  O_8
REMARK    5  A    between atoms: C_10  and  C_11
REMARK    6  A    between atoms: C_11  and  C_12
REMARK    7  A    between atoms: C_12  and  C_13
REMARK    8  A    between atoms: C_13  and  C_15
REMARK    9  A    between atoms: C_15  and  O_16
REMARK                            x       y       z     vdW  Elec       q    Type
REMARK                         _______ _______ _______ _____ _____    ______ ____
ROOT
ATOM      1  CA  UNL     1      38.156 -26.326 -14.572  0.00  0.00    +0.036 C 
ENDROOT
BRANCH   1   2
ATOM      2  N   UNL     1      38.973 -25.367 -15.318  0.00  0.00    +0.389 N 
ATOM      3  H1  UNL     1      39.423 -24.724 -14.667  0.00  0.00    -0.088 HD
ATOM      4  H2  UNL     1      38.377 -24.841 -15.958  0.00  0.00    -0.088 HD
ATOM      5  H3  UNL     1      39.684 -25.867 -15.849  0.00  0.00    -0.088 HD
ENDBRANCH   1   2
BRANCH   1   7
ATOM      6  OXT UNL     1      35.787 -25.824 -14.880  0.00  0.00    -0.253 OA
ATOM      7  C   UNL     1      36.794 -26.424 -15.236  0.00  0.00    +0.293 C 
BRANCH   7   8
ATOM      8  O   UNL     1      36.804 -27.272 -16.298  0.00  0.00    -0.482 OA
ATOM      9  H   UNL     1      37.596 -27.408 -16.781  0.00  0.00    +0.295 HD
ENDBRANCH   7   8
ENDBRANCH   1   7
BRANCH   1  10
ATOM     10  C   UNL     1      38.052 -25.959 -13.085  0.00  0.00    -0.011 C 
BRANCH  10  11
ATOM     11  C   UNL     1      38.369 -24.493 -12.755  0.00  0.00    -0.001 C 
BRANCH  11  12
ATOM     12  C   UNL     1      37.121 -23.606 -12.702  0.00  0.00    +0.012 C 
BRANCH  12  13
ATOM     13  C   UNL     1      36.631 -23.335 -11.283  0.00  0.00    +0.109 C 
BRANCH  13  15
ATOM     14  O   UNL     1      35.309 -24.614  -9.717  0.00  0.00    -0.250 OA
ATOM     15  C   UNL     1      35.585 -24.342 -10.878  0.00  0.00    +0.314 C 
BRANCH  15  16
ATOM     16  O   UNL     1      34.986 -24.930 -11.945  0.00  0.00    -0.480 OA
ATOM     17  H   UNL     1      34.307 -25.562 -11.811  0.00  0.00    +0.295 HD
ENDBRANCH  15  16
ENDBRANCH  13  15
ENDBRANCH  12  13
ENDBRANCH  11  12
ENDBRANCH  10  11
ENDBRANCH   1  10
TORSDOF 9
ENDMDL
MODEL 6
REMARK VINA RESULT:      -5.4      2.507      4.625
REMARK  Name = 446719
REMARK  9 active torsions:
REMARK  status: ('A' for Active; 'I' for Inactive)
REMARK    1  A    between atoms: CA_1  and  N_2
REMARK    2  A    between atoms: CA_1  and  C_7
REMARK    3  A    between atoms: CA_1  and  C_10
REMARK    4  A    between atoms: C_7  and  O_8
REMARK    5  A    between atoms: C_10  and  C_11
REMARK    6  A    between atoms: C_11  and  C_12
REMARK    7  A    between atoms: C_12  and  C_13
REMARK    8  A    between atoms: C_13  and  C_15
REMARK    9  A    between atoms: C_15  and  O_16
REMARK                            x       y       z     vdW  Elec       q    Type
REMARK                         _______ _______ _______ _____ _____    ______ ____
ROOT
ATOM      1  CA  UNL     1      38.902 -25.150 -14.341  0.00  0.00    +0.036 C 
ENDROOT
BRANCH   1   2
ATOM      2  N   UNL     1      37.847 -25.523 -15.284  0.00  0.00    +0.389 N 
ATOM      3  H1  UNL     1      37.821 -24.850 -16.050  0.00  0.00    -0.088 HD
ATOM      4  H2  UNL     1      36.947 -25.524 -14.803  0.00  0.00    -0.088 HD
ATOM      5  H3  UNL     1      38.035 -26.453 -15.655  0.00  0.00    -0.088 HD
ENDBRANCH   1   2
BRANCH   1   7
ATOM      6  OXT UNL     1      40.930 -26.445 -13.927  0.00  0.00    -0.253 OA
ATOM      7  C   UNL     1      40.172 -25.895 -14.715  0.00  0.00    +0.293 C 
BRANCH   7   8
ATOM      8  O   UNL     1      40.391 -25.886 -16.057  0.00  0.00    -0.482 OA
ATOM      9  H   UNL     1      40.718 -25.112 -16.473  0.00  0.00    +0.295 HD
ENDBRANCH   7   8
ENDBRANCH   1   7
BRANCH   1  10
ATOM     10  C   UNL     1      38.489 -25.406 -12.884  0.00  0.00    -0.011 C 
BRANCH  10  11
ATOM     11  C   UNL     1      38.366 -24.145 -12.015  0.00  0.00    -0.001 C 
BRANCH  11  12
ATOM     12  C   UNL     1      36.989 -23.482 -12.111  0.00  0.00    +0.012 C 
BRANCH  12  13
ATOM     13  C   UNL     1      35.832 -24.470 -12.005  0.00  0.00    +0.109 C 
BRANCH  13  15
ATOM     14  O   UNL     1      35.041 -24.681 -14.278  0.00  0.00    -0.250 OA
ATOM     15  C   UNL     1      34.857 -24.275 -13.138  0.00  0.00    +0.314 C 
BRANCH  15  16
ATOM     16  O   UNL     1      33.751 -23.585 -12.761  0.00  0.00    -0.480 OA
ATOM     17  H   UNL     1      33.208 -23.181 -13.410  0.00  0.00    +0.295 HD
ENDBRANCH  15  16
ENDBRANCH  13  15
ENDBRANCH  12  13
ENDBRANCH  11  12
ENDBRANCH  10  11
ENDBRANCH   1  10
TORSDOF 9
ENDMDL
MODEL 7
REMARK VINA RESULT:      -5.4      6.983      7.738
REMARK  Name = 446719
REMARK  9 active torsions:
REMARK  status: ('A' for Active; 'I' for Inactive)
REMARK    1  A    between atoms: CA_1  and  N_2
REMARK    2  A    between atoms: CA_1  and  C_7
REMARK    3  A    between atoms: CA_1  and  C_10
REMARK    4  A    between atoms: C_7  and  O_8
REMARK    5  A    between atoms: C_10  and  C_11
REMARK    6  A    between atoms: C_11  and  C_12
REMARK    7  A    between atoms: C_12  and  C_13
REMARK    8  A    between atoms: C_13  and  C_15
REMARK    9  A    between atoms: C_15  and  O_16
REMARK                            x       y       z     vdW  Elec       q    Type
REMARK                         _______ _______ _______ _____ _____    ______ ____
ROOT
ATOM      1  CA  UNL     1      28.709 -23.212 -15.669  0.00  0.00    +0.036 C 
ENDROOT
BRANCH   1   2
ATOM      2  N   UNL     1      28.887 -24.665 -15.694  0.00  0.00    +0.389 N 
ATOM      3  H1  UNL     1      28.726 -25.043 -14.761  0.00  0.00    -0.088 HD
ATOM      4  H2  UNL     1      29.839 -24.884 -15.991  0.00  0.00    -0.088 HD
ATOM      5  H3  UNL     1      28.224 -25.077 -16.348  0.00  0.00    -0.088 HD
ENDBRANCH   1   2
BRANCH   1   7
ATOM      6  OXT UNL     1      27.536 -21.663 -17.147  0.00  0.00    -0.253 OA
ATOM      7  C   UNL     1      27.916 -22.800 -16.897  0.00  0.00    +0.293 C 
BRANCH   7   8
ATOM      8  O   UNL     1      27.661 -23.854 -17.716  0.00  0.00    -0.482 OA
ATOM      9  H   UNL     1      27.518 -23.712 -18.631  0.00  0.00    +0.295 HD
ENDBRANCH   7   8
ENDBRANCH   1   7
BRANCH   1  10
ATOM     10  C   UNL     1      30.049 -22.469 -15.567  0.00  0.00    -0.011 C 
BRANCH  10  11
ATOM     11  C   UNL     1      31.114 -22.910 -16.583  0.00  0.00    -0.001 C 
BRANCH  11  12
ATOM     12  C   UNL     1      32.425 -23.350 -15.925  0.00  0.00    +0.012 C 
BRANCH  12  13
ATOM     13  C   UNL     1      32.382 -23.307 -14.401  0.00  0.00    +0.109 C 
BRANCH  13  15
ATOM     14  O   UNL     1      31.398 -25.495 -14.118  0.00  0.00    -0.250 OA
ATOM     15  C   UNL     1      32.282 -24.698 -13.830  0.00  0.00    +0.314 C 
BRANCH  15  16
ATOM     16  O   UNL     1      33.274 -24.972 -12.946  0.00  0.00    -0.480 OA
ATOM     17  H   UNL     1      33.265 -24.577 -12.095  0.00  0.00    +0.295 HD
ENDBRANCH  15  16
ENDBRANCH  13  15
ENDBRANCH  12  13
ENDBRANCH  11  12
ENDBRANCH  10  11
ENDBRANCH   1  10
TORSDOF 9
ENDMDL
MODEL 8
REMARK VINA RESULT:      -5.3      1.871      3.998
REMARK  Name = 446719
REMARK  9 active torsions:
REMARK  status: ('A' for Active; 'I' for Inactive)
REMARK    1  A    between atoms: CA_1  and  N_2
REMARK    2  A    between atoms: CA_1  and  C_7
REMARK    3  A    between atoms: CA_1  and  C_10
REMARK    4  A    between atoms: C_7  and  O_8
REMARK    5  A    between atoms: C_10  and  C_11
REMARK    6  A    between atoms: C_11  and  C_12
REMARK    7  A    between atoms: C_12  and  C_13
REMARK    8  A    between atoms: C_13  and  C_15
REMARK    9  A    between atoms: C_15  and  O_16
REMARK                            x       y       z     vdW  Elec       q    Type
REMARK                         _______ _______ _______ _____ _____    ______ ____
ROOT
ATOM      1  CA  UNL     1      37.075 -25.913 -15.000  0.00  0.00    +0.036 C 
ENDROOT
BRANCH   1   2
ATOM      2  N   UNL     1      36.123 -26.965 -15.361  0.00  0.00    +0.389 N 
ATOM      3  H1  UNL     1      35.687 -26.737 -16.255  0.00  0.00    -0.088 HD
ATOM      4  H2  UNL     1      35.404 -27.033 -14.640  0.00  0.00    -0.088 HD
ATOM      5  H3  UNL     1      36.613 -27.855 -15.438  0.00  0.00    -0.088 HD
ENDBRANCH   1   2
BRANCH   1   7
ATOM      6  OXT UNL     1      38.908 -26.071 -13.396  0.00  0.00    -0.253 OA
ATOM      7  C   UNL     1      37.739 -26.289 -13.687  0.00  0.00    +0.293 C 
BRANCH   7   8
ATOM      8  O   UNL     1      36.877 -26.914 -12.842  0.00  0.00    -0.482 OA
ATOM      9  H   UNL     1      36.737 -26.574 -11.980  0.00  0.00    +0.295 HD
ENDBRANCH   7   8
ENDBRANCH   1   7
BRANCH   1  10
ATOM     10  C   UNL     1      36.409 -24.530 -14.938  0.00  0.00    -0.011 C 
BRANCH  10  11
ATOM     11  C   UNL     1      34.910 -24.547 -14.602  0.00  0.00    -0.001 C 
BRANCH  11  12
ATOM     12  C   UNL     1      34.613 -24.123 -13.161  0.00  0.00    +0.012 C 
BRANCH  12  13
ATOM     13  C   UNL     1      35.820 -23.527 -12.444  0.00  0.00    +0.109 C 
BRANCH  13  15
ATOM     14  O   UNL     1      36.659 -23.627 -10.181  0.00  0.00    -0.250 OA
ATOM     15  C   UNL     1      35.966 -24.116 -11.064  0.00  0.00    +0.314 C 
BRANCH  15  16
ATOM     16  O   UNL     1      35.255 -25.260 -10.907  0.00  0.00    -0.480 OA
ATOM     17  H   UNL     1      35.048 -25.569 -10.046  0.00  0.00    +0.295 HD
ENDBRANCH  15  16
ENDBRANCH  13  15
ENDBRANCH  12  13
ENDBRANCH  11  12
ENDBRANCH  10  11
ENDBRANCH   1  10
TORSDOF 9
ENDMDL
MODEL 9
REMARK VINA RESULT:      -5.3     12.518     13.481
REMARK  Name = 446719
REMARK  9 active torsions:
REMARK  status: ('A' for Active; 'I' for Inactive)
REMARK    1  A    between atoms: CA_1  and  N_2
REMARK    2  A    between atoms: CA_1  and  C_7
REMARK    3  A    between atoms: CA_1  and  C_10
REMARK    4  A    between atoms: C_7  and  O_8
REMARK    5  A    between atoms: C_10  and  C_11
REMARK    6  A    between atoms: C_11  and  C_12
REMARK    7  A    between atoms: C_12  and  C_13
REMARK    8  A    between atoms: C_13  and  C_15
REMARK    9  A    between atoms: C_15  and  O_16
REMARK                            x       y       z     vdW  Elec       q    Type
REMARK                         _______ _______ _______ _____ _____    ______ ____
ROOT
ATOM      1  CA  UNL     1      35.440 -17.848 -21.716  0.00  0.00    +0.036 C 
ENDROOT
BRANCH   1   2
ATOM      2  N   UNL     1      36.049 -18.636 -20.644  0.00  0.00    +0.389 N 
ATOM      3  H1  UNL     1      37.027 -18.817 -20.868  0.00  0.00    -0.088 HD
ATOM      4  H2  UNL     1      35.552 -19.523 -20.550  0.00  0.00    -0.088 HD
ATOM      5  H3  UNL     1      35.990 -18.120 -19.767  0.00  0.00    -0.088 HD
ENDBRANCH   1   2
BRANCH   1   7
ATOM      6  OXT UNL     1      35.089 -16.083 -20.066  0.00  0.00    -0.253 OA
ATOM      7  C   UNL     1      34.750 -16.643 -21.101  0.00  0.00    +0.293 C 
BRANCH   7   8
ATOM      8  O   UNL     1      33.683 -16.236 -21.838  0.00  0.00    -0.482 OA
ATOM      9  H   UNL     1      32.850 -16.113 -21.428  0.00  0.00    +0.295 HD
ENDBRANCH   7   8
ENDBRANCH   1   7
BRANCH   1  10
ATOM     10  C   UNL     1      34.483 -18.688 -22.576  0.00  0.00    -0.011 C 
BRANCH  10  11
ATOM     11  C   UNL     1      35.011 -19.045 -23.973  0.00  0.00    -0.001 C 
BRANCH  11  12
ATOM     12  C   UNL     1      34.345 -18.238 -25.091  0.00  0.00    +0.012 C 
BRANCH  12  13
ATOM     13  C   UNL     1      34.893 -16.821 -25.224  0.00  0.00    +0.109 C 
BRANCH  13  15
ATOM     14  O   UNL     1      33.305 -15.656 -26.622  0.00  0.00    -0.250 OA
ATOM     15  C   UNL     1      33.783 -15.843 -25.511  0.00  0.00    +0.314 C 
BRANCH  15  16
ATOM     16  O   UNL     1      33.375 -15.177 -24.401  0.00  0.00    -0.480 OA
ATOM     17  H   UNL     1      32.595 -14.658 -24.427  0.00  0.00    +0.295 HD
ENDBRANCH  15  16
ENDBRANCH  13  15
ENDBRANCH  12  13
ENDBRANCH  11  12
ENDBRANCH  10  11
ENDBRANCH   1  10
TORSDOF 9
ENDMDL
