MODEL 1
REMARK VINA RESULT:      -9.5      0.000      0.000
REMARK  Name = 5004
REMARK  4 active torsions:
REMARK  status: ('A' for Active; 'I' for Inactive)
REMARK    1  A    between atoms: C_9  and  O_17
REMARK    2  A    between atoms: C_10  and  O_19
REMARK    3  A    between atoms: C_11  and  O_21
REMARK    4  A    between atoms: C_13  and  O_23
REMARK                            x       y       z     vdW  Elec       q    Type
REMARK                         _______ _______ _______ _____ _____    ______ ____
ROOT
ATOM      1  O   UNL     1      36.929 -23.260 -16.477  0.00  0.00    -0.286 OA
ATOM      2  O   UNL     1      33.155 -24.376 -12.862  0.00  0.00    -0.286 OA
ATOM      3  C   UNL     1      34.637 -23.357 -15.973  0.00  0.00    +0.079 C 
ATOM      4  C   UNL     1      36.446 -23.995 -14.300  0.00  0.00    +0.079 C 
ATOM      5  C   UNL     1      35.465 -24.288 -13.350  0.00  0.00    +0.079 C 
ATOM      6  C   UNL     1      33.655 -23.649 -15.023  0.00  0.00    +0.045 C 
ATOM      7  C   UNL     1      36.068 -23.519 -15.647  0.00  0.00    +0.202 C 
ATOM      8  C   UNL     1      34.033 -24.126 -13.677  0.00  0.00    +0.199 C 
ATOM      9  C   UNL     1      34.264 -22.907 -17.246  0.00  0.00    +0.171 C 
ATOM     10  C   UNL     1      37.799 -24.152 -13.978  0.00  0.00    +0.137 C 
ATOM     11  C   UNL     1      35.837 -24.739 -12.078  0.00  0.00    +0.137 C 
ATOM     12  C   UNL     1      32.301 -23.493 -15.346  0.00  0.00    +0.007 C 
ATOM     13  C   UNL     1      32.915 -22.752 -17.563  0.00  0.00    +0.168 C 
ATOM     14  C   UNL     1      31.935 -23.043 -16.615  0.00  0.00    +0.040 C 
ATOM     15  C   UNL     1      38.166 -24.603 -12.708  0.00  0.00    +0.040 C 
ATOM     16  C   UNL     1      37.187 -24.895 -11.761  0.00  0.00    +0.040 C 
ENDROOT
BRANCH   9  17
ATOM     17  O   UNL     1      35.179 -22.606 -18.212  0.00  0.00    -0.503 OA
ATOM     18  H   UNL     1      34.899 -22.464 -19.095  0.00  0.00    +0.292 HD
ENDBRANCH   9  17
BRANCH  10  19
ATOM     19  O   UNL     1      38.808 -23.884 -14.854  0.00  0.00    -0.505 OA
ATOM     20  H   UNL     1      39.666 -23.688 -14.535  0.00  0.00    +0.292 HD
ENDBRANCH  10  19
BRANCH  11  21
ATOM     21  O   UNL     1      34.930 -25.042 -11.106  0.00  0.00    -0.505 OA
ATOM     22  H   UNL     1      34.862 -25.920 -10.786  0.00  0.00    +0.292 HD
ENDBRANCH  11  21
BRANCH  13  23
ATOM     23  O   UNL     1      32.535 -22.313 -18.797  0.00  0.00    -0.503 OA
ATOM     24  H   UNL     1      32.789 -22.791 -19.562  0.00  0.00    +0.292 HD
ENDBRANCH  13  23
TORSDOF 4
ENDMDL
MODEL 2
REMARK VINA RESULT:      -9.5      9.502     12.140
REMARK  Name = 5004
REMARK  4 active torsions:
REMARK  status: ('A' for Active; 'I' for Inactive)
REMARK    1  A    between atoms: C_9  and  O_17
REMARK    2  A    between atoms: C_10  and  O_19
REMARK    3  A    between atoms: C_11  and  O_21
REMARK    4  A    between atoms: C_13  and  O_23
REMARK                            x       y       z     vdW  Elec       q    Type
REMARK                         _______ _______ _______ _____ _____    ______ ____
ROOT
ATOM      1  O   UNL     1      34.042 -17.360 -25.806  0.00  0.00    -0.286 OA
ATOM      2  O   UNL     1      34.586 -14.456 -21.353  0.00  0.00    -0.286 OA
ATOM      3  C   UNL     1      33.921 -15.243 -24.796  0.00  0.00    +0.079 C 
ATOM      4  C   UNL     1      34.566 -17.348 -23.518  0.00  0.00    +0.079 C 
ATOM      5  C   UNL     1      34.711 -16.595 -22.350  0.00  0.00    +0.079 C 
ATOM      6  C   UNL     1      34.066 -14.490 -23.629  0.00  0.00    +0.045 C 
ATOM      7  C   UNL     1      34.166 -16.699 -24.784  0.00  0.00    +0.202 C 
ATOM      8  C   UNL     1      34.465 -15.138 -22.363  0.00  0.00    +0.199 C 
ATOM      9  C   UNL     1      33.540 -14.616 -25.988  0.00  0.00    +0.171 C 
ATOM     10  C   UNL     1      34.801 -18.728 -23.493  0.00  0.00    +0.137 C 
ATOM     11  C   UNL     1      35.090 -17.222 -21.158  0.00  0.00    +0.137 C 
ATOM     12  C   UNL     1      33.829 -13.109 -23.654  0.00  0.00    +0.007 C 
ATOM     13  C   UNL     1      33.306 -13.241 -26.009  0.00  0.00    +0.168 C 
ATOM     14  C   UNL     1      33.451 -12.489 -24.845  0.00  0.00    +0.040 C 
ATOM     15  C   UNL     1      35.179 -19.349 -22.301  0.00  0.00    +0.040 C 
ATOM     16  C   UNL     1      35.323 -18.598 -21.136  0.00  0.00    +0.040 C 
ENDROOT
BRANCH   9  17
ATOM     17  O   UNL     1      33.384 -15.301 -27.158  0.00  0.00    -0.503 OA
ATOM     18  H   UNL     1      32.557 -15.689 -27.367  0.00  0.00    +0.292 HD
ENDBRANCH   9  17
BRANCH  10  19
ATOM     19  O   UNL     1      34.680 -19.522 -24.593  0.00  0.00    -0.505 OA
ATOM     20  H   UNL     1      33.840 -19.851 -24.844  0.00  0.00    +0.292 HD
ENDBRANCH  10  19
BRANCH  11  21
ATOM     21  O   UNL     1      35.249 -16.546 -19.984  0.00  0.00    -0.505 OA
ATOM     22  H   UNL     1      35.121 -15.618 -19.957  0.00  0.00    +0.292 HD
ENDBRANCH  11  21
BRANCH  13  23
ATOM     23  O   UNL     1      32.937 -12.614 -27.163  0.00  0.00    -0.503 OA
ATOM     24  H   UNL     1      33.236 -12.939 -27.988  0.00  0.00    +0.292 HD
ENDBRANCH  13  23
TORSDOF 4
ENDMDL
MODEL 3
REMARK VINA RESULT:      -9.5      2.031      4.698
REMARK  Name = 5004
REMARK  4 active torsions:
REMARK  status: ('A' for Active; 'I' for Inactive)
REMARK    1  A    between atoms: C_9  and  O_17
REMARK    2  A    between atoms: C_10  and  O_19
REMARK    3  A    between atoms: C_11  and  O_21
REMARK    4  A    between atoms: C_13  and  O_23
REMARK                            x       y       z     vdW  Elec       q    Type
REMARK                         _______ _______ _______ _____ _____    ______ ____
ROOT
ATOM      1  O   UNL     1      35.456 -23.716 -13.980  0.00  0.00    -0.286 OA
ATOM      2  O   UNL     1      32.526 -22.605 -18.308  0.00  0.00    -0.286 OA
ATOM      3  C   UNL     1      33.343 -23.758 -15.005  0.00  0.00    +0.079 C 
ATOM      4  C   UNL     1      35.419 -22.844 -16.160  0.00  0.00    +0.079 C 
ATOM      5  C   UNL     1      34.660 -22.552 -17.295  0.00  0.00    +0.079 C 
ATOM      6  C   UNL     1      32.583 -23.466 -16.140  0.00  0.00    +0.045 C 
ATOM      7  C   UNL     1      34.789 -23.459 -14.973  0.00  0.00    +0.202 C 
ATOM      8  C   UNL     1      33.213 -22.851 -17.326  0.00  0.00    +0.199 C 
ATOM      9  C   UNL     1      32.733 -24.339 -13.887  0.00  0.00    +0.171 C 
ATOM     10  C   UNL     1      36.789 -22.556 -16.143  0.00  0.00    +0.137 C 
ATOM     11  C   UNL     1      35.269 -21.970 -18.412  0.00  0.00    +0.137 C 
ATOM     12  C   UNL     1      31.212 -23.754 -16.156  0.00  0.00    +0.007 C 
ATOM     13  C   UNL     1      31.367 -24.625 -13.907  0.00  0.00    +0.168 C 
ATOM     14  C   UNL     1      30.609 -24.334 -15.040  0.00  0.00    +0.040 C 
ATOM     15  C   UNL     1      37.393 -21.975 -17.259  0.00  0.00    +0.040 C 
ATOM     16  C   UNL     1      36.635 -21.683 -18.391  0.00  0.00    +0.040 C 
ENDROOT
BRANCH   9  17
ATOM     17  O   UNL     1      33.425 -24.646 -12.752  0.00  0.00    -0.503 OA
ATOM     18  H   UNL     1      33.939 -23.990 -12.324  0.00  0.00    +0.292 HD
ENDBRANCH   9  17
BRANCH  10  19
ATOM     19  O   UNL     1      37.590 -22.815 -15.071  0.00  0.00    -0.505 OA
ATOM     20  H   UNL     1      38.436 -23.195 -15.200  0.00  0.00    +0.292 HD
ENDBRANCH  10  19
BRANCH  11  21
ATOM     21  O   UNL     1      34.586 -21.659 -19.550  0.00  0.00    -0.505 OA
ATOM     22  H   UNL     1      34.597 -20.782 -19.879  0.00  0.00    +0.292 HD
ENDBRANCH  11  21
BRANCH  13  23
ATOM     23  O   UNL     1      30.758 -25.192 -12.828  0.00  0.00    -0.503 OA
ATOM     24  H   UNL     1      31.272 -25.499 -12.108  0.00  0.00    +0.292 HD
ENDBRANCH  13  23
TORSDOF 4
ENDMDL
MODEL 4
REMARK VINA RESULT:      -9.3      1.256      2.121
REMARK  Name = 5004
REMARK  4 active torsions:
REMARK  status: ('A' for Active; 'I' for Inactive)
REMARK    1  A    between atoms: C_9  and  O_17
REMARK    2  A    between atoms: C_10  and  O_19
REMARK    3  A    between atoms: C_11  and  O_21
REMARK    4  A    between atoms: C_13  and  O_23
REMARK                            x       y       z     vdW  Elec       q    Type
REMARK                         _______ _______ _______ _____ _____    ______ ____
ROOT
ATOM      1  O   UNL     1      34.506 -22.685 -17.395  0.00  0.00    -0.286 OA
ATOM      2  O   UNL     1      33.186 -24.814 -12.674  0.00  0.00    -0.286 OA
ATOM      3  C   UNL     1      32.792 -23.307 -15.913  0.00  0.00    +0.079 C 
ATOM      4  C   UNL     1      35.261 -23.640 -15.387  0.00  0.00    +0.079 C 
ATOM      5  C   UNL     1      34.923 -24.198 -14.152  0.00  0.00    +0.079 C 
ATOM      6  C   UNL     1      32.455 -23.864 -14.677  0.00  0.00    +0.045 C 
ATOM      7  C   UNL     1      34.208 -23.175 -16.313  0.00  0.00    +0.202 C 
ATOM      8  C   UNL     1      33.507 -24.330 -13.752  0.00  0.00    +0.199 C 
ATOM      9  C   UNL     1      31.785 -22.871 -16.781  0.00  0.00    +0.171 C 
ATOM     10  C   UNL     1      36.606 -23.520 -15.755  0.00  0.00    +0.137 C 
ATOM     11  C   UNL     1      35.931 -24.635 -13.284  0.00  0.00    +0.137 C 
ATOM     12  C   UNL     1      31.108 -23.985 -14.310  0.00  0.00    +0.007 C 
ATOM     13  C   UNL     1      30.445 -22.993 -16.411  0.00  0.00    +0.168 C 
ATOM     14  C   UNL     1      30.107 -23.548 -15.178  0.00  0.00    +0.040 C 
ATOM     15  C   UNL     1      37.608 -23.958 -14.887  0.00  0.00    +0.040 C 
ATOM     16  C   UNL     1      37.271 -24.514 -13.655  0.00  0.00    +0.040 C 
ENDROOT
BRANCH   9  17
ATOM     17  O   UNL     1      32.056 -22.319 -17.999  0.00  0.00    -0.503 OA
ATOM     18  H   UNL     1      31.369 -22.208 -18.626  0.00  0.00    +0.292 HD
ENDBRANCH   9  17
BRANCH  10  19
ATOM     19  O   UNL     1      37.007 -22.986 -16.943  0.00  0.00    -0.505 OA
ATOM     20  H   UNL     1      36.404 -22.492 -17.462  0.00  0.00    +0.292 HD
ENDBRANCH  10  19
BRANCH  11  21
ATOM     21  O   UNL     1      35.670 -25.187 -12.065  0.00  0.00    -0.505 OA
ATOM     22  H   UNL     1      34.870 -25.654 -11.925  0.00  0.00    +0.292 HD
ENDBRANCH  11  21
BRANCH  13  23
ATOM     23  O   UNL     1      29.451 -22.571 -17.244  0.00  0.00    -0.503 OA
ATOM     24  H   UNL     1      28.887 -21.870 -16.983  0.00  0.00    +0.292 HD
ENDBRANCH  13  23
TORSDOF 4
ENDMDL
MODEL 5
REMARK VINA RESULT:      -9.2      1.203      5.942
REMARK  Name = 5004
REMARK  4 active torsions:
REMARK  status: ('A' for Active; 'I' for Inactive)
REMARK    1  A    between atoms: C_9  and  O_17
REMARK    2  A    between atoms: C_10  and  O_19
REMARK    3  A    between atoms: C_11  and  O_21
REMARK    4  A    between atoms: C_13  and  O_23
REMARK                            x       y       z     vdW  Elec       q    Type
REMARK                         _______ _______ _______ _____ _____    ______ ____
ROOT
ATOM      1  O   UNL     1      33.313 -24.756 -12.655  0.00  0.00    -0.286 OA
ATOM      2  O   UNL     1      34.777 -22.821 -17.416  0.00  0.00    -0.286 OA
ATOM      3  C   UNL     1      35.069 -24.234 -14.125  0.00  0.00    +0.079 C 
ATOM      4  C   UNL     1      32.620 -23.849 -14.707  0.00  0.00    +0.079 C 
ATOM      5  C   UNL     1      32.996 -23.342 -15.953  0.00  0.00    +0.079 C 
ATOM      6  C   UNL     1      35.444 -23.726 -15.371  0.00  0.00    +0.045 C 
ATOM      7  C   UNL     1      33.644 -24.314 -13.747  0.00  0.00    +0.202 C 
ATOM      8  C   UNL     1      34.422 -23.263 -16.331  0.00  0.00    +0.199 C 
ATOM      9  C   UNL     1      36.048 -24.671 -13.226  0.00  0.00    +0.171 C 
ATOM     10  C   UNL     1      31.266 -23.919 -14.361  0.00  0.00    +0.137 C 
ATOM     11  C   UNL     1      32.017 -22.905 -16.853  0.00  0.00    +0.137 C 
ATOM     12  C   UNL     1      36.800 -23.657 -15.717  0.00  0.00    +0.007 C 
ATOM     13  C   UNL     1      37.397 -24.600 -13.574  0.00  0.00    +0.168 C 
ATOM     14  C   UNL     1      37.772 -24.093 -14.817  0.00  0.00    +0.040 C 
ATOM     15  C   UNL     1      30.292 -23.484 -15.262  0.00  0.00    +0.040 C 
ATOM     16  C   UNL     1      30.668 -22.978 -16.505  0.00  0.00    +0.040 C 
ENDROOT
BRANCH   9  17
ATOM     17  O   UNL     1      35.740 -25.175 -11.995  0.00  0.00    -0.503 OA
ATOM     18  H   UNL     1      35.537 -26.085 -11.899  0.00  0.00    +0.292 HD
ENDBRANCH   9  17
BRANCH  10  19
ATOM     19  O   UNL     1      30.829 -24.401 -13.163  0.00  0.00    -0.505 OA
ATOM     20  H   UNL     1      30.599 -25.305 -13.078  0.00  0.00    +0.292 HD
ENDBRANCH  10  19
BRANCH  11  21
ATOM     21  O   UNL     1      32.316 -22.401 -18.084  0.00  0.00    -0.505 OA
ATOM     22  H   UNL     1      32.135 -21.502 -18.278  0.00  0.00    +0.292 HD
ENDBRANCH  11  21
BRANCH  13  23
ATOM     23  O   UNL     1      38.364 -25.020 -12.709  0.00  0.00    -0.503 OA
ATOM     24  H   UNL     1      38.553 -25.934 -12.626  0.00  0.00    +0.292 HD
ENDBRANCH  13  23
TORSDOF 4
ENDMDL
MODEL 6
REMARK VINA RESULT:      -9.2      0.977      3.362
REMARK  Name = 5004
REMARK  4 active torsions:
REMARK  status: ('A' for Active; 'I' for Inactive)
REMARK    1  A    between atoms: C_9  and  O_17
REMARK    2  A    between atoms: C_10  and  O_19
REMARK    3  A    between atoms: C_11  and  O_21
REMARK    4  A    between atoms: C_13  and  O_23
REMARK                            x       y       z     vdW  Elec       q    Type
REMARK                         _______ _______ _______ _____ _____    ______ ____
ROOT
ATOM      1  O   UNL     1      33.067 -24.435 -12.921  0.00  0.00    -0.286 OA
ATOM      2  O   UNL     1      36.526 -23.124 -16.778  0.00  0.00    -0.286 OA
ATOM      3  C   UNL     1      33.386 -23.634 -15.106  0.00  0.00    +0.079 C 
ATOM      4  C   UNL     1      35.317 -24.269 -13.572  0.00  0.00    +0.079 C 
ATOM      5  C   UNL     1      36.226 -23.928 -14.576  0.00  0.00    +0.079 C 
ATOM      6  C   UNL     1      34.296 -23.295 -16.110  0.00  0.00    +0.045 C 
ATOM      7  C   UNL     1      33.863 -24.134 -13.801  0.00  0.00    +0.202 C 
ATOM      8  C   UNL     1      35.749 -23.428 -15.882  0.00  0.00    +0.199 C 
ATOM      9  C   UNL     1      32.012 -23.501 -15.335  0.00  0.00    +0.171 C 
ATOM     10  C   UNL     1      35.782 -24.741 -12.339  0.00  0.00    +0.137 C 
ATOM     11  C   UNL     1      37.601 -24.060 -14.347  0.00  0.00    +0.137 C 
ATOM     12  C   UNL     1      33.830 -22.821 -17.343  0.00  0.00    +0.007 C 
ATOM     13  C   UNL     1      31.552 -23.030 -16.565  0.00  0.00    +0.168 C 
ATOM     14  C   UNL     1      32.459 -22.691 -17.567  0.00  0.00    +0.040 C 
ATOM     15  C   UNL     1      37.153 -24.871 -12.115  0.00  0.00    +0.040 C 
ATOM     16  C   UNL     1      38.061 -24.531 -13.116  0.00  0.00    +0.040 C 
ENDROOT
BRANCH   9  17
ATOM     17  O   UNL     1      31.078 -23.818 -14.392  0.00  0.00    -0.503 OA
ATOM     18  H   UNL     1      30.357 -24.373 -14.614  0.00  0.00    +0.292 HD
ENDBRANCH   9  17
BRANCH  10  19
ATOM     19  O   UNL     1      34.951 -25.093 -11.317  0.00  0.00    -0.505 OA
ATOM     20  H   UNL     1      34.045 -24.858 -11.348  0.00  0.00    +0.292 HD
ENDBRANCH  10  19
BRANCH  11  21
ATOM     21  O   UNL     1      38.541 -23.746 -15.284  0.00  0.00    -0.505 OA
ATOM     22  H   UNL     1      39.451 -23.793 -15.068  0.00  0.00    +0.292 HD
ENDBRANCH  11  21
BRANCH  13  23
ATOM     23  O   UNL     1      30.217 -22.896 -16.805  0.00  0.00    -0.503 OA
ATOM     24  H   UNL     1      29.744 -22.177 -16.435  0.00  0.00    +0.292 HD
ENDBRANCH  13  23
TORSDOF 4
ENDMDL
MODEL 7
REMARK VINA RESULT:      -9.2      1.295      5.899
REMARK  Name = 5004
REMARK  4 active torsions:
REMARK  status: ('A' for Active; 'I' for Inactive)
REMARK    1  A    between atoms: C_9  and  O_17
REMARK    2  A    between atoms: C_10  and  O_19
REMARK    3  A    between atoms: C_11  and  O_21
REMARK    4  A    between atoms: C_13  and  O_23
REMARK                            x       y       z     vdW  Elec       q    Type
REMARK                         _______ _______ _______ _____ _____    ______ ____
ROOT
ATOM      1  O   UNL     1      32.649 -23.957 -15.136  0.00  0.00    -0.286 OA
ATOM      2  O   UNL     1      37.671 -22.436 -16.145  0.00  0.00    -0.286 OA
ATOM      3  C   UNL     1      34.858 -23.780 -14.358  0.00  0.00    +0.079 C 
ATOM      4  C   UNL     1      34.145 -23.008 -16.676  0.00  0.00    +0.079 C 
ATOM      5  C   UNL     1      35.455 -22.608 -16.947  0.00  0.00    +0.079 C 
ATOM      6  C   UNL     1      36.169 -23.379 -14.628  0.00  0.00    +0.045 C 
ATOM      7  C   UNL     1      33.798 -23.609 -15.372  0.00  0.00    +0.202 C 
ATOM      8  C   UNL     1      36.515 -22.779 -15.932  0.00  0.00    +0.199 C 
ATOM      9  C   UNL     1      34.544 -24.349 -13.118  0.00  0.00    +0.171 C 
ATOM     10  C   UNL     1      33.149 -22.841 -17.646  0.00  0.00    +0.137 C 
ATOM     11  C   UNL     1      35.770 -22.040 -18.187  0.00  0.00    +0.137 C 
ATOM     12  C   UNL     1      37.165 -23.548 -13.658  0.00  0.00    +0.007 C 
ATOM     13  C   UNL     1      35.539 -24.514 -12.154  0.00  0.00    +0.168 C 
ATOM     14  C   UNL     1      36.846 -24.114 -12.423  0.00  0.00    +0.040 C 
ATOM     15  C   UNL     1      33.467 -22.275 -18.882  0.00  0.00    +0.040 C 
ATOM     16  C   UNL     1      34.775 -21.876 -19.151  0.00  0.00    +0.040 C 
ENDROOT
BRANCH   9  17
ATOM     17  O   UNL     1      33.282 -24.758 -12.799  0.00  0.00    -0.503 OA
ATOM     18  H   UNL     1      32.978 -24.695 -11.915  0.00  0.00    +0.292 HD
ENDBRANCH   9  17
BRANCH  10  19
ATOM     19  O   UNL     1      31.851 -23.207 -17.450  0.00  0.00    -0.505 OA
ATOM     20  H   UNL     1      31.169 -22.570 -17.518  0.00  0.00    +0.292 HD
ENDBRANCH  10  19
BRANCH  11  21
ATOM     21  O   UNL     1      37.028 -21.629 -18.514  0.00  0.00    -0.505 OA
ATOM     22  H   UNL     1      37.759 -22.197 -18.370  0.00  0.00    +0.292 HD
ENDBRANCH  11  21
BRANCH  13  23
ATOM     23  O   UNL     1      35.249 -25.065 -10.941  0.00  0.00    -0.503 OA
ATOM     24  H   UNL     1      34.962 -24.519 -10.235  0.00  0.00    +0.292 HD
ENDBRANCH  13  23
TORSDOF 4
ENDMDL
MODEL 8
REMARK VINA RESULT:      -9.2      1.058      4.916
REMARK  Name = 5004
REMARK  4 active torsions:
REMARK  status: ('A' for Active; 'I' for Inactive)
REMARK    1  A    between atoms: C_9  and  O_17
REMARK    2  A    between atoms: C_10  and  O_19
REMARK    3  A    between atoms: C_11  and  O_21
REMARK    4  A    between atoms: C_13  and  O_23
REMARK                            x       y       z     vdW  Elec       q    Type
REMARK                         _______ _______ _______ _____ _____    ______ ____
ROOT
ATOM      1  O   UNL     1      34.555 -22.678 -17.532  0.00  0.00    -0.286 OA
ATOM      2  O   UNL     1      33.520 -24.664 -12.680  0.00  0.00    -0.286 OA
ATOM      3  C   UNL     1      35.411 -23.540 -15.521  0.00  0.00    +0.079 C 
ATOM      4  C   UNL     1      32.917 -23.278 -15.960  0.00  0.00    +0.079 C 
ATOM      5  C   UNL     1      32.639 -23.796 -14.693  0.00  0.00    +0.079 C 
ATOM      6  C   UNL     1      35.133 -24.059 -14.255  0.00  0.00    +0.045 C 
ATOM      7  C   UNL     1      34.314 -23.130 -16.421  0.00  0.00    +0.202 C 
ATOM      8  C   UNL     1      33.738 -24.206 -13.794  0.00  0.00    +0.199 C 
ATOM      9  C   UNL     1      36.738 -23.405 -15.945  0.00  0.00    +0.171 C 
ATOM     10  C   UNL     1      31.868 -22.893 -16.803  0.00  0.00    +0.137 C 
ATOM     11  C   UNL     1      31.312 -23.931 -14.270  0.00  0.00    +0.137 C 
ATOM     12  C   UNL     1      36.184 -24.443 -13.411  0.00  0.00    +0.007 C 
ATOM     13  C   UNL     1      37.782 -23.789 -15.102  0.00  0.00    +0.168 C 
ATOM     14  C   UNL     1      37.505 -24.307 -13.838  0.00  0.00    +0.040 C 
ATOM     15  C   UNL     1      30.545 -23.028 -16.376  0.00  0.00    +0.040 C 
ATOM     16  C   UNL     1      30.269 -23.546 -15.112  0.00  0.00    +0.040 C 
ENDROOT
BRANCH   9  17
ATOM     17  O   UNL     1      37.069 -22.905 -17.171  0.00  0.00    -0.503 OA
ATOM     18  H   UNL     1      37.028 -21.982 -17.327  0.00  0.00    +0.292 HD
ENDBRANCH   9  17
BRANCH  10  19
ATOM     19  O   UNL     1      32.066 -22.382 -18.051  0.00  0.00    -0.505 OA
ATOM     20  H   UNL     1      32.152 -21.457 -18.169  0.00  0.00    +0.292 HD
ENDBRANCH  10  19
BRANCH  11  21
ATOM     21  O   UNL     1      30.973 -24.429 -13.047  0.00  0.00    -0.505 OA
ATOM     22  H   UNL     1      31.439 -24.152 -12.282  0.00  0.00    +0.292 HD
ENDBRANCH  11  21
BRANCH  13  23
ATOM     23  O   UNL     1      39.080 -23.665 -15.499  0.00  0.00    -0.503 OA
ATOM     24  H   UNL     1      39.587 -24.430 -15.688  0.00  0.00    +0.292 HD
ENDBRANCH  13  23
TORSDOF 4
ENDMDL
MODEL 9
REMARK VINA RESULT:      -9.2      9.316     12.871
REMARK  Name = 5004
REMARK  4 active torsions:
REMARK  status: ('A' for Active; 'I' for Inactive)
REMARK    1  A    between atoms: C_9  and  O_17
REMARK    2  A    between atoms: C_10  and  O_19
REMARK    3  A    between atoms: C_11  and  O_21
REMARK    4  A    between atoms: C_13  and  O_23
REMARK                            x       y       z     vdW  Elec       q    Type
REMARK                         _______ _______ _______ _____ _____    ______ ____
ROOT
ATOM      1  O   UNL     1      34.671 -14.527 -21.495  0.00  0.00    -0.286 OA
ATOM      2  O   UNL     1      33.845 -17.446 -25.894  0.00  0.00    -0.286 OA
ATOM      3  C   UNL     1      34.704 -16.652 -22.497  0.00  0.00    +0.079 C 
ATOM      4  C   UNL     1      34.020 -14.544 -23.751  0.00  0.00    +0.079 C 
ATOM      5  C   UNL     1      33.802 -15.301 -24.904  0.00  0.00    +0.079 C 
ATOM      6  C   UNL     1      34.487 -17.408 -23.651  0.00  0.00    +0.045 C 
ATOM      7  C   UNL     1      34.479 -15.192 -22.504  0.00  0.00    +0.202 C 
ATOM      8  C   UNL     1      34.027 -16.761 -24.896  0.00  0.00    +0.199 C 
ATOM      9  C   UNL     1      35.137 -17.278 -21.322  0.00  0.00    +0.171 C 
ATOM     10  C   UNL     1      33.803 -13.161 -23.771  0.00  0.00    +0.137 C 
ATOM     11  C   UNL     1      33.368 -14.675 -26.078  0.00  0.00    +0.137 C 
ATOM     12  C   UNL     1      34.703 -18.792 -23.629  0.00  0.00    +0.007 C 
ATOM     13  C   UNL     1      35.352 -18.657 -21.306  0.00  0.00    +0.168 C 
ATOM     14  C   UNL     1      35.136 -19.412 -22.457  0.00  0.00    +0.040 C 
ATOM     15  C   UNL     1      33.369 -12.541 -24.944  0.00  0.00    +0.040 C 
ATOM     16  C   UNL     1      33.152 -13.296 -26.095  0.00  0.00    +0.040 C 
ENDROOT
BRANCH   9  17
ATOM     17  O   UNL     1      35.366 -16.589 -20.167  0.00  0.00    -0.503 OA
ATOM     18  H   UNL     1      36.227 -16.565 -19.799  0.00  0.00    +0.292 HD
ENDBRANCH   9  17
BRANCH  10  19
ATOM     19  O   UNL     1      33.996 -12.363 -22.684  0.00  0.00    -0.505 OA
ATOM     20  H   UNL     1      34.637 -12.593 -22.041  0.00  0.00    +0.292 HD
ENDBRANCH  10  19
BRANCH  11  21
ATOM     21  O   UNL     1      33.137 -15.355 -27.238  0.00  0.00    -0.505 OA
ATOM     22  H   UNL     1      32.274 -15.377 -27.604  0.00  0.00    +0.292 HD
ENDBRANCH  11  21
BRANCH  13  23
ATOM     23  O   UNL     1      35.777 -19.282 -20.171  0.00  0.00    -0.503 OA
ATOM     24  H   UNL     1      35.791 -20.217 -20.129  0.00  0.00    +0.292 HD
ENDBRANCH  13  23
TORSDOF 4
ENDMDL
