MODEL 1
REMARK VINA RESULT:      -8.9      0.000      0.000
REMARK  Name = 18807
REMARK  3 active torsions:
REMARK  status: ('A' for Active; 'I' for Inactive)
REMARK    1  A    between atoms: C_2  and  O_10
REMARK    2  A    between atoms: C_3  and  O_8
REMARK    3  A    between atoms: O_10  and  C_12
REMARK                            x       y       z     vdW  Elec       q    Type
REMARK                         _______ _______ _______ _____ _____    ______ ____
ROOT
ATOM      1 CL   UNL     1      33.273 -15.538 -25.885  0.00  0.00    -0.082 Cl
ATOM      2  C   UNL     1      35.475 -17.786 -22.684  0.00  0.00    +0.179 C 
ATOM      3  C   UNL     1      34.927 -16.551 -22.387  0.00  0.00    +0.169 C 
ATOM      4  C   UNL     1      35.359 -18.345 -23.945  0.00  0.00    +0.042 C 
ATOM      5  C   UNL     1      34.243 -15.851 -23.381  0.00  0.00    +0.051 C 
ATOM      6  C   UNL     1      34.675 -17.647 -24.939  0.00  0.00    +0.015 C 
ATOM      7  C   UNL     1      34.117 -16.400 -24.657  0.00  0.00    +0.061 C 
ENDROOT
BRANCH   3   8
ATOM      8  O   UNL     1      35.044 -16.004 -21.144  0.00  0.00    -0.503 OA
ATOM      9  H   UNL     1      35.365 -15.129 -21.046  0.00  0.00    +0.292 HD
ENDBRANCH   3   8
BRANCH   2  10
ATOM     10  O   UNL     1      36.157 -18.488 -21.706  0.00  0.00    -0.450 OA
BRANCH  10  12
ATOM     11 CL   UNL     1      33.168 -22.510 -18.646  0.00  0.00    -0.082 Cl
ATOM     12  C   UNL     1      35.464 -19.421 -20.996  0.00  0.00    +0.145 C 
ATOM     13  C   UNL     1      34.070 -19.424 -21.025  0.00  0.00    +0.038 C 
ATOM     14  C   UNL     1      36.149 -20.373 -20.241  0.00  0.00    +0.038 C 
ATOM     15  C   UNL     1      33.359 -20.379 -20.298  0.00  0.00    +0.015 C 
ATOM     16  C   UNL     1      35.438 -21.328 -19.514  0.00  0.00    +0.015 C 
ATOM     17  C   UNL     1      34.044 -21.332 -19.543  0.00  0.00    +0.058 C 
ENDBRANCH  10  12
ENDBRANCH   2  10
TORSDOF 3
ENDMDL
MODEL 2
REMARK VINA RESULT:      -8.8      1.473      2.128
REMARK  Name = 18807
REMARK  3 active torsions:
REMARK  status: ('A' for Active; 'I' for Inactive)
REMARK    1  A    between atoms: C_2  and  O_10
REMARK    2  A    between atoms: C_3  and  O_8
REMARK    3  A    between atoms: O_10  and  C_12
REMARK                            x       y       z     vdW  Elec       q    Type
REMARK                         _______ _______ _______ _____ _____    ______ ____
ROOT
ATOM      1 CL   UNL     1      33.042 -13.416 -22.510  0.00  0.00    -0.082 Cl
ATOM      2  C   UNL     1      35.263 -17.276 -21.954  0.00  0.00    +0.179 C 
ATOM      3  C   UNL     1      34.960 -16.851 -23.235  0.00  0.00    +0.169 C 
ATOM      4  C   UNL     1      34.899 -16.540 -20.840  0.00  0.00    +0.042 C 
ATOM      5  C   UNL     1      34.269 -15.651 -23.408  0.00  0.00    +0.051 C 
ATOM      6  C   UNL     1      34.209 -15.341 -21.013  0.00  0.00    +0.015 C 
ATOM      7  C   UNL     1      33.894 -14.896 -22.297  0.00  0.00    +0.061 C 
ENDROOT
BRANCH   3   8
ATOM      8  O   UNL     1      35.320 -17.580 -24.328  0.00  0.00    -0.503 OA
ATOM      9  H   UNL     1      34.865 -18.373 -24.532  0.00  0.00    +0.292 HD
ENDBRANCH   3   8
BRANCH   2  10
ATOM     10  O   UNL     1      35.947 -18.466 -21.769  0.00  0.00    -0.450 OA
BRANCH  10  12
ATOM     11 CL   UNL     1      33.350 -22.641 -18.560  0.00  0.00    -0.082 Cl
ATOM     12  C   UNL     1      35.345 -19.433 -21.025  0.00  0.00    +0.145 C 
ATOM     13  C   UNL     1      33.955 -19.553 -21.030  0.00  0.00    +0.038 C 
ATOM     14  C   UNL     1      36.118 -20.306 -20.260  0.00  0.00    +0.038 C 
ATOM     15  C   UNL     1      33.338 -20.544 -20.267  0.00  0.00    +0.015 C 
ATOM     16  C   UNL     1      35.501 -21.298 -19.497  0.00  0.00    +0.015 C 
ATOM     17  C   UNL     1      34.111 -21.418 -19.501  0.00  0.00    +0.058 C 
ENDBRANCH  10  12
ENDBRANCH   2  10
TORSDOF 3
ENDMDL
MODEL 3
REMARK VINA RESULT:      -8.7      0.832      1.553
REMARK  Name = 18807
REMARK  3 active torsions:
REMARK  status: ('A' for Active; 'I' for Inactive)
REMARK    1  A    between atoms: C_2  and  O_10
REMARK    2  A    between atoms: C_3  and  O_8
REMARK    3  A    between atoms: O_10  and  C_12
REMARK                            x       y       z     vdW  Elec       q    Type
REMARK                         _______ _______ _______ _____ _____    ______ ____
ROOT
ATOM      1 CL   UNL     1      33.022 -14.016 -24.086  0.00  0.00    -0.082 Cl
ATOM      2  C   UNL     1      35.321 -17.494 -22.423  0.00  0.00    +0.179 C 
ATOM      3  C   UNL     1      34.944 -16.467 -21.576  0.00  0.00    +0.169 C 
ATOM      4  C   UNL     1      35.005 -17.476 -23.770  0.00  0.00    +0.042 C 
ATOM      5  C   UNL     1      34.230 -15.386 -22.093  0.00  0.00    +0.051 C 
ATOM      6  C   UNL     1      34.291 -16.395 -24.286  0.00  0.00    +0.015 C 
ATOM      7  C   UNL     1      33.903 -15.351 -23.448  0.00  0.00    +0.061 C 
ENDROOT
BRANCH   3   8
ATOM      8  O   UNL     1      35.258 -16.490 -20.250  0.00  0.00    -0.503 OA
ATOM      9  H   UNL     1      34.772 -15.966 -19.645  0.00  0.00    +0.292 HD
ENDBRANCH   3   8
BRANCH   2  10
ATOM     10  O   UNL     1      36.031 -18.572 -21.922  0.00  0.00    -0.450 OA
BRANCH  10  12
ATOM     11 CL   UNL     1      33.139 -22.436 -18.578  0.00  0.00    -0.082 Cl
ATOM     12  C   UNL     1      35.360 -19.468 -21.147  0.00  0.00    +0.145 C 
ATOM     13  C   UNL     1      36.067 -20.335 -20.314  0.00  0.00    +0.038 C 
ATOM     14  C   UNL     1      33.967 -19.517 -21.185  0.00  0.00    +0.038 C 
ATOM     15  C   UNL     1      35.380 -21.253 -19.520  0.00  0.00    +0.015 C 
ATOM     16  C   UNL     1      33.280 -20.435 -20.391  0.00  0.00    +0.015 C 
ATOM     17  C   UNL     1      33.986 -21.303 -19.558  0.00  0.00    +0.058 C 
ENDBRANCH  10  12
ENDBRANCH   2  10
TORSDOF 3
ENDMDL
MODEL 4
REMARK VINA RESULT:      -8.6      0.854      5.916
REMARK  Name = 18807
REMARK  3 active torsions:
REMARK  status: ('A' for Active; 'I' for Inactive)
REMARK    1  A    between atoms: C_2  and  O_10
REMARK    2  A    between atoms: C_3  and  O_8
REMARK    3  A    between atoms: O_10  and  C_12
REMARK                            x       y       z     vdW  Elec       q    Type
REMARK                         _______ _______ _______ _____ _____    ______ ____
ROOT
ATOM      1 CL   UNL     1      33.473 -22.351 -19.340  0.00  0.00    -0.082 Cl
ATOM      2  C   UNL     1      35.204 -18.634 -21.167  0.00  0.00    +0.179 C 
ATOM      3  C   UNL     1      36.058 -19.610 -20.685  0.00  0.00    +0.169 C 
ATOM      4  C   UNL     1      33.829 -18.777 -21.101  0.00  0.00    +0.042 C 
ATOM      5  C   UNL     1      35.520 -20.765 -20.116  0.00  0.00    +0.051 C 
ATOM      6  C   UNL     1      33.292 -19.932 -20.533  0.00  0.00    +0.015 C 
ATOM      7  C   UNL     1      34.137 -20.926 -20.041  0.00  0.00    +0.061 C 
ENDROOT
BRANCH   3   8
ATOM      8  O   UNL     1      37.411 -19.464 -20.752  0.00  0.00    -0.503 OA
ATOM      9  H   UNL     1      37.849 -19.539 -21.576  0.00  0.00    +0.292 HD
ENDBRANCH   3   8
BRANCH   2  10
ATOM     10  O   UNL     1      35.725 -17.483 -21.732  0.00  0.00    -0.450 OA
BRANCH  10  12
ATOM     11 CL   UNL     1      32.993 -15.268 -26.433  0.00  0.00    -0.082 Cl
ATOM     12  C   UNL     1      35.092 -16.969 -22.822  0.00  0.00    +0.145 C 
ATOM     13  C   UNL     1      35.043 -17.701 -24.008  0.00  0.00    +0.038 C 
ATOM     14  C   UNL     1      34.491 -15.712 -22.751  0.00  0.00    +0.038 C 
ATOM     15  C   UNL     1      34.395 -17.175 -25.125  0.00  0.00    +0.015 C 
ATOM     16  C   UNL     1      33.843 -15.186 -23.868  0.00  0.00    +0.015 C 
ATOM     17  C   UNL     1      33.793 -15.917 -25.055  0.00  0.00    +0.058 C 
ENDBRANCH  10  12
ENDBRANCH   2  10
TORSDOF 3
ENDMDL
MODEL 5
REMARK VINA RESULT:      -8.5      4.112      7.923
REMARK  Name = 18807
REMARK  3 active torsions:
REMARK  status: ('A' for Active; 'I' for Inactive)
REMARK    1  A    between atoms: C_2  and  O_10
REMARK    2  A    between atoms: C_3  and  O_8
REMARK    3  A    between atoms: O_10  and  C_12
REMARK                            x       y       z     vdW  Elec       q    Type
REMARK                         _______ _______ _______ _____ _____    ______ ____
ROOT
ATOM      1 CL   UNL     1      31.735 -23.084 -13.261  0.00  0.00    -0.082 Cl
ATOM      2  C   UNL     1      33.398 -23.296 -17.425  0.00  0.00    +0.179 C 
ATOM      3  C   UNL     1      34.264 -23.351 -16.348  0.00  0.00    +0.169 C 
ATOM      4  C   UNL     1      32.030 -23.178 -17.249  0.00  0.00    +0.042 C 
ATOM      5  C   UNL     1      33.748 -23.284 -15.054  0.00  0.00    +0.051 C 
ATOM      6  C   UNL     1      31.514 -23.112 -15.955  0.00  0.00    +0.015 C 
ATOM      7  C   UNL     1      32.373 -23.166 -14.858  0.00  0.00    +0.061 C 
ENDROOT
BRANCH   3   8
ATOM      8  O   UNL     1      35.611 -23.467 -16.527  0.00  0.00    -0.503 OA
ATOM      9  H   UNL     1      36.164 -23.669 -15.798  0.00  0.00    +0.292 HD
ENDBRANCH   3   8
BRANCH   2  10
ATOM     10  O   UNL     1      33.898 -23.360 -18.714  0.00  0.00    -0.450 OA
BRANCH  10  12
ATOM     11 CL   UNL     1      35.024 -18.294 -21.460  0.00  0.00    -0.082 Cl
ATOM     12  C   UNL     1      34.160 -22.186 -19.351  0.00  0.00    +0.145 C 
ATOM     13  C   UNL     1      33.108 -21.362 -19.752  0.00  0.00    +0.038 C 
ATOM     14  C   UNL     1      35.478 -21.806 -19.600  0.00  0.00    +0.038 C 
ATOM     15  C   UNL     1      33.375 -20.158 -20.405  0.00  0.00    +0.015 C 
ATOM     16  C   UNL     1      35.745 -20.602 -20.252  0.00  0.00    +0.015 C 
ATOM     17  C   UNL     1      34.695 -19.778 -20.655  0.00  0.00    +0.058 C 
ENDBRANCH  10  12
ENDBRANCH   2  10
TORSDOF 3
ENDMDL
MODEL 6
REMARK VINA RESULT:      -8.5      1.751      5.871
REMARK  Name = 18807
REMARK  3 active torsions:
REMARK  status: ('A' for Active; 'I' for Inactive)
REMARK    1  A    between atoms: C_2  and  O_10
REMARK    2  A    between atoms: C_3  and  O_8
REMARK    3  A    between atoms: O_10  and  C_12
REMARK                            x       y       z     vdW  Elec       q    Type
REMARK                         _______ _______ _______ _____ _____    ______ ____
ROOT
ATOM      1 CL   UNL     1      33.603 -22.439 -18.952  0.00  0.00    -0.082 Cl
ATOM      2  C   UNL     1      35.102 -18.883 -21.245  0.00  0.00    +0.179 C 
ATOM      3  C   UNL     1      36.013 -19.721 -20.628  0.00  0.00    +0.169 C 
ATOM      4  C   UNL     1      33.739 -19.116 -21.174  0.00  0.00    +0.042 C 
ATOM      5  C   UNL     1      35.548 -20.826 -19.914  0.00  0.00    +0.051 C 
ATOM      6  C   UNL     1      33.274 -20.220 -20.462  0.00  0.00    +0.015 C 
ATOM      7  C   UNL     1      34.178 -21.075 -19.832  0.00  0.00    +0.061 C 
ENDROOT
BRANCH   3   8
ATOM      8  O   UNL     1      37.354 -19.487 -20.701  0.00  0.00    -0.503 OA
ATOM      9  H   UNL     1      37.748 -18.847 -20.142  0.00  0.00    +0.292 HD
ENDBRANCH   3   8
BRANCH   2  10
ATOM     10  O   UNL     1      35.552 -17.783 -21.955  0.00  0.00    -0.450 OA
BRANCH  10  12
ATOM     11 CL   UNL     1      32.253 -12.927 -21.848  0.00  0.00    -0.082 Cl
ATOM     12  C   UNL     1      34.787 -16.657 -21.930  0.00  0.00    +0.145 C 
ATOM     13  C   UNL     1      34.572 -15.987 -20.726  0.00  0.00    +0.038 C 
ATOM     14  C   UNL     1      34.219 -16.174 -23.109  0.00  0.00    +0.038 C 
ATOM     15  C   UNL     1      33.788 -14.833 -20.701  0.00  0.00    +0.015 C 
ATOM     16  C   UNL     1      33.436 -15.020 -23.084  0.00  0.00    +0.015 C 
ATOM     17  C   UNL     1      33.220 -14.349 -21.880  0.00  0.00    +0.058 C 
ENDBRANCH  10  12
ENDBRANCH   2  10
TORSDOF 3
ENDMDL
MODEL 7
REMARK VINA RESULT:      -8.1      4.092      7.973
REMARK  Name = 18807
REMARK  3 active torsions:
REMARK  status: ('A' for Active; 'I' for Inactive)
REMARK    1  A    between atoms: C_2  and  O_10
REMARK    2  A    between atoms: C_3  and  O_8
REMARK    3  A    between atoms: O_10  and  C_12
REMARK                            x       y       z     vdW  Elec       q    Type
REMARK                         _______ _______ _______ _____ _____    ______ ____
ROOT
ATOM      1 CL   UNL     1      33.726 -23.842 -13.259  0.00  0.00    -0.082 Cl
ATOM      2  C   UNL     1      33.116 -22.951 -17.616  0.00  0.00    +0.179 C 
ATOM      3  C   UNL     1      32.029 -22.918 -16.761  0.00  0.00    +0.169 C 
ATOM      4  C   UNL     1      34.388 -23.251 -17.159  0.00  0.00    +0.042 C 
ATOM      5  C   UNL     1      32.217 -23.195 -15.407  0.00  0.00    +0.051 C 
ATOM      6  C   UNL     1      34.577 -23.528 -15.806  0.00  0.00    +0.015 C 
ATOM      7  C   UNL     1      33.492 -23.499 -14.930  0.00  0.00    +0.061 C 
ENDROOT
BRANCH   3   8
ATOM      8  O   UNL     1      30.778 -22.622 -17.216  0.00  0.00    -0.503 OA
ATOM      9  H   UNL     1      30.660 -21.947 -17.854  0.00  0.00    +0.292 HD
ENDBRANCH   3   8
BRANCH   2  10
ATOM     10  O   UNL     1      32.940 -22.679 -18.962  0.00  0.00    -0.450 OA
BRANCH  10  12
ATOM     11 CL   UNL     1      36.450 -18.665 -21.420  0.00  0.00    -0.082 Cl
ATOM     12  C   UNL     1      33.754 -21.748 -19.531  0.00  0.00    +0.145 C 
ATOM     13  C   UNL     1      35.136 -21.935 -19.528  0.00  0.00    +0.038 C 
ATOM     14  C   UNL     1      33.205 -20.609 -20.119  0.00  0.00    +0.038 C 
ATOM     15  C   UNL     1      35.970 -20.982 -20.112  0.00  0.00    +0.015 C 
ATOM     16  C   UNL     1      34.039 -19.655 -20.703  0.00  0.00    +0.015 C 
ATOM     17  C   UNL     1      35.421 -19.841 -20.700  0.00  0.00    +0.058 C 
ENDBRANCH  10  12
ENDBRANCH   2  10
TORSDOF 3
ENDMDL
MODEL 8
REMARK VINA RESULT:      -8.1      2.197      3.091
REMARK  Name = 18807
REMARK  3 active torsions:
REMARK  status: ('A' for Active; 'I' for Inactive)
REMARK    1  A    between atoms: C_2  and  O_10
REMARK    2  A    between atoms: C_3  and  O_8
REMARK    3  A    between atoms: O_10  and  C_12
REMARK                            x       y       z     vdW  Elec       q    Type
REMARK                         _______ _______ _______ _____ _____    ______ ____
ROOT
ATOM      1 CL   UNL     1      32.524 -12.440 -22.986  0.00  0.00    -0.082 Cl
ATOM      2  C   UNL     1      34.704 -16.313 -23.615  0.00  0.00    +0.179 C 
ATOM      3  C   UNL     1      34.044 -15.729 -24.681  0.00  0.00    +0.169 C 
ATOM      4  C   UNL     1      34.711 -15.730 -22.359  0.00  0.00    +0.042 C 
ATOM      5  C   UNL     1      33.365 -14.526 -24.486  0.00  0.00    +0.051 C 
ATOM      6  C   UNL     1      34.033 -14.527 -22.164  0.00  0.00    +0.015 C 
ATOM      7  C   UNL     1      33.361 -13.925 -23.227  0.00  0.00    +0.061 C 
ENDROOT
BRANCH   3   8
ATOM      8  O   UNL     1      34.040 -16.308 -25.915  0.00  0.00    -0.503 OA
ATOM      9  H   UNL     1      33.275 -16.258 -26.453  0.00  0.00    +0.292 HD
ENDBRANCH   3   8
BRANCH   2  10
ATOM     10  O   UNL     1      35.380 -17.507 -23.795  0.00  0.00    -0.450 OA
BRANCH  10  12
ATOM     11 CL   UNL     1      35.689 -21.189 -19.232  0.00  0.00    -0.082 Cl
ATOM     12  C   UNL     1      35.451 -18.361 -22.738  0.00  0.00    +0.145 C 
ATOM     13  C   UNL     1      36.630 -18.457 -21.998  0.00  0.00    +0.038 C 
ATOM     14  C   UNL     1      34.346 -19.139 -22.393  0.00  0.00    +0.038 C 
ATOM     15  C   UNL     1      36.703 -19.332 -20.914  0.00  0.00    +0.015 C 
ATOM     16  C   UNL     1      34.419 -20.013 -21.309  0.00  0.00    +0.015 C 
ATOM     17  C   UNL     1      35.598 -20.110 -20.569  0.00  0.00    +0.058 C 
ENDBRANCH  10  12
ENDBRANCH   2  10
TORSDOF 3
ENDMDL
MODEL 9
REMARK VINA RESULT:      -8.0      3.727      5.602
REMARK  Name = 18807
REMARK  3 active torsions:
REMARK  status: ('A' for Active; 'I' for Inactive)
REMARK    1  A    between atoms: C_2  and  O_10
REMARK    2  A    between atoms: C_3  and  O_8
REMARK    3  A    between atoms: O_10  and  C_12
REMARK                            x       y       z     vdW  Elec       q    Type
REMARK                         _______ _______ _______ _____ _____    ______ ____
ROOT
ATOM      1 CL   UNL     1      34.540 -18.049 -21.541  0.00  0.00    -0.082 Cl
ATOM      2  C   UNL     1      34.218 -21.979 -19.396  0.00  0.00    +0.179 C 
ATOM      3  C   UNL     1      35.463 -21.400 -19.559  0.00  0.00    +0.169 C 
ATOM      4  C   UNL     1      33.069 -21.376 -19.878  0.00  0.00    +0.042 C 
ATOM      5  C   UNL     1      35.564 -20.179 -20.226  0.00  0.00    +0.051 C 
ATOM      6  C   UNL     1      33.170 -20.156 -20.544  0.00  0.00    +0.015 C 
ATOM      7  C   UNL     1      34.417 -19.557 -20.718  0.00  0.00    +0.061 C 
ENDROOT
BRANCH   3   8
ATOM      8  O   UNL     1      36.592 -21.998 -19.083  0.00  0.00    -0.503 OA
ATOM      9  H   UNL     1      36.555 -22.508 -18.298  0.00  0.00    +0.292 HD
ENDBRANCH   3   8
BRANCH   2  10
ATOM     10  O   UNL     1      34.106 -23.192 -18.738  0.00  0.00    -0.450 OA
BRANCH  10  12
ATOM     11 CL   UNL     1      31.993 -23.139 -13.260  0.00  0.00    -0.082 Cl
ATOM     12  C   UNL     1      33.616 -23.180 -17.468  0.00  0.00    +0.145 C 
ATOM     13  C   UNL     1      34.492 -23.174 -16.383  0.00  0.00    +0.038 C 
ATOM     14  C   UNL     1      32.238 -23.172 -17.252  0.00  0.00    +0.038 C 
ATOM     15  C   UNL     1      33.990 -23.162 -15.082  0.00  0.00    +0.015 C 
ATOM     16  C   UNL     1      31.736 -23.160 -15.951  0.00  0.00    +0.015 C 
ATOM     17  C   UNL     1      32.612 -23.154 -14.865  0.00  0.00    +0.058 C 
ENDBRANCH  10  12
ENDBRANCH   2  10
TORSDOF 3
ENDMDL
