MODEL 1
REMARK VINA RESULT:     -10.8      0.000      0.000
REMARK  Name = 46181428
REMARK  7 active torsions:
REMARK  status: ('A' for Active; 'I' for Inactive)
REMARK    1  A    between atoms: C_1  and  C_5
REMARK    2  A    between atoms: C_1  and  N_16
REMARK    3  A    between atoms: C_1  and  C_25
REMARK    4  A    between atoms: C_10  and  C_13
REMARK    5  A    between atoms: C_13  and  O_14
REMARK    6  A    between atoms: C_20  and  C_24
REMARK    7  A    between atoms: C_25  and  C_26
REMARK                            x       y       z     vdW  Elec       q    Type
REMARK                         _______ _______ _______ _____ _____    ______ ____
ROOT
ATOM      1  C   UNL     1      33.796 -23.811 -16.225  0.00  0.00    +0.137 C 
ENDROOT
BRANCH   1   5
ATOM      2  O   UNL     1      35.692 -22.819 -17.350  0.00  0.00    -0.273 OA
ATOM      3  N   UNL     1      33.532 -22.347 -18.135  0.00  0.00    -0.268 N 
ATOM      4  N   UNL     1      32.715 -20.998 -19.916  0.00  0.00    -0.229 NA
ATOM      5  C   UNL     1      34.472 -22.943 -17.298  0.00  0.00    +0.242 C 
ATOM      6  C   UNL     1      33.774 -21.474 -19.221  0.00  0.00    +0.134 C 
ATOM      7  C   UNL     1      35.092 -21.157 -19.506  0.00  0.00    +0.035 C 
ATOM      8  C   UNL     1      35.341 -20.299 -20.571  0.00  0.00    +0.011 C 
ATOM      9  C   UNL     1      32.996 -20.167 -20.944  0.00  0.00    +0.107 C 
ATOM     10  C   UNL     1      34.278 -19.790 -21.309  0.00  0.00    +0.095 C 
ATOM     11  H   UNL     1      32.588 -22.559 -17.949  0.00  0.00    +0.156 HD
BRANCH  10  13
ATOM     12  O   UNL     1      34.683 -19.232 -23.600  0.00  0.00    -0.245 OA
ATOM     13  C   UNL     1      34.504 -18.888 -22.425  0.00  0.00    +0.340 C 
BRANCH  13  14
ATOM     14  O   UNL     1      34.501 -17.579 -22.049  0.00  0.00    -0.477 OA
ATOM     15  H   UNL     1      33.689 -17.128 -21.929  0.00  0.00    +0.295 HD
ENDBRANCH  13  14
ENDBRANCH  10  13
ENDBRANCH   1   5
BRANCH   1  16
ATOM     16  N   UNL     1      34.799 -24.188 -15.147  0.00  0.00    -0.240 NA
ATOM     17  N   UNL     1      35.982 -24.072 -13.271  0.00  0.00    -0.251 NA
ATOM     18  C   UNL     1      35.606 -25.291 -15.143  0.00  0.00    +0.124 C 
ATOM     19  C   UNL     1      35.061 -23.486 -14.004  0.00  0.00    +0.201 C 
ATOM     20  C   UNL     1      36.326 -25.197 -13.976  0.00  0.00    +0.143 C 
BRANCH  20  24
ATOM     21  F   UNL     1      37.128 -26.507 -12.161  0.00  0.00    -0.165 F 
ATOM     22  F   UNL     1      37.456 -27.297 -14.161  0.00  0.00    -0.165 F 
ATOM     23  F   UNL     1      38.625 -25.610 -13.459  0.00  0.00    -0.165 F 
ATOM     24  C   UNL     1      37.348 -26.120 -13.460  0.00  0.00    +0.432 C 
ENDBRANCH  20  24
ENDBRANCH   1  16
BRANCH   1  25
ATOM     25  C   UNL     1      32.548 -23.108 -15.649  0.00  0.00    +0.025 C 
BRANCH  25  26
ATOM     26  C   UNL     1      31.272 -23.914 -15.826  0.00  0.00    +0.002 C 
ATOM     27  C   UNL     1      30.043 -23.046 -16.075  0.00  0.00    +0.000 C 
ATOM     28  C   UNL     1      30.874 -24.691 -14.576  0.00  0.00    +0.000 C 
ATOM     29  C   UNL     1      29.403 -25.027 -14.802  0.00  0.00    +0.000 C 
ATOM     30  C   UNL     1      28.871 -23.975 -15.777  0.00  0.00    +0.000 C 
ENDBRANCH  25  26
ENDBRANCH   1  25
TORSDOF 7
ENDMDL
MODEL 2
REMARK VINA RESULT:     -10.0      1.442      1.752
REMARK  Name = 46181428
REMARK  7 active torsions:
REMARK  status: ('A' for Active; 'I' for Inactive)
REMARK    1  A    between atoms: C_1  and  C_5
REMARK    2  A    between atoms: C_1  and  N_16
REMARK    3  A    between atoms: C_1  and  C_25
REMARK    4  A    between atoms: C_10  and  C_13
REMARK    5  A    between atoms: C_13  and  O_14
REMARK    6  A    between atoms: C_20  and  C_24
REMARK    7  A    between atoms: C_25  and  C_26
REMARK                            x       y       z     vdW  Elec       q    Type
REMARK                         _______ _______ _______ _____ _____    ______ ____
ROOT
ATOM      1  C   UNL     1      33.441 -23.767 -16.398  0.00  0.00    +0.137 C 
ENDROOT
BRANCH   1   5
ATOM      2  O   UNL     1      32.139 -22.480 -17.976  0.00  0.00    -0.273 OA
ATOM      3  N   UNL     1      34.481 -22.380 -18.088  0.00  0.00    -0.268 N 
ATOM      4  N   UNL     1      35.985 -21.223 -19.522  0.00  0.00    -0.229 NA
ATOM      5  C   UNL     1      33.255 -22.798 -17.575  0.00  0.00    +0.242 C 
ATOM      6  C   UNL     1      34.708 -21.506 -19.177  0.00  0.00    +0.134 C 
ATOM      7  C   UNL     1      33.598 -20.991 -19.826  0.00  0.00    +0.035 C 
ATOM      8  C   UNL     1      33.811 -20.131 -20.898  0.00  0.00    +0.011 C 
ATOM      9  C   UNL     1      36.152 -20.383 -20.568  0.00  0.00    +0.107 C 
ATOM     10  C   UNL     1      35.110 -19.817 -21.282  0.00  0.00    +0.095 C 
ATOM     11  H   UNL     1      35.283 -22.736 -17.641  0.00  0.00    +0.156 HD
BRANCH  10  13
ATOM     12  O   UNL     1      36.134 -17.955 -22.381  0.00  0.00    -0.245 OA
ATOM     13  C   UNL     1      35.366 -18.924 -22.399  0.00  0.00    +0.340 C 
BRANCH  13  14
ATOM     14  O   UNL     1      34.658 -19.263 -23.512  0.00  0.00    -0.477 OA
ATOM     15  H   UNL     1      34.538 -20.165 -23.735  0.00  0.00    +0.295 HD
ENDBRANCH  13  14
ENDBRANCH  10  13
ENDBRANCH   1   5
BRANCH   1  16
ATOM     16  N   UNL     1      34.872 -23.706 -15.889  0.00  0.00    -0.240 NA
ATOM     17  N   UNL     1      36.801 -22.850 -15.199  0.00  0.00    -0.251 NA
ATOM     18  C   UNL     1      35.676 -24.774 -15.607  0.00  0.00    +0.124 C 
ATOM     19  C   UNL     1      35.590 -22.573 -15.630  0.00  0.00    +0.201 C 
ATOM     20  C   UNL     1      36.862 -24.220 -15.184  0.00  0.00    +0.143 C 
BRANCH  20  24
ATOM     21  F   UNL     1      38.302 -24.842 -13.398  0.00  0.00    -0.165 F 
ATOM     22  F   UNL     1      38.113 -26.254 -15.042  0.00  0.00    -0.165 F 
ATOM     23  F   UNL     1      39.242 -24.422 -15.313  0.00  0.00    -0.165 F 
ATOM     24  C   UNL     1      38.086 -24.911 -14.752  0.00  0.00    +0.432 C 
ENDBRANCH  20  24
ENDBRANCH   1  16
BRANCH   1  25
ATOM     25  C   UNL     1      32.407 -23.493 -15.286  0.00  0.00    +0.025 C 
BRANCH  25  26
ATOM     26  C   UNL     1      31.037 -24.078 -15.584  0.00  0.00    +0.002 C 
ATOM     27  C   UNL     1      29.922 -23.037 -15.571  0.00  0.00    +0.000 C 
ATOM     28  C   UNL     1      30.565 -25.073 -14.529  0.00  0.00    +0.000 C 
ATOM     29  C   UNL     1      29.060 -25.170 -14.757  0.00  0.00    +0.000 C 
ATOM     30  C   UNL     1      28.648 -23.864 -15.439  0.00  0.00    +0.000 C 
ENDBRANCH  25  26
ENDBRANCH   1  25
TORSDOF 7
ENDMDL
MODEL 3
REMARK VINA RESULT:      -9.9      4.330      7.079
REMARK  Name = 46181428
REMARK  7 active torsions:
REMARK  status: ('A' for Active; 'I' for Inactive)
REMARK    1  A    between atoms: C_1  and  C_5
REMARK    2  A    between atoms: C_1  and  N_16
REMARK    3  A    between atoms: C_1  and  C_25
REMARK    4  A    between atoms: C_10  and  C_13
REMARK    5  A    between atoms: C_13  and  O_14
REMARK    6  A    between atoms: C_20  and  C_24
REMARK    7  A    between atoms: C_25  and  C_26
REMARK                            x       y       z     vdW  Elec       q    Type
REMARK                         _______ _______ _______ _____ _____    ______ ____
ROOT
ATOM      1  C   UNL     1      33.949 -23.880 -15.680  0.00  0.00    +0.137 C 
ENDROOT
BRANCH   1   5
ATOM      2  O   UNL     1      32.393 -22.910 -14.105  0.00  0.00    -0.273 OA
ATOM      3  N   UNL     1      31.641 -23.441 -16.263  0.00  0.00    -0.268 N 
ATOM      4  N   UNL     1      29.527 -23.241 -17.336  0.00  0.00    -0.229 NA
ATOM      5  C   UNL     1      32.579 -23.344 -15.238  0.00  0.00    +0.242 C 
ATOM      6  C   UNL     1      30.278 -23.064 -16.224  0.00  0.00    +0.134 C 
ATOM      7  C   UNL     1      29.794 -22.535 -15.039  0.00  0.00    +0.035 C 
ATOM      8  C   UNL     1      28.455 -22.163 -14.991  0.00  0.00    +0.011 C 
ATOM      9  C   UNL     1      28.231 -22.867 -17.250  0.00  0.00    +0.107 C 
ATOM     10  C   UNL     1      27.652 -22.329 -16.113  0.00  0.00    +0.095 C 
ATOM     11  H   UNL     1      31.965 -23.816 -17.114  0.00  0.00    +0.156 HD
BRANCH  10  13
ATOM     12  O   UNL     1      25.606 -21.532 -17.063  0.00  0.00    -0.245 OA
ATOM     13  C   UNL     1      26.249 -21.953 -16.094  0.00  0.00    +0.340 C 
BRANCH  13  14
ATOM     14  O   UNL     1      25.682 -22.112 -14.866  0.00  0.00    -0.477 OA
ATOM     15  H   UNL     1      24.760 -21.989 -14.755  0.00  0.00    +0.295 HD
ENDBRANCH  13  14
ENDBRANCH  10  13
ENDBRANCH   1   5
BRANCH   1  16
ATOM     16  N   UNL     1      34.371 -23.231 -16.987  0.00  0.00    -0.240 NA
ATOM     17  N   UNL     1      34.370 -22.703 -19.145  0.00  0.00    -0.251 NA
ATOM     18  C   UNL     1      35.418 -22.372 -17.163  0.00  0.00    +0.124 C 
ATOM     19  C   UNL     1      33.772 -23.400 -18.205  0.00  0.00    +0.201 C 
ATOM     20  C   UNL     1      35.398 -22.060 -18.502  0.00  0.00    +0.143 C 
BRANCH  20  24
ATOM     21  F   UNL     1      35.651 -20.239 -20.010  0.00  0.00    -0.165 F 
ATOM     22  F   UNL     1      37.155 -20.438 -18.452  0.00  0.00    -0.165 F 
ATOM     23  F   UNL     1      37.140 -21.820 -20.124  0.00  0.00    -0.165 F 
ATOM     24  C   UNL     1      36.305 -21.172 -19.244  0.00  0.00    +0.432 C 
ENDBRANCH  20  24
ENDBRANCH   1  16
BRANCH   1  25
ATOM     25  C   UNL     1      35.001 -23.699 -14.565  0.00  0.00    +0.025 C 
BRANCH  25  26
ATOM     26  C   UNL     1      35.646 -25.004 -14.131  0.00  0.00    +0.002 C 
ATOM     27  C   UNL     1      36.272 -24.933 -12.742  0.00  0.00    +0.000 C 
ATOM     28  C   UNL     1      36.831 -25.407 -15.002  0.00  0.00    +0.000 C 
ATOM     29  C   UNL     1      37.582 -26.430 -14.155  0.00  0.00    +0.000 C 
ATOM     30  C   UNL     1      37.213 -26.133 -12.701  0.00  0.00    +0.000 C 
ENDBRANCH  25  26
ENDBRANCH   1  25
TORSDOF 7
ENDMDL
MODEL 4
REMARK VINA RESULT:      -9.5      7.949     11.970
REMARK  Name = 46181428
REMARK  7 active torsions:
REMARK  status: ('A' for Active; 'I' for Inactive)
REMARK    1  A    between atoms: C_1  and  C_5
REMARK    2  A    between atoms: C_1  and  N_16
REMARK    3  A    between atoms: C_1  and  C_25
REMARK    4  A    between atoms: C_10  and  C_13
REMARK    5  A    between atoms: C_13  and  O_14
REMARK    6  A    between atoms: C_20  and  C_24
REMARK    7  A    between atoms: C_25  and  C_26
REMARK                            x       y       z     vdW  Elec       q    Type
REMARK                         _______ _______ _______ _____ _____    ______ ____
ROOT
ATOM      1  C   UNL     1      34.106 -15.068 -22.367  0.00  0.00    +0.137 C 
ENDROOT
BRANCH   1   5
ATOM      2  O   UNL     1      35.860 -16.725 -22.215  0.00  0.00    -0.273 OA
ATOM      3  N   UNL     1      33.729 -17.247 -21.381  0.00  0.00    -0.268 N 
ATOM      4  N   UNL     1      32.825 -19.192 -20.354  0.00  0.00    -0.229 NA
ATOM      5  C   UNL     1      34.689 -16.437 -21.983  0.00  0.00    +0.242 C 
ATOM      6  C   UNL     1      33.890 -18.572 -20.911  0.00  0.00    +0.134 C 
ATOM      7  C   UNL     1      35.139 -19.154 -21.054  0.00  0.00    +0.035 C 
ATOM      8  C   UNL     1      35.306 -20.456 -20.595  0.00  0.00    +0.011 C 
ATOM      9  C   UNL     1      33.027 -20.457 -19.920  0.00  0.00    +0.107 C 
ATOM     10  C   UNL     1      34.235 -21.126 -20.016  0.00  0.00    +0.095 C 
ATOM     11  H   UNL     1      32.834 -16.852 -21.272  0.00  0.00    +0.156 HD
BRANCH  10  13
ATOM     12  O   UNL     1      33.768 -23.472 -19.967  0.00  0.00    -0.245 OA
ATOM     13  C   UNL     1      34.377 -22.488 -19.530  0.00  0.00    +0.340 C 
BRANCH  13  14
ATOM     14  O   UNL     1      35.275 -22.589 -18.512  0.00  0.00    -0.477 OA
ATOM     15  H   UNL     1      35.955 -23.232 -18.549  0.00  0.00    +0.295 HD
ENDBRANCH  13  14
ENDBRANCH  10  13
ENDBRANCH   1   5
BRANCH   1  16
ATOM     16  N   UNL     1      33.885 -14.995 -23.869  0.00  0.00    -0.240 NA
ATOM     17  N   UNL     1      33.687 -15.659 -25.979  0.00  0.00    -0.251 NA
ATOM     18  C   UNL     1      33.621 -13.867 -24.594  0.00  0.00    +0.124 C 
ATOM     19  C   UNL     1      33.916 -16.045 -24.744  0.00  0.00    +0.201 C 
ATOM     20  C   UNL     1      33.503 -14.302 -25.893  0.00  0.00    +0.143 C 
BRANCH  20  24
ATOM     21  F   UNL     1      34.123 -13.714 -28.112  0.00  0.00    -0.165 F 
ATOM     22  F   UNL     1      31.994 -13.754 -27.666  0.00  0.00    -0.165 F 
ATOM     23  F   UNL     1      33.231 -12.147 -26.896  0.00  0.00    -0.165 F 
ATOM     24  C   UNL     1      33.221 -13.507 -27.097  0.00  0.00    +0.432 C 
ENDBRANCH  20  24
ENDBRANCH   1  16
BRANCH   1  25
ATOM     25  C   UNL     1      32.821 -14.769 -21.567  0.00  0.00    +0.025 C 
BRANCH  25  26
ATOM     26  C   UNL     1      32.668 -13.301 -21.205  0.00  0.00    +0.002 C 
ATOM     27  C   UNL     1      32.113 -13.083 -19.802  0.00  0.00    +0.000 C 
ATOM     28  C   UNL     1      31.651 -12.570 -22.075  0.00  0.00    +0.000 C 
ATOM     29  C   UNL     1      31.322 -11.310 -21.280  0.00  0.00    +0.000 C 
ATOM     30  C   UNL     1      31.630 -11.636 -19.818  0.00  0.00    +0.000 C 
ENDBRANCH  25  26
ENDBRANCH   1  25
TORSDOF 7
ENDMDL
MODEL 5
REMARK VINA RESULT:      -9.3      7.372     11.833
REMARK  Name = 46181428
REMARK  7 active torsions:
REMARK  status: ('A' for Active; 'I' for Inactive)
REMARK    1  A    between atoms: C_1  and  C_5
REMARK    2  A    between atoms: C_1  and  N_16
REMARK    3  A    between atoms: C_1  and  C_25
REMARK    4  A    between atoms: C_10  and  C_13
REMARK    5  A    between atoms: C_13  and  O_14
REMARK    6  A    between atoms: C_20  and  C_24
REMARK    7  A    between atoms: C_25  and  C_26
REMARK                            x       y       z     vdW  Elec       q    Type
REMARK                         _______ _______ _______ _____ _____    ______ ____
ROOT
ATOM      1  C   UNL     1      33.430 -15.538 -22.984  0.00  0.00    +0.137 C 
ENDROOT
BRANCH   1   5
ATOM      2  O   UNL     1      35.450 -16.704 -22.348  0.00  0.00    -0.273 OA
ATOM      3  N   UNL     1      33.373 -17.627 -21.761  0.00  0.00    -0.268 N 
ATOM      4  N   UNL     1      32.752 -19.611 -20.605  0.00  0.00    -0.229 NA
ATOM      5  C   UNL     1      34.222 -16.680 -22.329  0.00  0.00    +0.242 C 
ATOM      6  C   UNL     1      33.736 -18.817 -21.088  0.00  0.00    +0.134 C 
ATOM      7  C   UNL     1      35.087 -19.097 -20.966  0.00  0.00    +0.035 C 
ATOM      8  C   UNL     1      35.453 -20.265 -20.308  0.00  0.00    +0.011 C 
ATOM      9  C   UNL     1      33.147 -20.738 -19.971  0.00  0.00    +0.107 C 
ATOM     10  C   UNL     1      34.471 -21.107 -19.798  0.00  0.00    +0.095 C 
ATOM     11  H   UNL     1      32.408 -17.447 -21.838  0.00  0.00    +0.156 HD
BRANCH  10  13
ATOM     12  O   UNL     1      35.669 -22.440 -18.213  0.00  0.00    -0.245 OA
ATOM     13  C   UNL     1      34.821 -22.336 -19.107  0.00  0.00    +0.340 C 
BRANCH  13  14
ATOM     14  O   UNL     1      34.104 -23.406 -19.549  0.00  0.00    -0.477 OA
ATOM     15  H   UNL     1      34.525 -24.233 -19.676  0.00  0.00    +0.295 HD
ENDBRANCH  13  14
ENDBRANCH  10  13
ENDBRANCH   1   5
BRANCH   1  16
ATOM     16  N   UNL     1      32.940 -14.563 -21.926  0.00  0.00    -0.240 NA
ATOM     17  N   UNL     1      32.525 -13.703 -19.921  0.00  0.00    -0.251 NA
ATOM     18  C   UNL     1      32.317 -13.369 -22.152  0.00  0.00    +0.124 C 
ATOM     19  C   UNL     1      33.042 -14.722 -20.571  0.00  0.00    +0.201 C 
ATOM     20  C   UNL     1      32.070 -12.857 -20.900  0.00  0.00    +0.143 C 
BRANCH  20  24
ATOM     21  F   UNL     1      30.107 -11.517 -20.956  0.00  0.00    -0.165 F 
ATOM     22  F   UNL     1      31.376 -11.324 -19.200  0.00  0.00    -0.165 F 
ATOM     23  F   UNL     1      32.009 -10.473 -21.092  0.00  0.00    -0.165 F 
ATOM     24  C   UNL     1      31.416 -11.588 -20.548  0.00  0.00    +0.432 C 
ENDBRANCH  20  24
ENDBRANCH   1  16
BRANCH   1  25
ATOM     25  C   UNL     1      34.262 -14.846 -24.084  0.00  0.00    +0.025 C 
BRANCH  25  26
ATOM     26  C   UNL     1      33.419 -14.030 -25.050  0.00  0.00    +0.002 C 
ATOM     27  C   UNL     1      33.378 -14.618 -26.456  0.00  0.00    +0.000 C 
ATOM     28  C   UNL     1      33.973 -12.631 -25.298  0.00  0.00    +0.000 C 
ATOM     29  C   UNL     1      33.285 -12.183 -26.584  0.00  0.00    +0.000 C 
ATOM     30  C   UNL     1      32.891 -13.462 -27.324  0.00  0.00    +0.000 C 
ENDBRANCH  25  26
ENDBRANCH   1  25
TORSDOF 7
ENDMDL
MODEL 6
REMARK VINA RESULT:      -9.1      8.530     12.517
REMARK  Name = 46181428
REMARK  7 active torsions:
REMARK  status: ('A' for Active; 'I' for Inactive)
REMARK    1  A    between atoms: C_1  and  C_5
REMARK    2  A    between atoms: C_1  and  N_16
REMARK    3  A    between atoms: C_1  and  C_25
REMARK    4  A    between atoms: C_10  and  C_13
REMARK    5  A    between atoms: C_13  and  O_14
REMARK    6  A    between atoms: C_20  and  C_24
REMARK    7  A    between atoms: C_25  and  C_26
REMARK                            x       y       z     vdW  Elec       q    Type
REMARK                         _______ _______ _______ _____ _____    ______ ____
ROOT
ATOM      1  C   UNL     1      33.015 -13.611 -21.776  0.00  0.00    +0.137 C 
ENDROOT
BRANCH   1   5
ATOM      2  O   UNL     1      31.777 -15.647 -21.371  0.00  0.00    -0.273 OA
ATOM      3  N   UNL     1      34.122 -15.731 -21.403  0.00  0.00    -0.268 N 
ATOM      4  N   UNL     1      35.683 -17.498 -21.088  0.00  0.00    -0.229 NA
ATOM      5  C   UNL     1      32.877 -15.116 -21.497  0.00  0.00    +0.242 C 
ATOM      6  C   UNL     1      34.393 -17.095 -21.140  0.00  0.00    +0.134 C 
ATOM      7  C   UNL     1      33.310 -17.937 -20.951  0.00  0.00    +0.035 C 
ATOM      8  C   UNL     1      33.566 -19.279 -20.691  0.00  0.00    +0.011 C 
ATOM      9  C   UNL     1      35.892 -18.810 -20.833  0.00  0.00    +0.107 C 
ATOM     10  C   UNL     1      34.879 -19.731 -20.629  0.00  0.00    +0.095 C 
ATOM     11  H   UNL     1      34.906 -15.149 -21.533  0.00  0.00    +0.156 HD
BRANCH  10  13
ATOM     12  O   UNL     1      36.286 -21.661 -20.495  0.00  0.00    -0.245 OA
ATOM     13  C   UNL     1      35.180 -21.126 -20.357  0.00  0.00    +0.340 C 
BRANCH  13  14
ATOM     14  O   UNL     1      34.093 -21.819 -19.918  0.00  0.00    -0.477 OA
ATOM     15  H   UNL     1      33.843 -21.778 -19.016  0.00  0.00    +0.295 HD
ENDBRANCH  13  14
ENDBRANCH  10  13
ENDBRANCH   1   5
BRANCH   1  16
ATOM     16  N   UNL     1      33.202 -13.368 -23.265  0.00  0.00    -0.240 NA
ATOM     17  N   UNL     1      33.811 -12.363 -25.150  0.00  0.00    -0.251 NA
ATOM     18  C   UNL     1      32.798 -14.193 -24.276  0.00  0.00    +0.124 C 
ATOM     19  C   UNL     1      33.804 -12.282 -23.838  0.00  0.00    +0.201 C 
ATOM     20  C   UNL     1      33.184 -13.551 -25.430  0.00  0.00    +0.143 C 
BRANCH  20  24
ATOM     21  F   UNL     1      31.857 -13.497 -27.402  0.00  0.00    -0.165 F 
ATOM     22  F   UNL     1      34.012 -13.619 -27.673  0.00  0.00    -0.165 F 
ATOM     23  F   UNL     1      32.909 -15.353 -26.979  0.00  0.00    -0.165 F 
ATOM     24  C   UNL     1      33.000 -13.990 -26.821  0.00  0.00    +0.432 C 
ENDBRANCH  20  24
ENDBRANCH   1  16
BRANCH   1  25
ATOM     25  C   UNL     1      31.819 -12.828 -21.196  0.00  0.00    +0.025 C 
BRANCH  25  26
ATOM     26  C   UNL     1      32.208 -11.472 -20.632  0.00  0.00    +0.002 C 
ATOM     27  C   UNL     1      31.486 -11.132 -19.331  0.00  0.00    +0.000 C 
ATOM     28  C   UNL     1      31.813 -10.308 -21.535  0.00  0.00    +0.000 C 
ATOM     29  C   UNL     1      31.861  -9.092 -20.616  0.00  0.00    +0.000 C 
ATOM     30  C   UNL     1      31.663  -9.623 -19.196  0.00  0.00    +0.000 C 
ENDBRANCH  25  26
ENDBRANCH   1  25
TORSDOF 7
ENDMDL
MODEL 7
REMARK VINA RESULT:      -9.0     10.790     14.309
REMARK  Name = 46181428
REMARK  7 active torsions:
REMARK  status: ('A' for Active; 'I' for Inactive)
REMARK    1  A    between atoms: C_1  and  C_5
REMARK    2  A    between atoms: C_1  and  N_16
REMARK    3  A    between atoms: C_1  and  C_25
REMARK    4  A    between atoms: C_10  and  C_13
REMARK    5  A    between atoms: C_13  and  O_14
REMARK    6  A    between atoms: C_20  and  C_24
REMARK    7  A    between atoms: C_25  and  C_26
REMARK                            x       y       z     vdW  Elec       q    Type
REMARK                         _______ _______ _______ _____ _____    ______ ____
ROOT
ATOM      1  C   UNL     1      31.848 -12.427 -21.867  0.00  0.00    +0.137 C 
ENDROOT
BRANCH   1   5
ATOM      2  O   UNL     1      32.186 -10.511 -20.433  0.00  0.00    -0.273 OA
ATOM      3  N   UNL     1      31.559 -10.161 -22.668  0.00  0.00    -0.268 N 
ATOM      4  N   UNL     1      31.132  -8.198 -23.941  0.00  0.00    -0.229 NA
ATOM      5  C   UNL     1      31.895 -10.924 -21.552  0.00  0.00    +0.242 C 
ATOM      6  C   UNL     1      31.479  -8.751 -22.757  0.00  0.00    +0.134 C 
ATOM      7  C   UNL     1      31.762  -8.022 -21.614  0.00  0.00    +0.035 C 
ATOM      8  C   UNL     1      31.685  -6.635 -21.691  0.00  0.00    +0.011 C 
ATOM      9  C   UNL     1      31.067  -6.848 -23.977  0.00  0.00    +0.107 C 
ATOM     10  C   UNL     1      31.332  -6.030 -22.892  0.00  0.00    +0.095 C 
ATOM     11  H   UNL     1      31.353 -10.662 -23.490  0.00  0.00    +0.156 HD
BRANCH  10  13
ATOM     12  O   UNL     1      31.836  -3.890 -23.836  0.00  0.00    -0.245 OA
ATOM     13  C   UNL     1      31.239  -4.585 -23.004  0.00  0.00    +0.340 C 
BRANCH  13  14
ATOM     14  O   UNL     1      30.404  -4.040 -22.075  0.00  0.00    -0.477 OA
ATOM     15  H   UNL     1      29.488  -4.234 -22.098  0.00  0.00    +0.295 HD
ENDBRANCH  13  14
ENDBRANCH  10  13
ENDBRANCH   1   5
BRANCH   1  16
ATOM     16  N   UNL     1      32.533 -12.708 -23.194  0.00  0.00    -0.240 NA
ATOM     17  N   UNL     1      33.916 -12.467 -24.914  0.00  0.00    -0.251 NA
ATOM     18  C   UNL     1      32.263 -13.746 -24.040  0.00  0.00    +0.124 C 
ATOM     19  C   UNL     1      33.532 -11.966 -23.761  0.00  0.00    +0.201 C 
ATOM     20  C   UNL     1      33.129 -13.575 -25.095  0.00  0.00    +0.143 C 
BRANCH  20  24
ATOM     21  F   UNL     1      34.110 -15.482 -26.122  0.00  0.00    -0.165 F 
ATOM     22  F   UNL     1      32.097 -14.954 -26.755  0.00  0.00    -0.165 F 
ATOM     23  F   UNL     1      33.783 -13.745 -27.390  0.00  0.00    -0.165 F 
ATOM     24  C   UNL     1      33.273 -14.408 -26.298  0.00  0.00    +0.432 C 
ENDBRANCH  20  24
ENDBRANCH   1  16
BRANCH   1  25
ATOM     25  C   UNL     1      32.444 -13.255 -20.708  0.00  0.00    +0.025 C 
BRANCH  25  26
ATOM     26  C   UNL     1      33.120 -14.534 -21.172  0.00  0.00    +0.002 C 
ATOM     27  C   UNL     1      32.383 -15.796 -20.736  0.00  0.00    +0.000 C 
ATOM     28  C   UNL     1      34.503 -14.739 -20.562  0.00  0.00    +0.000 C 
ATOM     29  C   UNL     1      34.785 -16.223 -20.773  0.00  0.00    +0.000 C 
ATOM     30  C   UNL     1      33.420 -16.903 -20.897  0.00  0.00    +0.000 C 
ENDBRANCH  25  26
ENDBRANCH   1  25
TORSDOF 7
ENDMDL
MODEL 8
REMARK VINA RESULT:      -9.0      3.138      5.232
REMARK  Name = 46181428
REMARK  7 active torsions:
REMARK  status: ('A' for Active; 'I' for Inactive)
REMARK    1  A    between atoms: C_1  and  C_5
REMARK    2  A    between atoms: C_1  and  N_16
REMARK    3  A    between atoms: C_1  and  C_25
REMARK    4  A    between atoms: C_10  and  C_13
REMARK    5  A    between atoms: C_13  and  O_14
REMARK    6  A    between atoms: C_20  and  C_24
REMARK    7  A    between atoms: C_25  and  C_26
REMARK                            x       y       z     vdW  Elec       q    Type
REMARK                         _______ _______ _______ _____ _____    ______ ____
ROOT
ATOM      1  C   UNL     1      35.640 -23.966 -15.039  0.00  0.00    +0.137 C 
ENDROOT
BRANCH   1   5
ATOM      2  O   UNL     1      37.269 -22.677 -16.275  0.00  0.00    -0.273 OA
ATOM      3  N   UNL     1      35.061 -22.772 -17.064  0.00  0.00    -0.268 N 
ATOM      4  N   UNL     1      33.969 -21.800 -18.941  0.00  0.00    -0.229 NA
ATOM      5  C   UNL     1      36.107 -23.066 -16.194  0.00  0.00    +0.242 C 
ATOM      6  C   UNL     1      35.105 -21.964 -18.225  0.00  0.00    +0.134 C 
ATOM      7  C   UNL     1      36.319 -21.387 -18.556  0.00  0.00    +0.035 C 
ATOM      8  C   UNL     1      36.373 -20.590 -19.695  0.00  0.00    +0.011 C 
ATOM      9  C   UNL     1      34.060 -21.020 -20.041  0.00  0.00    +0.107 C 
ATOM     10  C   UNL     1      35.226 -20.399 -20.457  0.00  0.00    +0.095 C 
ATOM     11  H   UNL     1      34.188 -23.172 -16.845  0.00  0.00    +0.156 HD
BRANCH  10  13
ATOM     12  O   UNL     1      34.392 -19.577 -22.543  0.00  0.00    -0.245 OA
ATOM     13  C   UNL     1      35.248 -19.570 -21.650  0.00  0.00    +0.340 C 
BRANCH  13  14
ATOM     14  O   UNL     1      36.336 -18.754 -21.700  0.00  0.00    -0.477 OA
ATOM     15  H   UNL     1      36.309 -17.966 -22.206  0.00  0.00    +0.295 HD
ENDBRANCH  13  14
ENDBRANCH  10  13
ENDBRANCH   1   5
BRANCH   1  16
ATOM     16  N   UNL     1      34.154 -23.771 -14.790  0.00  0.00    -0.240 NA
ATOM     17  N   UNL     1      32.230 -23.615 -13.690  0.00  0.00    -0.251 NA
ATOM     18  C   UNL     1      33.202 -23.509 -15.735  0.00  0.00    +0.124 C 
ATOM     19  C   UNL     1      33.523 -23.826 -13.578  0.00  0.00    +0.201 C 
ATOM     20  C   UNL     1      32.023 -23.417 -15.032  0.00  0.00    +0.143 C 
BRANCH  20  24
ATOM     21  F   UNL     1      29.925 -22.342 -14.730  0.00  0.00    -0.165 F 
ATOM     22  F   UNL     1      30.648 -22.522 -16.773  0.00  0.00    -0.165 F 
ATOM     23  F   UNL     1      29.901 -24.272 -15.731  0.00  0.00    -0.165 F 
ATOM     24  C   UNL     1      30.674 -23.149 -15.550  0.00  0.00    +0.432 C 
ENDBRANCH  20  24
ENDBRANCH   1  16
BRANCH   1  25
ATOM     25  C   UNL     1      36.005 -25.442 -15.305  0.00  0.00    +0.025 C 
BRANCH  25  26
ATOM     26  C   UNL     1      37.087 -25.968 -14.378  0.00  0.00    +0.002 C 
ATOM     27  C   UNL     1      36.967 -25.439 -12.953  0.00  0.00    +0.000 C 
ATOM     28  C   UNL     1      38.489 -25.519 -14.775  0.00  0.00    +0.000 C 
ATOM     29  C   UNL     1      39.322 -25.746 -13.516  0.00  0.00    +0.000 C 
ATOM     30  C   UNL     1      38.340 -25.707 -12.344  0.00  0.00    +0.000 C 
ENDBRANCH  25  26
ENDBRANCH   1  25
TORSDOF 7
ENDMDL
MODEL 9
REMARK VINA RESULT:      -8.9      2.975      5.066
REMARK  Name = 46181428
REMARK  7 active torsions:
REMARK  status: ('A' for Active; 'I' for Inactive)
REMARK    1  A    between atoms: C_1  and  C_5
REMARK    2  A    between atoms: C_1  and  N_16
REMARK    3  A    between atoms: C_1  and  C_25
REMARK    4  A    between atoms: C_10  and  C_13
REMARK    5  A    between atoms: C_13  and  O_14
REMARK    6  A    between atoms: C_20  and  C_24
REMARK    7  A    between atoms: C_25  and  C_26
REMARK                            x       y       z     vdW  Elec       q    Type
REMARK                         _______ _______ _______ _____ _____    ______ ____
ROOT
ATOM      1  C   UNL     1      35.291 -23.647 -15.493  0.00  0.00    +0.137 C 
ENDROOT
BRANCH   1   5
ATOM      2  O   UNL     1      37.065 -22.642 -16.792  0.00  0.00    -0.273 OA
ATOM      3  N   UNL     1      34.847 -22.393 -17.516  0.00  0.00    -0.268 N 
ATOM      4  N   UNL     1      33.866 -21.277 -19.373  0.00  0.00    -0.229 NA
ATOM      5  C   UNL     1      35.860 -22.842 -16.672  0.00  0.00    +0.242 C 
ATOM      6  C   UNL     1      34.983 -21.612 -18.688  0.00  0.00    +0.134 C 
ATOM      7  C   UNL     1      36.262 -21.237 -19.061  0.00  0.00    +0.035 C 
ATOM      8  C   UNL     1      36.406 -20.469 -20.211  0.00  0.00    +0.011 C 
ATOM      9  C   UNL     1      34.045 -20.530 -20.486  0.00  0.00    +0.107 C 
ATOM     10  C   UNL     1      35.281 -20.105 -20.943  0.00  0.00    +0.095 C 
ATOM     11  H   UNL     1      33.929 -22.649 -17.267  0.00  0.00    +0.156 HD
BRANCH  10  13
ATOM     12  O   UNL     1      34.661 -19.381 -23.137  0.00  0.00    -0.245 OA
ATOM     13  C   UNL     1      35.398 -19.300 -22.147  0.00  0.00    +0.340 C 
BRANCH  13  14
ATOM     14  O   UNL     1      36.430 -18.414 -22.086  0.00  0.00    -0.477 OA
ATOM     15  H   UNL     1      37.259 -18.683 -21.743  0.00  0.00    +0.295 HD
ENDBRANCH  13  14
ENDBRANCH  10  13
ENDBRANCH   1   5
BRANCH   1  16
ATOM     16  N   UNL     1      33.772 -23.615 -15.519  0.00  0.00    -0.240 NA
ATOM     17  N   UNL     1      31.704 -23.598 -16.328  0.00  0.00    -0.251 NA
ATOM     18  C   UNL     1      32.945 -23.557 -14.433  0.00  0.00    +0.124 C 
ATOM     19  C   UNL     1      32.982 -23.636 -16.635  0.00  0.00    +0.201 C 
ATOM     20  C   UNL     1      31.674 -23.548 -14.957  0.00  0.00    +0.143 C 
BRANCH  20  24
ATOM     21  F   UNL     1      29.617 -22.414 -14.586  0.00  0.00    -0.165 F 
ATOM     22  F   UNL     1      29.582 -24.584 -14.438  0.00  0.00    -0.165 F 
ATOM     23  F   UNL     1      30.512 -23.407 -12.871  0.00  0.00    -0.165 F 
ATOM     24  C   UNL     1      30.393 -23.493 -14.238  0.00  0.00    +0.432 C 
ENDBRANCH  20  24
ENDBRANCH   1  16
BRANCH   1  25
ATOM     25  C   UNL     1      35.851 -25.085 -15.484  0.00  0.00    +0.025 C 
BRANCH  25  26
ATOM     26  C   UNL     1      36.747 -25.372 -14.291  0.00  0.00    +0.002 C 
ATOM     27  C   UNL     1      36.593 -24.354 -13.165  0.00  0.00    +0.000 C 
ATOM     28  C   UNL     1      38.233 -25.274 -14.618  0.00  0.00    +0.000 C 
ATOM     29  C   UNL     1      38.904 -25.134 -13.255  0.00  0.00    +0.000 C 
ATOM     30  C   UNL     1      37.844 -24.553 -12.316  0.00  0.00    +0.000 C 
ENDBRANCH  25  26
ENDBRANCH   1  25
TORSDOF 7
ENDMDL
