MODEL 1
REMARK VINA RESULT:      -6.9      0.000      0.000
REMARK  Name = 3677
REMARK  3 active torsions:
REMARK  status: ('A' for Active; 'I' for Inactive)
REMARK    1  A    between atoms: C_1  and  N_4
REMARK    2  A    between atoms: C_1  and  C_8
REMARK    3  A    between atoms: C_8  and  C_9
REMARK                            x       y       z     vdW  Elec       q    Type
REMARK                         _______ _______ _______ _____ _____    ______ ____
ROOT
ATOM      1  C   UNL     1      35.060 -18.267 -22.730  0.00  0.00    -0.042 C 
ATOM      2  C   UNL     1      36.573 -18.238 -22.469  0.00  0.00    -0.021 C 
ATOM      3  C   UNL     1      34.727 -19.384 -23.728  0.00  0.00    -0.021 C 
ENDROOT
BRANCH   1   4
ATOM      4  N   UNL     1      34.705 -16.990 -23.373  0.00  0.00    +0.385 N 
ATOM      5  C   UNL     1      34.744 -17.125 -24.817  0.00  0.00    -0.105 C 
ATOM      6  H   UNL     1      35.370 -16.272 -23.085  0.00  0.00    -0.084 HD
ATOM      7  H   UNL     1      33.762 -16.727 -23.090  0.00  0.00    -0.084 HD
ENDBRANCH   1   4
BRANCH   1   8
ATOM      8  C   UNL     1      34.239 -18.383 -21.419  0.00  0.00    +0.007 C 
BRANCH   8   9
ATOM      9  C   UNL     1      34.328 -19.701 -20.686  0.00  0.00    -0.024 C 
ATOM     10  C   UNL     1      33.162 -20.341 -20.298  0.00  0.00    -0.004 C 
ATOM     11  C   UNL     1      35.573 -20.246 -20.417  0.00  0.00    -0.004 C 
ATOM     12  C   UNL     1      33.244 -21.558 -19.623  0.00  0.00    -0.000 C 
ATOM     13  C   UNL     1      35.655 -21.463 -19.742  0.00  0.00    -0.000 C 
ATOM     14  C   UNL     1      34.490 -22.119 -19.344  0.00  0.00    -0.000 C 
ENDBRANCH   8   9
ENDBRANCH   1   8
TORSDOF 3
ENDMDL
MODEL 2
REMARK VINA RESULT:      -6.9      0.024      1.395
REMARK  Name = 3677
REMARK  3 active torsions:
REMARK  status: ('A' for Active; 'I' for Inactive)
REMARK    1  A    between atoms: C_1  and  N_4
REMARK    2  A    between atoms: C_1  and  C_8
REMARK    3  A    between atoms: C_8  and  C_9
REMARK                            x       y       z     vdW  Elec       q    Type
REMARK                         _______ _______ _______ _____ _____    ______ ____
ROOT
ATOM      1  C   UNL     1      35.046 -18.263 -22.737  0.00  0.00    -0.042 C 
ATOM      2  C   UNL     1      36.561 -18.224 -22.492  0.00  0.00    -0.021 C 
ATOM      3  C   UNL     1      34.709 -19.385 -23.728  0.00  0.00    -0.021 C 
ENDROOT
BRANCH   1   4
ATOM      4  N   UNL     1      34.677 -16.990 -23.380  0.00  0.00    +0.385 N 
ATOM      5  C   UNL     1      34.761 -17.112 -24.823  0.00  0.00    -0.105 C 
ATOM      6  H   UNL     1      35.315 -16.258 -23.067  0.00  0.00    -0.084 HD
ATOM      7  H   UNL     1      33.720 -16.753 -23.122  0.00  0.00    -0.084 HD
ENDBRANCH   1   4
BRANCH   1   8
ATOM      8  C   UNL     1      34.240 -18.380 -21.417  0.00  0.00    +0.007 C 
BRANCH   8   9
ATOM      9  C   UNL     1      34.338 -19.698 -20.684  0.00  0.00    -0.024 C 
ATOM     10  C   UNL     1      35.588 -20.227 -20.407  0.00  0.00    -0.004 C 
ATOM     11  C   UNL     1      33.178 -20.350 -20.302  0.00  0.00    -0.004 C 
ATOM     12  C   UNL     1      35.679 -21.443 -19.729  0.00  0.00    -0.000 C 
ATOM     13  C   UNL     1      33.269 -21.566 -19.625  0.00  0.00    -0.000 C 
ATOM     14  C   UNL     1      34.520 -22.113 -19.339  0.00  0.00    -0.000 C 
ENDBRANCH   8   9
ENDBRANCH   1   8
TORSDOF 3
ENDMDL
MODEL 3
REMARK VINA RESULT:      -6.6      2.479      5.214
REMARK  Name = 3677
REMARK  3 active torsions:
REMARK  status: ('A' for Active; 'I' for Inactive)
REMARK    1  A    between atoms: C_1  and  N_4
REMARK    2  A    between atoms: C_1  and  C_8
REMARK    3  A    between atoms: C_8  and  C_9
REMARK                            x       y       z     vdW  Elec       q    Type
REMARK                         _______ _______ _______ _____ _____    ______ ____
ROOT
ATOM      1  C   UNL     1      34.770 -19.037 -21.437  0.00  0.00    -0.042 C 
ATOM      2  C   UNL     1      33.387 -19.402 -20.879  0.00  0.00    -0.021 C 
ATOM      3  C   UNL     1      34.787 -19.245 -22.957  0.00  0.00    -0.021 C 
ENDROOT
BRANCH   1   4
ATOM      4  N   UNL     1      35.736 -19.986 -20.857  0.00  0.00    +0.385 N 
ATOM      5  C   UNL     1      35.059 -20.919 -19.977  0.00  0.00    -0.105 C 
ATOM      6  H   UNL     1      36.436 -19.469 -20.325  0.00  0.00    -0.084 HD
ATOM      7  H   UNL     1      36.184 -20.505 -21.611  0.00  0.00    -0.084 HD
ENDBRANCH   1   4
BRANCH   1   8
ATOM      8  C   UNL     1      35.208 -17.606 -21.033  0.00  0.00    +0.007 C 
BRANCH   8   9
ATOM      9  C   UNL     1      34.431 -16.466 -21.649  0.00  0.00    -0.024 C 
ATOM     10  C   UNL     1      34.862 -15.922 -22.848  0.00  0.00    -0.004 C 
ATOM     11  C   UNL     1      33.301 -15.988 -21.005  0.00  0.00    -0.004 C 
ATOM     12  C   UNL     1      34.144 -14.871 -23.418  0.00  0.00    -0.000 C 
ATOM     13  C   UNL     1      32.583 -14.937 -21.575  0.00  0.00    -0.000 C 
ATOM     14  C   UNL     1      33.005 -14.378 -22.782  0.00  0.00    -0.000 C 
ENDBRANCH   8   9
ENDBRANCH   1   8
TORSDOF 3
ENDMDL
MODEL 4
REMARK VINA RESULT:      -6.6      2.391      5.163
REMARK  Name = 3677
REMARK  3 active torsions:
REMARK  status: ('A' for Active; 'I' for Inactive)
REMARK    1  A    between atoms: C_1  and  N_4
REMARK    2  A    between atoms: C_1  and  C_8
REMARK    3  A    between atoms: C_8  and  C_9
REMARK                            x       y       z     vdW  Elec       q    Type
REMARK                         _______ _______ _______ _____ _____    ______ ____
ROOT
ATOM      1  C   UNL     1      34.749 -19.024 -21.415  0.00  0.00    -0.042 C 
ATOM      2  C   UNL     1      34.761 -19.253 -22.933  0.00  0.00    -0.021 C 
ATOM      3  C   UNL     1      35.581 -20.109 -20.719  0.00  0.00    -0.021 C 
ENDROOT
BRANCH   1   4
ATOM      4  N   UNL     1      33.357 -19.186 -20.962  0.00  0.00    +0.385 N 
ATOM      5  C   UNL     1      33.204 -20.438 -20.245  0.00  0.00    -0.105 C 
ATOM      6  H   UNL     1      32.738 -19.184 -21.772  0.00  0.00    -0.084 HD
ATOM      7  H   UNL     1      33.119 -18.416 -20.337  0.00  0.00    -0.084 HD
ENDBRANCH   1   4
BRANCH   1   8
ATOM      8  C   UNL     1      35.209 -17.593 -21.032  0.00  0.00    +0.007 C 
BRANCH   8   9
ATOM      9  C   UNL     1      34.435 -16.451 -21.650  0.00  0.00    -0.024 C 
ATOM     10  C   UNL     1      34.859 -15.918 -22.856  0.00  0.00    -0.004 C 
ATOM     11  C   UNL     1      33.315 -15.961 -20.999  0.00  0.00    -0.004 C 
ATOM     12  C   UNL     1      34.144 -14.865 -23.426  0.00  0.00    -0.000 C 
ATOM     13  C   UNL     1      32.599 -14.908 -21.569  0.00  0.00    -0.000 C 
ATOM     14  C   UNL     1      33.015 -14.360 -22.783  0.00  0.00    -0.000 C 
ENDBRANCH   8   9
ENDBRANCH   1   8
TORSDOF 3
ENDMDL
MODEL 5
REMARK VINA RESULT:      -6.5      1.832      2.929
REMARK  Name = 3677
REMARK  3 active torsions:
REMARK  status: ('A' for Active; 'I' for Inactive)
REMARK    1  A    between atoms: C_1  and  N_4
REMARK    2  A    between atoms: C_1  and  C_8
REMARK    3  A    between atoms: C_8  and  C_9
REMARK                            x       y       z     vdW  Elec       q    Type
REMARK                         _______ _______ _______ _____ _____    ______ ____
ROOT
ATOM      1  C   UNL     1      34.006 -16.039 -21.506  0.00  0.00    -0.042 C 
ATOM      2  C   UNL     1      32.517 -15.961 -21.140  0.00  0.00    -0.021 C 
ATOM      3  C   UNL     1      34.861 -15.867 -20.244  0.00  0.00    -0.021 C 
ENDROOT
BRANCH   1   4
ATOM      4  N   UNL     1      34.298 -14.895 -22.387  0.00  0.00    +0.385 N 
ATOM      5  C   UNL     1      33.854 -15.175 -23.740  0.00  0.00    -0.105 C 
ATOM      6  H   UNL     1      35.303 -14.722 -22.392  0.00  0.00    -0.084 HD
ATOM      7  H   UNL     1      33.804 -14.074 -22.040  0.00  0.00    -0.084 HD
ENDBRANCH   1   4
BRANCH   1   8
ATOM      8  C   UNL     1      34.353 -17.336 -22.282  0.00  0.00    +0.007 C 
BRANCH   8   9
ATOM      9  C   UNL     1      34.450 -18.603 -21.463  0.00  0.00    -0.024 C 
ATOM     10  C   UNL     1      35.698 -19.124 -21.167  0.00  0.00    -0.004 C 
ATOM     11  C   UNL     1      33.288 -19.216 -21.024  0.00  0.00    -0.004 C 
ATOM     12  C   UNL     1      35.787 -20.293 -20.410  0.00  0.00    -0.000 C 
ATOM     13  C   UNL     1      33.377 -20.385 -20.267  0.00  0.00    -0.000 C 
ATOM     14  C   UNL     1      34.628 -20.923 -19.961  0.00  0.00    -0.000 C 
ENDBRANCH   8   9
ENDBRANCH   1   8
TORSDOF 3
ENDMDL
MODEL 6
REMARK VINA RESULT:      -6.4      2.560      5.010
REMARK  Name = 3677
REMARK  3 active torsions:
REMARK  status: ('A' for Active; 'I' for Inactive)
REMARK    1  A    between atoms: C_1  and  N_4
REMARK    2  A    between atoms: C_1  and  C_8
REMARK    3  A    between atoms: C_8  and  C_9
REMARK                            x       y       z     vdW  Elec       q    Type
REMARK                         _______ _______ _______ _____ _____    ______ ____
ROOT
ATOM      1  C   UNL     1      35.321 -18.356 -21.604  0.00  0.00    -0.042 C 
ATOM      2  C   UNL     1      36.264 -19.335 -20.890  0.00  0.00    -0.021 C 
ATOM      3  C   UNL     1      33.928 -18.985 -21.744  0.00  0.00    -0.021 C 
ENDROOT
BRANCH   1   4
ATOM      4  N   UNL     1      35.847 -18.160 -22.966  0.00  0.00    +0.385 N 
ATOM      5  C   UNL     1      35.082 -18.942 -23.919  0.00  0.00    -0.105 C 
ATOM      6  H   UNL     1      36.823 -18.455 -22.995  0.00  0.00    -0.084 HD
ATOM      7  H   UNL     1      35.773 -17.173 -23.211  0.00  0.00    -0.084 HD
ENDBRANCH   1   4
BRANCH   1   8
ATOM      8  C   UNL     1      35.275 -16.971 -20.908  0.00  0.00    +0.007 C 
BRANCH   8   9
ATOM      9  C   UNL     1      34.368 -15.935 -21.533  0.00  0.00    -0.024 C 
ATOM     10  C   UNL     1      34.705 -15.392 -22.761  0.00  0.00    -0.004 C 
ATOM     11  C   UNL     1      33.216 -15.551 -20.866  0.00  0.00    -0.004 C 
ATOM     12  C   UNL     1      33.868 -14.438 -23.339  0.00  0.00    -0.000 C 
ATOM     13  C   UNL     1      32.379 -14.596 -21.443  0.00  0.00    -0.000 C 
ATOM     14  C   UNL     1      32.706 -14.039 -22.680  0.00  0.00    -0.000 C 
ENDBRANCH   8   9
ENDBRANCH   1   8
TORSDOF 3
ENDMDL
MODEL 7
REMARK VINA RESULT:      -6.3      2.670      4.309
REMARK  Name = 3677
REMARK  3 active torsions:
REMARK  status: ('A' for Active; 'I' for Inactive)
REMARK    1  A    between atoms: C_1  and  N_4
REMARK    2  A    between atoms: C_1  and  C_8
REMARK    3  A    between atoms: C_8  and  C_9
REMARK                            x       y       z     vdW  Elec       q    Type
REMARK                         _______ _______ _______ _____ _____    ______ ____
ROOT
ATOM      1  C   UNL     1      33.778 -14.512 -23.438  0.00  0.00    -0.042 C 
ATOM      2  C   UNL     1      33.181 -14.786 -24.826  0.00  0.00    -0.021 C 
ATOM      3  C   UNL     1      32.717 -14.758 -22.358  0.00  0.00    -0.021 C 
ENDROOT
BRANCH   1   4
ATOM      4  N   UNL     1      34.126 -13.082 -23.388  0.00  0.00    +0.385 N 
ATOM      5  C   UNL     1      33.745 -12.428 -24.626  0.00  0.00    -0.105 C 
ATOM      6  H   UNL     1      35.132 -12.985 -23.253  0.00  0.00    -0.084 HD
ATOM      7  H   UNL     1      33.625 -12.645 -22.615  0.00  0.00    -0.084 HD
ENDBRANCH   1   4
BRANCH   1   8
ATOM      8  C   UNL     1      35.075 -15.325 -23.186  0.00  0.00    +0.007 C 
BRANCH   8   9
ATOM      9  C   UNL     1      34.896 -16.786 -22.842  0.00  0.00    -0.024 C 
ATOM     10  C   UNL     1      34.881 -17.725 -23.860  0.00  0.00    -0.004 C 
ATOM     11  C   UNL     1      34.753 -17.158 -21.515  0.00  0.00    -0.004 C 
ATOM     12  C   UNL     1      34.717 -19.073 -23.543  0.00  0.00    -0.000 C 
ATOM     13  C   UNL     1      34.589 -18.506 -21.198  0.00  0.00    -0.000 C 
ATOM     14  C   UNL     1      34.571 -19.463 -22.212  0.00  0.00    -0.000 C 
ENDBRANCH   8   9
ENDBRANCH   1   8
TORSDOF 3
ENDMDL
MODEL 8
REMARK VINA RESULT:      -6.1      9.886     11.618
REMARK  Name = 3677
REMARK  3 active torsions:
REMARK  status: ('A' for Active; 'I' for Inactive)
REMARK    1  A    between atoms: C_1  and  N_4
REMARK    2  A    between atoms: C_1  and  C_8
REMARK    3  A    between atoms: C_8  and  C_9
REMARK                            x       y       z     vdW  Elec       q    Type
REMARK                         _______ _______ _______ _____ _____    ______ ____
ROOT
ATOM      1  C   UNL     1      32.257  -7.002 -23.137  0.00  0.00    -0.042 C 
ATOM      2  C   UNL     1      32.964  -6.333 -24.325  0.00  0.00    -0.021 C 
ATOM      3  C   UNL     1      30.855  -7.462 -23.559  0.00  0.00    -0.021 C 
ENDROOT
BRANCH   1   4
ATOM      4  N   UNL     1      32.082  -5.971 -22.099  0.00  0.00    +0.385 N 
ATOM      5  C   UNL     1      30.705  -5.514 -22.071  0.00  0.00    -0.105 C 
ATOM      6  H   UNL     1      32.694  -5.181 -22.303  0.00  0.00    -0.084 HD
ATOM      7  H   UNL     1      32.317  -6.371 -21.191  0.00  0.00    -0.084 HD
ENDBRANCH   1   4
BRANCH   1   8
ATOM      8  C   UNL     1      33.097  -8.154 -22.526  0.00  0.00    +0.007 C 
BRANCH   8   9
ATOM      9  C   UNL     1      32.360  -9.115 -21.622  0.00  0.00    -0.024 C 
ATOM     10  C   UNL     1      31.773 -10.244 -22.169  0.00  0.00    -0.004 C 
ATOM     11  C   UNL     1      32.288  -8.850 -20.264  0.00  0.00    -0.004 C 
ATOM     12  C   UNL     1      31.094 -11.133 -21.335  0.00  0.00    -0.000 C 
ATOM     13  C   UNL     1      31.609  -9.739 -19.430  0.00  0.00    -0.000 C 
ATOM     14  C   UNL     1      31.012 -10.880 -19.966  0.00  0.00    -0.000 C 
ENDBRANCH   8   9
ENDBRANCH   1   8
TORSDOF 3
ENDMDL
MODEL 9
REMARK VINA RESULT:      -6.1      9.707     11.459
REMARK  Name = 3677
REMARK  3 active torsions:
REMARK  status: ('A' for Active; 'I' for Inactive)
REMARK    1  A    between atoms: C_1  and  N_4
REMARK    2  A    between atoms: C_1  and  C_8
REMARK    3  A    between atoms: C_8  and  C_9
REMARK                            x       y       z     vdW  Elec       q    Type
REMARK                         _______ _______ _______ _____ _____    ______ ____
ROOT
ATOM      1  C   UNL     1      32.190  -7.007 -23.052  0.00  0.00    -0.042 C 
ATOM      2  C   UNL     1      30.864  -7.498 -23.651  0.00  0.00    -0.021 C 
ATOM      3  C   UNL     1      31.916  -5.918 -22.007  0.00  0.00    -0.021 C 
ENDROOT
BRANCH   1   4
ATOM      4  N   UNL     1      32.954  -6.380 -24.144  0.00  0.00    +0.385 N 
ATOM      5  C   UNL     1      34.258  -7.004 -24.269  0.00  0.00    -0.105 C 
ATOM      6  H   UNL     1      33.075  -5.387 -23.942  0.00  0.00    -0.084 HD
ATOM      7  H   UNL     1      32.444  -6.499 -25.018  0.00  0.00    -0.084 HD
ENDBRANCH   1   4
BRANCH   1   8
ATOM      8  C   UNL     1      33.044  -8.170 -22.482  0.00  0.00    +0.007 C 
BRANCH   8   9
ATOM      9  C   UNL     1      32.329  -9.146 -21.576  0.00  0.00    -0.024 C 
ATOM     10  C   UNL     1      32.271  -8.889 -20.216  0.00  0.00    -0.004 C 
ATOM     11  C   UNL     1      31.745 -10.277 -22.122  0.00  0.00    -0.004 C 
ATOM     12  C   UNL     1      31.611  -9.789 -19.379  0.00  0.00    -0.000 C 
ATOM     13  C   UNL     1      31.085 -11.177 -21.286  0.00  0.00    -0.000 C 
ATOM     14  C   UNL     1      31.018 -10.933 -19.914  0.00  0.00    -0.000 C 
ENDBRANCH   8   9
ENDBRANCH   1   8
TORSDOF 3
ENDMDL
