MODEL 1
REMARK VINA RESULT:      -7.1      0.000      0.000
REMARK  Name = 448271
REMARK  16 active torsions:
REMARK  status: ('A' for Active; 'I' for Inactive)
REMARK    1  A    between atoms: O_1  and  C_3
REMARK    2  A    between atoms: O_1  and  C_12
REMARK    3  A    between atoms: C_3  and  C_4
REMARK    4  A    between atoms: C_4  and  C_5
REMARK    5  A    between atoms: C_5  and  C_6
REMARK    6  A    between atoms: C_6  and  C_7
REMARK    7  A    between atoms: C_7  and  C_8
REMARK    8  A    between atoms: C_8  and  C_9
REMARK    9  A    between atoms: C_9  and  C_10
REMARK   10  A    between atoms: C_12  and  C_13
REMARK   11  A    between atoms: C_13  and  O_14
REMARK   12  A    between atoms: C_13  and  C_20
REMARK   13  A    between atoms: O_14  and  C_16
REMARK   14  A    between atoms: C_16  and  C_17
REMARK   15  A    between atoms: C_17  and  C_18
REMARK   16  A    between atoms: C_20  and  O_21
REMARK                            x       y       z     vdW  Elec       q    Type
REMARK                         _______ _______ _______ _____ _____    ______ ____
ROOT
ATOM      1  O   UNL     1      34.316 -15.958 -25.887  0.00  0.00    -0.444 OA
ENDROOT
BRANCH   1   3
ATOM      2  O   UNL     1      33.751 -18.175 -25.580  0.00  0.00    -0.250 OA
ATOM      3  C   UNL     1      34.355 -17.163 -25.250  0.00  0.00    +0.317 C 
BRANCH   3   4
ATOM      4  C   UNL     1      35.268 -17.086 -24.051  0.00  0.00    +0.110 C 
BRANCH   4   5
ATOM      5  C   UNL     1      35.465 -18.440 -23.377  0.00  0.00    +0.012 C 
BRANCH   5   6
ATOM      6  C   UNL     1      35.309 -18.365 -21.855  0.00  0.00    +0.001 C 
BRANCH   6   7
ATOM      7  C   UNL     1      34.782 -19.684 -21.287  0.00  0.00    +0.000 C 
BRANCH   7   8
ATOM      8  C   UNL     1      33.293 -19.641 -20.930  0.00  0.00    +0.000 C 
BRANCH   8   9
ATOM      9  C   UNL     1      32.903 -20.627 -19.826  0.00  0.00    +0.000 C 
BRANCH   9  10
ATOM     10  C   UNL     1      34.035 -21.616 -19.542  0.00  0.00    +0.000 C 
ATOM     11  C   UNL     1      33.634 -22.632 -18.484  0.00  0.00    +0.000 C 
ENDBRANCH   9  10
ENDBRANCH   8   9
ENDBRANCH   7   8
ENDBRANCH   6   7
ENDBRANCH   5   6
ENDBRANCH   4   5
ENDBRANCH   3   4
ENDBRANCH   1   3
BRANCH   1  12
ATOM     12  C   UNL     1      33.007 -15.445 -26.155  0.00  0.00    +0.254 C 
BRANCH  12  13
ATOM     13  C   UNL     1      32.891 -14.020 -25.625  0.00  0.00    +0.241 C 
BRANCH  13  14
ATOM     14  O   UNL     1      33.665 -13.912 -24.428  0.00  0.00    -0.446 OA
BRANCH  14  16
ATOM     15  O   UNL     1      32.411 -12.625 -22.980  0.00  0.00    -0.250 OA
ATOM     16  C   UNL     1      32.953 -13.679 -23.285  0.00  0.00    +0.317 C 
BRANCH  16  17
ATOM     17  C   UNL     1      32.943 -14.938 -22.448  0.00  0.00    +0.110 C 
BRANCH  17  18
ATOM     18  C   UNL     1      33.138 -14.640 -20.963  0.00  0.00    +0.012 C 
ATOM     19  C   UNL     1      34.453 -15.203 -20.450  0.00  0.00    +0.001 C 
ENDBRANCH  17  18
ENDBRANCH  16  17
ENDBRANCH  14  16
ENDBRANCH  13  14
BRANCH  13  20
ATOM     20  C   UNL     1      33.428 -13.007 -26.627  0.00  0.00    +0.185 C 
BRANCH  20  21
ATOM     21  O   UNL     1      33.851 -13.696 -27.798  0.00  0.00    -0.378 OA
ATOM     22  H   UNL     1      33.672 -13.147 -28.578  0.00  0.00    +0.211 HD
ENDBRANCH  20  21
ENDBRANCH  13  20
ENDBRANCH  12  13
ENDBRANCH   1  12
TORSDOF 16
ENDMDL
MODEL 2
REMARK VINA RESULT:      -6.9      6.500     10.993
REMARK  Name = 448271
REMARK  16 active torsions:
REMARK  status: ('A' for Active; 'I' for Inactive)
REMARK    1  A    between atoms: O_1  and  C_3
REMARK    2  A    between atoms: O_1  and  C_12
REMARK    3  A    between atoms: C_3  and  C_4
REMARK    4  A    between atoms: C_4  and  C_5
REMARK    5  A    between atoms: C_5  and  C_6
REMARK    6  A    between atoms: C_6  and  C_7
REMARK    7  A    between atoms: C_7  and  C_8
REMARK    8  A    between atoms: C_8  and  C_9
REMARK    9  A    between atoms: C_9  and  C_10
REMARK   10  A    between atoms: C_12  and  C_13
REMARK   11  A    between atoms: C_13  and  O_14
REMARK   12  A    between atoms: C_13  and  C_20
REMARK   13  A    between atoms: O_14  and  C_16
REMARK   14  A    between atoms: C_16  and  C_17
REMARK   15  A    between atoms: C_17  and  C_18
REMARK   16  A    between atoms: C_20  and  O_21
REMARK                            x       y       z     vdW  Elec       q    Type
REMARK                         _______ _______ _______ _____ _____    ______ ____
ROOT
ATOM      1  O   UNL     1      35.422 -22.501 -17.591  0.00  0.00    -0.444 OA
ENDROOT
BRANCH   1   3
ATOM      2  O   UNL     1      33.634 -23.593 -18.563  0.00  0.00    -0.250 OA
ATOM      3  C   UNL     1      34.424 -22.659 -18.506  0.00  0.00    +0.317 C 
BRANCH   3   4
ATOM      4  C   UNL     1      34.415 -21.497 -19.468  0.00  0.00    +0.110 C 
BRANCH   4   5
ATOM      5  C   UNL     1      33.005 -21.106 -19.902  0.00  0.00    +0.012 C 
BRANCH   5   6
ATOM      6  C   UNL     1      32.964 -19.740 -20.596  0.00  0.00    +0.001 C 
BRANCH   6   7
ATOM      7  C   UNL     1      34.150 -19.569 -21.549  0.00  0.00    +0.000 C 
BRANCH   7   8
ATOM      8  C   UNL     1      34.832 -18.203 -21.431  0.00  0.00    +0.000 C 
BRANCH   8   9
ATOM      9  C   UNL     1      35.596 -17.793 -22.692  0.00  0.00    +0.000 C 
BRANCH   9  10
ATOM     10  C   UNL     1      35.055 -18.516 -23.927  0.00  0.00    +0.000 C 
ATOM     11  C   UNL     1      34.667 -17.534 -25.021  0.00  0.00    +0.000 C 
ENDBRANCH   9  10
ENDBRANCH   8   9
ENDBRANCH   7   8
ENDBRANCH   6   7
ENDBRANCH   5   6
ENDBRANCH   4   5
ENDBRANCH   3   4
ENDBRANCH   1   3
BRANCH   1  12
ATOM     12  C   UNL     1      35.138 -23.000 -16.280  0.00  0.00    +0.254 C 
BRANCH  12  13
ATOM     13  C   UNL     1      36.441 -23.266 -15.534  0.00  0.00    +0.241 C 
BRANCH  13  14
ATOM     14  O   UNL     1      36.670 -24.677 -15.499  0.00  0.00    -0.446 OA
BRANCH  14  16
ATOM     15  O   UNL     1      36.025 -24.998 -13.308  0.00  0.00    -0.250 OA
ATOM     16  C   UNL     1      36.768 -25.227 -14.252  0.00  0.00    +0.317 C 
BRANCH  16  17
ATOM     17  C   UNL     1      37.950 -26.170 -14.224  0.00  0.00    +0.110 C 
BRANCH  17  18
ATOM     18  C   UNL     1      39.218 -25.480 -13.726  0.00  0.00    +0.012 C 
ATOM     19  C   UNL     1      40.262 -25.373 -14.826  0.00  0.00    +0.001 C 
ENDBRANCH  17  18
ENDBRANCH  16  17
ENDBRANCH  14  16
ENDBRANCH  13  14
BRANCH  13  20
ATOM     20  C   UNL     1      37.627 -22.614 -16.234  0.00  0.00    +0.185 C 
BRANCH  20  21
ATOM     21  O   UNL     1      37.413 -21.208 -16.291  0.00  0.00    -0.378 OA
ATOM     22  H   UNL     1      36.588 -20.988 -15.831  0.00  0.00    +0.211 HD
ENDBRANCH  20  21
ENDBRANCH  13  20
ENDBRANCH  12  13
ENDBRANCH   1  12
TORSDOF 16
ENDMDL
MODEL 3
REMARK VINA RESULT:      -6.8      5.781     10.183
REMARK  Name = 448271
REMARK  16 active torsions:
REMARK  status: ('A' for Active; 'I' for Inactive)
REMARK    1  A    between atoms: O_1  and  C_3
REMARK    2  A    between atoms: O_1  and  C_12
REMARK    3  A    between atoms: C_3  and  C_4
REMARK    4  A    between atoms: C_4  and  C_5
REMARK    5  A    between atoms: C_5  and  C_6
REMARK    6  A    between atoms: C_6  and  C_7
REMARK    7  A    between atoms: C_7  and  C_8
REMARK    8  A    between atoms: C_8  and  C_9
REMARK    9  A    between atoms: C_9  and  C_10
REMARK   10  A    between atoms: C_12  and  C_13
REMARK   11  A    between atoms: C_13  and  O_14
REMARK   12  A    between atoms: C_13  and  C_20
REMARK   13  A    between atoms: O_14  and  C_16
REMARK   14  A    between atoms: C_16  and  C_17
REMARK   15  A    between atoms: C_17  and  C_18
REMARK   16  A    between atoms: C_20  and  O_21
REMARK                            x       y       z     vdW  Elec       q    Type
REMARK                         _______ _______ _______ _____ _____    ______ ____
ROOT
ATOM      1  O   UNL     1      36.261 -22.377 -17.901  0.00  0.00    -0.444 OA
ENDROOT
BRANCH   1   3
ATOM      2  O   UNL     1      36.773 -20.341 -18.861  0.00  0.00    -0.250 OA
ATOM      3  C   UNL     1      36.151 -21.395 -18.841  0.00  0.00    +0.317 C 
BRANCH   3   4
ATOM      4  C   UNL     1      35.137 -21.790 -19.885  0.00  0.00    +0.110 C 
BRANCH   4   5
ATOM      5  C   UNL     1      33.710 -21.430 -19.483  0.00  0.00    +0.012 C 
BRANCH   5   6
ATOM      6  C   UNL     1      33.137 -20.283 -20.322  0.00  0.00    +0.001 C 
BRANCH   6   7
ATOM      7  C   UNL     1      34.174 -19.755 -21.317  0.00  0.00    +0.000 C 
BRANCH   7   8
ATOM      8  C   UNL     1      34.260 -18.226 -21.351  0.00  0.00    +0.000 C 
BRANCH   8   9
ATOM      9  C   UNL     1      35.210 -17.695 -22.427  0.00  0.00    +0.000 C 
BRANCH   9  10
ATOM     10  C   UNL     1      35.342 -18.683 -23.587  0.00  0.00    +0.000 C 
ATOM     11  C   UNL     1      34.544 -18.228 -24.799  0.00  0.00    +0.000 C 
ENDBRANCH   9  10
ENDBRANCH   8   9
ENDBRANCH   7   8
ENDBRANCH   6   7
ENDBRANCH   5   6
ENDBRANCH   4   5
ENDBRANCH   3   4
ENDBRANCH   1   3
BRANCH   1  12
ATOM     12  C   UNL     1      36.865 -21.981 -16.665  0.00  0.00    +0.254 C 
BRANCH  12  13
ATOM     13  C   UNL     1      36.385 -22.890 -15.539  0.00  0.00    +0.241 C 
BRANCH  13  14
ATOM     14  O   UNL     1      35.456 -23.835 -16.077  0.00  0.00    -0.446 OA
BRANCH  14  16
ATOM     15  O   UNL     1      34.131 -24.466 -14.297  0.00  0.00    -0.250 OA
ATOM     16  C   UNL     1      34.276 -23.953 -15.399  0.00  0.00    +0.317 C 
BRANCH  16  17
ATOM     17  C   UNL     1      33.168 -23.347 -16.231  0.00  0.00    +0.110 C 
BRANCH  17  18
ATOM     18  C   UNL     1      31.926 -23.045 -15.396  0.00  0.00    +0.012 C 
ATOM     19  C   UNL     1      30.808 -24.034 -15.683  0.00  0.00    +0.001 C 
ENDBRANCH  17  18
ENDBRANCH  16  17
ENDBRANCH  14  16
ENDBRANCH  13  14
BRANCH  13  20
ATOM     20  C   UNL     1      37.539 -23.667 -14.919  0.00  0.00    +0.185 C 
BRANCH  20  21
ATOM     21  O   UNL     1      38.661 -23.601 -15.792  0.00  0.00    -0.378 OA
ATOM     22  H   UNL     1      38.866 -22.673 -15.987  0.00  0.00    +0.211 HD
ENDBRANCH  20  21
ENDBRANCH  13  20
ENDBRANCH  12  13
ENDBRANCH   1  12
TORSDOF 16
ENDMDL
MODEL 4
REMARK VINA RESULT:      -6.8      2.072      3.234
REMARK  Name = 448271
REMARK  16 active torsions:
REMARK  status: ('A' for Active; 'I' for Inactive)
REMARK    1  A    between atoms: O_1  and  C_3
REMARK    2  A    between atoms: O_1  and  C_12
REMARK    3  A    between atoms: C_3  and  C_4
REMARK    4  A    between atoms: C_4  and  C_5
REMARK    5  A    between atoms: C_5  and  C_6
REMARK    6  A    between atoms: C_6  and  C_7
REMARK    7  A    between atoms: C_7  and  C_8
REMARK    8  A    between atoms: C_8  and  C_9
REMARK    9  A    between atoms: C_9  and  C_10
REMARK   10  A    between atoms: C_12  and  C_13
REMARK   11  A    between atoms: C_13  and  O_14
REMARK   12  A    between atoms: C_13  and  C_20
REMARK   13  A    between atoms: O_14  and  C_16
REMARK   14  A    between atoms: C_16  and  C_17
REMARK   15  A    between atoms: C_17  and  C_18
REMARK   16  A    between atoms: C_20  and  O_21
REMARK                            x       y       z     vdW  Elec       q    Type
REMARK                         _______ _______ _______ _____ _____    ______ ____
ROOT
ATOM      1  O   UNL     1      34.831 -15.854 -23.354  0.00  0.00    -0.444 OA
ENDROOT
BRANCH   1   3
ATOM      2  O   UNL     1      34.610 -17.049 -25.317  0.00  0.00    -0.250 OA
ATOM      3  C   UNL     1      34.956 -16.956 -24.146  0.00  0.00    +0.317 C 
BRANCH   3   4
ATOM      4  C   UNL     1      35.599 -18.080 -23.372  0.00  0.00    +0.110 C 
BRANCH   4   5
ATOM      5  C   UNL     1      34.582 -19.097 -22.861  0.00  0.00    +0.012 C 
BRANCH   5   6
ATOM      6  C   UNL     1      34.121 -18.796 -21.431  0.00  0.00    +0.001 C 
BRANCH   6   7
ATOM      7  C   UNL     1      34.025 -20.078 -20.600  0.00  0.00    +0.000 C 
BRANCH   7   8
ATOM      8  C   UNL     1      35.389 -20.643 -20.194  0.00  0.00    +0.000 C 
BRANCH   8   9
ATOM      9  C   UNL     1      35.294 -21.937 -19.382  0.00  0.00    +0.000 C 
BRANCH   9  10
ATOM     10  C   UNL     1      33.850 -22.436 -19.302  0.00  0.00    +0.000 C 
ATOM     11  C   UNL     1      33.476 -22.832 -17.883  0.00  0.00    +0.000 C 
ENDBRANCH   9  10
ENDBRANCH   8   9
ENDBRANCH   7   8
ENDBRANCH   6   7
ENDBRANCH   5   6
ENDBRANCH   4   5
ENDBRANCH   3   4
ENDBRANCH   1   3
BRANCH   1  12
ATOM     12  C   UNL     1      33.522 -15.276 -23.306  0.00  0.00    +0.254 C 
BRANCH  12  13
ATOM     13  C   UNL     1      33.416 -14.334 -22.111  0.00  0.00    +0.241 C 
BRANCH  13  14
ATOM     14  O   UNL     1      32.146 -13.678 -22.156  0.00  0.00    -0.446 OA
BRANCH  14  16
ATOM     15  O   UNL     1      32.878 -11.755 -23.200  0.00  0.00    -0.250 OA
ATOM     16  C   UNL     1      32.188 -12.329 -22.369  0.00  0.00    +0.317 C 
BRANCH  16  17
ATOM     17  C   UNL     1      31.240 -11.651 -21.404  0.00  0.00    +0.110 C 
BRANCH  17  18
ATOM     18  C   UNL     1      31.751 -11.709 -19.966  0.00  0.00    +0.012 C 
ATOM     19  C   UNL     1      31.097 -10.644 -19.100  0.00  0.00    +0.001 C 
ENDBRANCH  17  18
ENDBRANCH  16  17
ENDBRANCH  14  16
ENDBRANCH  13  14
BRANCH  13  20
ATOM     20  C   UNL     1      33.507 -15.093 -20.794  0.00  0.00    +0.185 C 
BRANCH  20  21
ATOM     21  O   UNL     1      34.877 -15.344 -20.500  0.00  0.00    -0.378 OA
ATOM     22  H   UNL     1      35.348 -14.500 -20.410  0.00  0.00    +0.211 HD
ENDBRANCH  20  21
ENDBRANCH  13  20
ENDBRANCH  12  13
ENDBRANCH   1  12
TORSDOF 16
ENDMDL
MODEL 5
REMARK VINA RESULT:      -6.8      3.098      7.169
REMARK  Name = 448271
REMARK  16 active torsions:
REMARK  status: ('A' for Active; 'I' for Inactive)
REMARK    1  A    between atoms: O_1  and  C_3
REMARK    2  A    between atoms: O_1  and  C_12
REMARK    3  A    between atoms: C_3  and  C_4
REMARK    4  A    between atoms: C_4  and  C_5
REMARK    5  A    between atoms: C_5  and  C_6
REMARK    6  A    between atoms: C_6  and  C_7
REMARK    7  A    between atoms: C_7  and  C_8
REMARK    8  A    between atoms: C_8  and  C_9
REMARK    9  A    between atoms: C_9  and  C_10
REMARK   10  A    between atoms: C_12  and  C_13
REMARK   11  A    between atoms: C_13  and  O_14
REMARK   12  A    between atoms: C_13  and  C_20
REMARK   13  A    between atoms: O_14  and  C_16
REMARK   14  A    between atoms: C_16  and  C_17
REMARK   15  A    between atoms: C_17  and  C_18
REMARK   16  A    between atoms: C_20  and  O_21
REMARK                            x       y       z     vdW  Elec       q    Type
REMARK                         _______ _______ _______ _____ _____    ______ ____
ROOT
ATOM      1  O   UNL     1      33.565 -15.397 -23.600  0.00  0.00    -0.444 OA
ENDROOT
BRANCH   1   3
ATOM      2  O   UNL     1      32.936 -14.326 -25.546  0.00  0.00    -0.250 OA
ATOM      3  C   UNL     1      33.169 -14.326 -24.344  0.00  0.00    +0.317 C 
BRANCH   3   4
ATOM      4  C   UNL     1      33.045 -13.104 -23.468  0.00  0.00    +0.110 C 
BRANCH   4   5
ATOM      5  C   UNL     1      32.334 -13.397 -22.150  0.00  0.00    +0.012 C 
BRANCH   5   6
ATOM      6  C   UNL     1      31.517 -12.202 -21.648  0.00  0.00    +0.001 C 
BRANCH   6   7
ATOM      7  C   UNL     1      31.834 -11.894 -20.182  0.00  0.00    +0.000 C 
BRANCH   7   8
ATOM      8  C   UNL     1      31.024 -10.723 -19.618  0.00  0.00    +0.000 C 
BRANCH   8   9
ATOM      9  C   UNL     1      31.858  -9.462 -19.384  0.00  0.00    +0.000 C 
BRANCH   9  10
ATOM     10  C   UNL     1      32.244  -8.800 -20.708  0.00  0.00    +0.000 C 
ATOM     11  C   UNL     1      32.610  -7.337 -20.513  0.00  0.00    +0.000 C 
ENDBRANCH   9  10
ENDBRANCH   8   9
ENDBRANCH   7   8
ENDBRANCH   6   7
ENDBRANCH   5   6
ENDBRANCH   4   5
ENDBRANCH   3   4
ENDBRANCH   1   3
BRANCH   1  12
ATOM     12  C   UNL     1      34.942 -15.765 -23.736  0.00  0.00    +0.254 C 
BRANCH  12  13
ATOM     13  C   UNL     1      35.085 -17.280 -23.643  0.00  0.00    +0.241 C 
BRANCH  13  14
ATOM     14  O   UNL     1      34.284 -17.750 -22.556  0.00  0.00    -0.446 OA
BRANCH  14  16
ATOM     15  O   UNL     1      35.397 -17.438 -20.560  0.00  0.00    -0.250 OA
ATOM     16  C   UNL     1      34.973 -18.162 -21.451  0.00  0.00    +0.317 C 
BRANCH  16  17
ATOM     17  C   UNL     1      35.134 -19.664 -21.504  0.00  0.00    +0.110 C 
BRANCH  17  18
ATOM     18  C   UNL     1      34.390 -20.360 -20.365  0.00  0.00    +0.012 C 
ATOM     19  C   UNL     1      32.887 -20.165 -20.482  0.00  0.00    +0.001 C 
ENDBRANCH  17  18
ENDBRANCH  16  17
ENDBRANCH  14  16
ENDBRANCH  13  14
BRANCH  13  20
ATOM     20  C   UNL     1      34.601 -17.964 -24.915  0.00  0.00    +0.185 C 
BRANCH  20  21
ATOM     21  O   UNL     1      34.412 -16.980 -25.925  0.00  0.00    -0.378 OA
ATOM     22  H   UNL     1      33.820 -17.329 -26.610  0.00  0.00    +0.211 HD
ENDBRANCH  20  21
ENDBRANCH  13  20
ENDBRANCH  12  13
ENDBRANCH   1  12
TORSDOF 16
ENDMDL
MODEL 6
REMARK VINA RESULT:      -6.8      7.006     11.684
REMARK  Name = 448271
REMARK  16 active torsions:
REMARK  status: ('A' for Active; 'I' for Inactive)
REMARK    1  A    between atoms: O_1  and  C_3
REMARK    2  A    between atoms: O_1  and  C_12
REMARK    3  A    between atoms: C_3  and  C_4
REMARK    4  A    between atoms: C_4  and  C_5
REMARK    5  A    between atoms: C_5  and  C_6
REMARK    6  A    between atoms: C_6  and  C_7
REMARK    7  A    between atoms: C_7  and  C_8
REMARK    8  A    between atoms: C_8  and  C_9
REMARK    9  A    between atoms: C_9  and  C_10
REMARK   10  A    between atoms: C_12  and  C_13
REMARK   11  A    between atoms: C_13  and  O_14
REMARK   12  A    between atoms: C_13  and  C_20
REMARK   13  A    between atoms: O_14  and  C_16
REMARK   14  A    between atoms: C_16  and  C_17
REMARK   15  A    between atoms: C_17  and  C_18
REMARK   16  A    between atoms: C_20  and  O_21
REMARK                            x       y       z     vdW  Elec       q    Type
REMARK                         _______ _______ _______ _____ _____    ______ ____
ROOT
ATOM      1  O   UNL     1      34.547 -23.486 -16.953  0.00  0.00    -0.444 OA
ENDROOT
BRANCH   1   3
ATOM      2  O   UNL     1      32.258 -23.184 -16.996  0.00  0.00    -0.250 OA
ATOM      3  C   UNL     1      33.370 -23.056 -17.491  0.00  0.00    +0.317 C 
BRANCH   3   4
ATOM      4  C   UNL     1      33.624 -22.377 -18.814  0.00  0.00    +0.110 C 
BRANCH   4   5
ATOM      5  C   UNL     1      35.073 -21.926 -18.973  0.00  0.00    +0.012 C 
BRANCH   5   6
ATOM      6  C   UNL     1      35.246 -20.901 -20.100  0.00  0.00    +0.001 C 
BRANCH   6   7
ATOM      7  C   UNL     1      33.927 -20.188 -20.407  0.00  0.00    +0.000 C 
BRANCH   7   8
ATOM      8  C   UNL     1      34.072 -19.049 -21.420  0.00  0.00    +0.000 C 
BRANCH   8   9
ATOM      9  C   UNL     1      35.492 -18.901 -21.970  0.00  0.00    +0.000 C 
BRANCH   9  10
ATOM     10  C   UNL     1      35.483 -18.272 -23.365  0.00  0.00    +0.000 C 
ATOM     11  C   UNL     1      34.674 -19.105 -24.346  0.00  0.00    +0.000 C 
ENDBRANCH   9  10
ENDBRANCH   8   9
ENDBRANCH   7   8
ENDBRANCH   6   7
ENDBRANCH   5   6
ENDBRANCH   4   5
ENDBRANCH   3   4
ENDBRANCH   1   3
BRANCH   1  12
ATOM     12  C   UNL     1      34.719 -23.219 -15.558  0.00  0.00    +0.254 C 
BRANCH  12  13
ATOM     13  C   UNL     1      34.474 -24.491 -14.754  0.00  0.00    +0.241 C 
BRANCH  13  14
ATOM     14  O   UNL     1      35.710 -24.912 -14.172  0.00  0.00    -0.446 OA
BRANCH  14  16
ATOM     15  O   UNL     1      36.223 -26.594 -15.666  0.00  0.00    -0.250 OA
ATOM     16  C   UNL     1      36.539 -25.620 -14.997  0.00  0.00    +0.317 C 
BRANCH  16  17
ATOM     17  C   UNL     1      37.920 -25.006 -14.949  0.00  0.00    +0.110 C 
BRANCH  17  18
ATOM     18  C   UNL     1      38.941 -25.945 -14.310  0.00  0.00    +0.012 C 
ATOM     19  C   UNL     1      40.364 -25.462 -14.542  0.00  0.00    +0.001 C 
ENDBRANCH  17  18
ENDBRANCH  16  17
ENDBRANCH  14  16
ENDBRANCH  13  14
BRANCH  13  20
ATOM     20  C   UNL     1      33.479 -24.254 -13.625  0.00  0.00    +0.185 C 
BRANCH  20  21
ATOM     21  O   UNL     1      34.043 -24.727 -12.406  0.00  0.00    -0.378 OA
ATOM     22  H   UNL     1      34.510 -25.561 -12.568  0.00  0.00    +0.211 HD
ENDBRANCH  20  21
ENDBRANCH  13  20
ENDBRANCH  12  13
ENDBRANCH   1  12
TORSDOF 16
ENDMDL
MODEL 7
REMARK VINA RESULT:      -6.8      1.363      2.173
REMARK  Name = 448271
REMARK  16 active torsions:
REMARK  status: ('A' for Active; 'I' for Inactive)
REMARK    1  A    between atoms: O_1  and  C_3
REMARK    2  A    between atoms: O_1  and  C_12
REMARK    3  A    between atoms: C_3  and  C_4
REMARK    4  A    between atoms: C_4  and  C_5
REMARK    5  A    between atoms: C_5  and  C_6
REMARK    6  A    between atoms: C_6  and  C_7
REMARK    7  A    between atoms: C_7  and  C_8
REMARK    8  A    between atoms: C_8  and  C_9
REMARK    9  A    between atoms: C_9  and  C_10
REMARK   10  A    between atoms: C_12  and  C_13
REMARK   11  A    between atoms: C_13  and  O_14
REMARK   12  A    between atoms: C_13  and  C_20
REMARK   13  A    between atoms: O_14  and  C_16
REMARK   14  A    between atoms: C_16  and  C_17
REMARK   15  A    between atoms: C_17  and  C_18
REMARK   16  A    between atoms: C_20  and  O_21
REMARK                            x       y       z     vdW  Elec       q    Type
REMARK                         _______ _______ _______ _____ _____    ______ ____
ROOT
ATOM      1  O   UNL     1      33.035 -14.605 -24.673  0.00  0.00    -0.444 OA
ENDROOT
BRANCH   1   3
ATOM      2  O   UNL     1      33.572 -15.707 -26.630  0.00  0.00    -0.250 OA
ATOM      3  C   UNL     1      33.656 -15.565 -25.417  0.00  0.00    +0.317 C 
BRANCH   3   4
ATOM      4  C   UNL     1      34.488 -16.453 -24.525  0.00  0.00    +0.110 C 
BRANCH   4   5
ATOM      5  C   UNL     1      34.662 -17.857 -25.096  0.00  0.00    +0.012 C 
BRANCH   5   6
ATOM      6  C   UNL     1      34.554 -18.944 -24.020  0.00  0.00    +0.001 C 
BRANCH   6   7
ATOM      7  C   UNL     1      35.337 -18.556 -22.763  0.00  0.00    +0.000 C 
BRANCH   7   8
ATOM      8  C   UNL     1      35.008 -19.428 -21.548  0.00  0.00    +0.000 C 
BRANCH   8   9
ATOM      9  C   UNL     1      33.508 -19.658 -21.352  0.00  0.00    +0.000 C 
BRANCH   9  10
ATOM     10  C   UNL     1      33.232 -20.459 -20.078  0.00  0.00    +0.000 C 
ATOM     11  C   UNL     1      34.429 -21.310 -19.685  0.00  0.00    +0.000 C 
ENDBRANCH   9  10
ENDBRANCH   8   9
ENDBRANCH   7   8
ENDBRANCH   6   7
ENDBRANCH   5   6
ENDBRANCH   4   5
ENDBRANCH   3   4
ENDBRANCH   1   3
BRANCH   1  12
ATOM     12  C   UNL     1      33.473 -13.264 -24.911  0.00  0.00    +0.254 C 
BRANCH  12  13
ATOM     13  C   UNL     1      33.041 -12.366 -23.757  0.00  0.00    +0.241 C 
BRANCH  13  14
ATOM     14  O   UNL     1      33.478 -12.955 -22.529  0.00  0.00    -0.446 OA
BRANCH  14  16
ATOM     15  O   UNL     1      31.795 -12.463 -21.029  0.00  0.00    -0.250 OA
ATOM     16  C   UNL     1      32.488 -13.266 -21.640  0.00  0.00    +0.317 C 
BRANCH  16  17
ATOM     17  C   UNL     1      32.385 -14.770 -21.527  0.00  0.00    +0.110 C 
BRANCH  17  18
ATOM     18  C   UNL     1      33.159 -15.307 -20.324  0.00  0.00    +0.012 C 
ATOM     19  C   UNL     1      34.590 -15.660 -20.696  0.00  0.00    +0.001 C 
ENDBRANCH  17  18
ENDBRANCH  16  17
ENDBRANCH  14  16
ENDBRANCH  13  14
BRANCH  13  20
ATOM     20  C   UNL     1      33.668 -10.982 -23.863  0.00  0.00    +0.185 C 
BRANCH  20  21
ATOM     21  O   UNL     1      34.821 -11.059 -24.693  0.00  0.00    -0.378 OA
ATOM     22  H   UNL     1      35.507 -10.466 -24.350  0.00  0.00    +0.211 HD
ENDBRANCH  20  21
ENDBRANCH  13  20
ENDBRANCH  12  13
ENDBRANCH   1  12
TORSDOF 16
ENDMDL
MODEL 8
REMARK VINA RESULT:      -6.8      1.570      1.961
REMARK  Name = 448271
REMARK  16 active torsions:
REMARK  status: ('A' for Active; 'I' for Inactive)
REMARK    1  A    between atoms: O_1  and  C_3
REMARK    2  A    between atoms: O_1  and  C_12
REMARK    3  A    between atoms: C_3  and  C_4
REMARK    4  A    between atoms: C_4  and  C_5
REMARK    5  A    between atoms: C_5  and  C_6
REMARK    6  A    between atoms: C_6  and  C_7
REMARK    7  A    between atoms: C_7  and  C_8
REMARK    8  A    between atoms: C_8  and  C_9
REMARK    9  A    between atoms: C_9  and  C_10
REMARK   10  A    between atoms: C_12  and  C_13
REMARK   11  A    between atoms: C_13  and  O_14
REMARK   12  A    between atoms: C_13  and  C_20
REMARK   13  A    between atoms: O_14  and  C_16
REMARK   14  A    between atoms: C_16  and  C_17
REMARK   15  A    between atoms: C_17  and  C_18
REMARK   16  A    between atoms: C_20  and  O_21
REMARK                            x       y       z     vdW  Elec       q    Type
REMARK                         _______ _______ _______ _____ _____    ______ ____
ROOT
ATOM      1  O   UNL     1      34.407 -16.821 -23.591  0.00  0.00    -0.444 OA
ENDROOT
BRANCH   1   3
ATOM      2  O   UNL     1      34.375 -17.982 -25.586  0.00  0.00    -0.250 OA
ATOM      3  C   UNL     1      34.582 -17.918 -24.381  0.00  0.00    +0.317 C 
BRANCH   3   4
ATOM      4  C   UNL     1      35.083 -19.077 -23.555  0.00  0.00    +0.110 C 
BRANCH   4   5
ATOM      5  C   UNL     1      34.711 -18.949 -22.081  0.00  0.00    +0.012 C 
BRANCH   5   6
ATOM      6  C   UNL     1      35.941 -18.811 -21.177  0.00  0.00    +0.001 C 
BRANCH   6   7
ATOM      7  C   UNL     1      36.284 -20.142 -20.504  0.00  0.00    +0.000 C 
BRANCH   7   8
ATOM      8  C   UNL     1      35.053 -20.923 -20.036  0.00  0.00    +0.000 C 
BRANCH   8   9
ATOM      9  C   UNL     1      35.329 -21.836 -18.840  0.00  0.00    +0.000 C 
BRANCH   9  10
ATOM     10  C   UNL     1      36.692 -21.533 -18.215  0.00  0.00    +0.000 C 
ATOM     11  C   UNL     1      36.821 -22.155 -16.834  0.00  0.00    +0.000 C 
ENDBRANCH   9  10
ENDBRANCH   8   9
ENDBRANCH   7   8
ENDBRANCH   6   7
ENDBRANCH   5   6
ENDBRANCH   4   5
ENDBRANCH   3   4
ENDBRANCH   1   3
BRANCH   1  12
ATOM     12  C   UNL     1      34.782 -15.572 -24.180  0.00  0.00    +0.254 C 
BRANCH  12  13
ATOM     13  C   UNL     1      33.570 -14.650 -24.256  0.00  0.00    +0.241 C 
BRANCH  13  14
ATOM     14  O   UNL     1      33.918 -13.387 -23.683  0.00  0.00    -0.446 OA
BRANCH  14  16
ATOM     15  O   UNL     1      32.650 -11.549 -23.102  0.00  0.00    -0.250 OA
ATOM     16  C   UNL     1      32.910 -12.742 -23.023  0.00  0.00    +0.317 C 
BRANCH  16  17
ATOM     17  C   UNL     1      32.164 -13.742 -22.170  0.00  0.00    +0.110 C 
BRANCH  17  18
ATOM     18  C   UNL     1      32.918 -14.072 -20.883  0.00  0.00    +0.012 C 
ATOM     19  C   UNL     1      32.661 -15.503 -20.438  0.00  0.00    +0.001 C 
ENDBRANCH  17  18
ENDBRANCH  16  17
ENDBRANCH  14  16
ENDBRANCH  13  14
BRANCH  13  20
ATOM     20  C   UNL     1      33.140 -14.411 -25.697  0.00  0.00    +0.185 C 
BRANCH  20  21
ATOM     21  O   UNL     1      33.690 -15.436 -26.518  0.00  0.00    -0.378 OA
ATOM     22  H   UNL     1      33.064 -15.654 -27.226  0.00  0.00    +0.211 HD
ENDBRANCH  20  21
ENDBRANCH  13  20
ENDBRANCH  12  13
ENDBRANCH   1  12
TORSDOF 16
ENDMDL
MODEL 9
REMARK VINA RESULT:      -6.7      6.757     11.457
REMARK  Name = 448271
REMARK  16 active torsions:
REMARK  status: ('A' for Active; 'I' for Inactive)
REMARK    1  A    between atoms: O_1  and  C_3
REMARK    2  A    between atoms: O_1  and  C_12
REMARK    3  A    between atoms: C_3  and  C_4
REMARK    4  A    between atoms: C_4  and  C_5
REMARK    5  A    between atoms: C_5  and  C_6
REMARK    6  A    between atoms: C_6  and  C_7
REMARK    7  A    between atoms: C_7  and  C_8
REMARK    8  A    between atoms: C_8  and  C_9
REMARK    9  A    between atoms: C_9  and  C_10
REMARK   10  A    between atoms: C_12  and  C_13
REMARK   11  A    between atoms: C_13  and  O_14
REMARK   12  A    between atoms: C_13  and  C_20
REMARK   13  A    between atoms: O_14  and  C_16
REMARK   14  A    between atoms: C_16  and  C_17
REMARK   15  A    between atoms: C_17  and  C_18
REMARK   16  A    between atoms: C_20  and  O_21
REMARK                            x       y       z     vdW  Elec       q    Type
REMARK                         _______ _______ _______ _____ _____    ______ ____
ROOT
ATOM      1  O   UNL     1      35.523 -22.771 -17.047  0.00  0.00    -0.444 OA
ENDROOT
BRANCH   1   3
ATOM      2  O   UNL     1      37.209 -21.202 -17.215  0.00  0.00    -0.250 OA
ATOM      3  C   UNL     1      36.268 -21.826 -17.688  0.00  0.00    +0.317 C 
BRANCH   3   4
ATOM      4  C   UNL     1      35.771 -21.646 -19.101  0.00  0.00    +0.110 C 
BRANCH   4   5
ATOM      5  C   UNL     1      34.269 -21.882 -19.228  0.00  0.00    +0.012 C 
BRANCH   5   6
ATOM      6  C   UNL     1      33.579 -20.813 -20.083  0.00  0.00    +0.001 C 
BRANCH   6   7
ATOM      7  C   UNL     1      34.605 -19.932 -20.800  0.00  0.00    +0.000 C 
BRANCH   7   8
ATOM      8  C   UNL     1      34.061 -18.552 -21.183  0.00  0.00    +0.000 C 
BRANCH   8   9
ATOM      9  C   UNL     1      35.044 -17.718 -22.007  0.00  0.00    +0.000 C 
BRANCH   9  10
ATOM     10  C   UNL     1      35.645 -18.539 -23.149  0.00  0.00    +0.000 C 
ATOM     11  C   UNL     1      34.671 -18.678 -24.307  0.00  0.00    +0.000 C 
ENDBRANCH   9  10
ENDBRANCH   8   9
ENDBRANCH   7   8
ENDBRANCH   6   7
ENDBRANCH   5   6
ENDBRANCH   4   5
ENDBRANCH   3   4
ENDBRANCH   1   3
BRANCH   1  12
ATOM     12  C   UNL     1      36.061 -23.242 -15.808  0.00  0.00    +0.254 C 
BRANCH  12  13
ATOM     13  C   UNL     1      35.300 -24.481 -15.350  0.00  0.00    +0.241 C 
BRANCH  13  14
ATOM     14  O   UNL     1      36.148 -25.251 -14.495  0.00  0.00    -0.446 OA
BRANCH  14  16
ATOM     15  O   UNL     1      36.323 -26.937 -16.060  0.00  0.00    -0.250 OA
ATOM     16  C   UNL     1      36.734 -26.342 -15.073  0.00  0.00    +0.317 C 
BRANCH  16  17
ATOM     17  C   UNL     1      37.978 -26.702 -14.292  0.00  0.00    +0.110 C 
BRANCH  17  18
ATOM     18  C   UNL     1      38.713 -25.463 -13.784  0.00  0.00    +0.012 C 
ATOM     19  C   UNL     1      40.166 -25.457 -14.230  0.00  0.00    +0.001 C 
ENDBRANCH  17  18
ENDBRANCH  16  17
ENDBRANCH  14  16
ENDBRANCH  13  14
BRANCH  13  20
ATOM     20  C   UNL     1      34.051 -24.108 -14.562  0.00  0.00    +0.185 C 
BRANCH  20  21
ATOM     21  O   UNL     1      33.905 -22.693 -14.571  0.00  0.00    -0.378 OA
ATOM     22  H   UNL     1      33.048 -22.458 -14.961  0.00  0.00    +0.211 HD
ENDBRANCH  20  21
ENDBRANCH  13  20
ENDBRANCH  12  13
ENDBRANCH   1  12
TORSDOF 16
ENDMDL
