MODEL 1
REMARK VINA RESULT:      -7.7      0.000      0.000
REMARK  Name = 4763
REMARK  2 active torsions:
REMARK  status: ('A' for Active; 'I' for Inactive)
REMARK    1  A    between atoms: C_6  and  C_12
REMARK    2  A    between atoms: C_6  and  C_18
REMARK                            x       y       z     vdW  Elec       q    Type
REMARK                         _______ _______ _______ _____ _____    ______ ____
ROOT
ATOM      1  O   UNL     1      36.243 -26.681 -15.122  0.00  0.00    -0.274 OA
ATOM      2  O   UNL     1      37.816 -22.918 -12.603  0.00  0.00    -0.274 OA
ATOM      3  O   UNL     1      40.631 -26.307 -13.860  0.00  0.00    -0.252 OA
ATOM      4  N   UNL     1      38.434 -26.447 -14.508  0.00  0.00    -0.239 N 
ATOM      5  N   UNL     1      39.203 -24.606 -13.279  0.00  0.00    -0.239 N 
ATOM      6  C   UNL     1      36.864 -24.582 -14.085  0.00  0.00    +0.157 C 
ATOM      7  C   UNL     1      37.130 -25.996 -14.609  0.00  0.00    +0.240 C 
ATOM      8  C   UNL     1      37.983 -23.957 -13.246  0.00  0.00    +0.240 C 
ATOM      9  C   UNL     1      39.501 -25.816 -13.887  0.00  0.00    +0.312 C 
ATOM     10  H   UNL     1      38.627 -27.318 -14.926  0.00  0.00    +0.159 HD
ATOM     11  H   UNL     1      39.948 -24.156 -12.818  0.00  0.00    +0.159 HD
ENDROOT
BRANCH   6  12
ATOM     12  C   UNL     1      36.576 -23.681 -15.253  0.00  0.00    -0.006 C 
ATOM     13  C   UNL     1      35.276 -23.568 -15.729  0.00  0.00    -0.003 C 
ATOM     14  C   UNL     1      37.613 -22.968 -15.842  0.00  0.00    -0.003 C 
ATOM     15  C   UNL     1      35.008 -22.731 -16.812  0.00  0.00    -0.000 C 
ATOM     16  C   UNL     1      37.345 -22.131 -16.925  0.00  0.00    -0.000 C 
ATOM     17  C   UNL     1      36.042 -22.013 -17.411  0.00  0.00    -0.000 C 
ENDBRANCH   6  12
BRANCH   6  18
ATOM     18  C   UNL     1      35.615 -24.654 -13.198  0.00  0.00    +0.022 C 
ATOM     19  C   UNL     1      35.966 -25.107 -11.797  0.00  0.00    +0.001 C 
ENDBRANCH   6  18
TORSDOF 2
ENDMDL
MODEL 2
REMARK VINA RESULT:      -7.7      2.059      3.727
REMARK  Name = 4763
REMARK  2 active torsions:
REMARK  status: ('A' for Active; 'I' for Inactive)
REMARK    1  A    between atoms: C_6  and  C_12
REMARK    2  A    between atoms: C_6  and  C_18
REMARK                            x       y       z     vdW  Elec       q    Type
REMARK                         _______ _______ _______ _____ _____    ______ ____
ROOT
ATOM      1  O   UNL     1      36.537 -22.506 -13.095  0.00  0.00    -0.274 OA
ATOM      2  O   UNL     1      36.075 -26.333 -15.944  0.00  0.00    -0.274 OA
ATOM      3  O   UNL     1      37.319 -26.749 -11.555  0.00  0.00    -0.252 OA
ATOM      4  N   UNL     1      36.884 -24.640 -12.347  0.00  0.00    -0.239 N 
ATOM      5  N   UNL     1      36.656 -26.510 -13.740  0.00  0.00    -0.239 N 
ATOM      6  C   UNL     1      35.994 -24.299 -14.630  0.00  0.00    +0.157 C 
ATOM      7  C   UNL     1      36.502 -23.719 -13.308  0.00  0.00    +0.240 C 
ATOM      8  C   UNL     1      36.251 -25.793 -14.850  0.00  0.00    +0.240 C 
ATOM      9  C   UNL     1      36.970 -26.017 -12.483  0.00  0.00    +0.312 C 
ATOM     10  H   UNL     1      37.125 -24.273 -11.465  0.00  0.00    +0.159 HD
ATOM     11  H   UNL     1      36.730 -27.485 -13.855  0.00  0.00    +0.159 HD
ENDROOT
BRANCH   6  12
ATOM     12  C   UNL     1      34.516 -24.043 -14.734  0.00  0.00    -0.006 C 
ATOM     13  C   UNL     1      33.689 -24.359 -13.663  0.00  0.00    -0.003 C 
ATOM     14  C   UNL     1      33.995 -23.493 -15.897  0.00  0.00    -0.003 C 
ATOM     15  C   UNL     1      32.318 -24.121 -13.759  0.00  0.00    -0.000 C 
ATOM     16  C   UNL     1      32.624 -23.255 -15.993  0.00  0.00    -0.000 C 
ATOM     17  C   UNL     1      31.785 -23.569 -14.924  0.00  0.00    -0.000 C 
ENDBRANCH   6  12
BRANCH   6  18
ATOM     18  C   UNL     1      36.706 -23.544 -15.760  0.00  0.00    +0.022 C 
ATOM     19  C   UNL     1      38.209 -23.600 -15.592  0.00  0.00    +0.001 C 
ENDBRANCH   6  18
TORSDOF 2
ENDMDL
MODEL 3
REMARK VINA RESULT:      -7.6      1.596      3.270
REMARK  Name = 4763
REMARK  2 active torsions:
REMARK  status: ('A' for Active; 'I' for Inactive)
REMARK    1  A    between atoms: C_6  and  C_12
REMARK    2  A    between atoms: C_6  and  C_18
REMARK                            x       y       z     vdW  Elec       q    Type
REMARK                         _______ _______ _______ _____ _____    ______ ____
ROOT
ATOM      1  O   UNL     1      37.903 -22.177 -12.871  0.00  0.00    -0.274 OA
ATOM      2  O   UNL     1      36.928 -26.485 -14.732  0.00  0.00    -0.274 OA
ATOM      3  O   UNL     1      35.191 -25.167 -10.703  0.00  0.00    -0.252 OA
ATOM      4  N   UNL     1      36.524 -23.677 -11.831  0.00  0.00    -0.239 N 
ATOM      5  N   UNL     1      36.046 -25.782 -12.743  0.00  0.00    -0.239 N 
ATOM      6  C   UNL     1      37.342 -24.180 -14.112  0.00  0.00    +0.157 C 
ATOM      7  C   UNL     1      37.303 -23.254 -12.894  0.00  0.00    +0.240 C 
ATOM      8  C   UNL     1      36.774 -25.587 -13.902  0.00  0.00    +0.240 C 
ATOM      9  C   UNL     1      35.868 -24.891 -11.696  0.00  0.00    +0.312 C 
ATOM     10  H   UNL     1      36.424 -23.043 -11.085  0.00  0.00    +0.159 HD
ATOM     11  H   UNL     1      35.601 -26.656 -12.651  0.00  0.00    +0.159 HD
ENDROOT
BRANCH   6  12
ATOM     12  C   UNL     1      36.600 -23.524 -15.242  0.00  0.00    -0.006 C 
ATOM     13  C   UNL     1      35.232 -23.725 -15.372  0.00  0.00    -0.003 C 
ATOM     14  C   UNL     1      37.290 -22.722 -16.141  0.00  0.00    -0.003 C 
ATOM     15  C   UNL     1      34.543 -23.115 -16.421  0.00  0.00    -0.000 C 
ATOM     16  C   UNL     1      36.601 -22.112 -17.190  0.00  0.00    -0.000 C 
ATOM     17  C   UNL     1      35.226 -22.309 -17.330  0.00  0.00    -0.000 C 
ENDBRANCH   6  12
BRANCH   6  18
ATOM     18  C   UNL     1      38.814 -24.339 -14.514  0.00  0.00    +0.022 C 
ATOM     19  C   UNL     1      39.550 -25.241 -13.548  0.00  0.00    +0.001 C 
ENDBRANCH   6  18
TORSDOF 2
ENDMDL
MODEL 4
REMARK VINA RESULT:      -7.6      1.953      2.878
REMARK  Name = 4763
REMARK  2 active torsions:
REMARK  status: ('A' for Active; 'I' for Inactive)
REMARK    1  A    between atoms: C_6  and  C_12
REMARK    2  A    between atoms: C_6  and  C_18
REMARK                            x       y       z     vdW  Elec       q    Type
REMARK                         _______ _______ _______ _____ _____    ______ ____
ROOT
ATOM      1  O   UNL     1      35.803 -25.471 -11.633  0.00  0.00    -0.274 OA
ATOM      2  O   UNL     1      37.707 -22.942 -15.233  0.00  0.00    -0.274 OA
ATOM      3  O   UNL     1      38.506 -27.429 -14.771  0.00  0.00    -0.252 OA
ATOM      4  N   UNL     1      37.127 -26.426 -13.236  0.00  0.00    -0.239 N 
ATOM      5  N   UNL     1      38.054 -25.189 -14.997  0.00  0.00    -0.239 N 
ATOM      6  C   UNL     1      36.440 -24.063 -13.499  0.00  0.00    +0.157 C 
ATOM      7  C   UNL     1      36.427 -25.363 -12.691  0.00  0.00    +0.240 C 
ATOM      8  C   UNL     1      37.457 -23.994 -14.641  0.00  0.00    +0.240 C 
ATOM      9  C   UNL     1      37.929 -26.418 -14.367  0.00  0.00    +0.312 C 
ATOM     10  H   UNL     1      37.045 -27.287 -12.766  0.00  0.00    +0.159 HD
ATOM     11  H   UNL     1      38.636 -25.165 -15.791  0.00  0.00    +0.159 HD
ENDROOT
BRANCH   6  12
ATOM     12  C   UNL     1      35.066 -23.831 -14.062  0.00  0.00    -0.006 C 
ATOM     13  C   UNL     1      34.916 -23.561 -15.416  0.00  0.00    -0.003 C 
ATOM     14  C   UNL     1      33.961 -23.892 -13.223  0.00  0.00    -0.003 C 
ATOM     15  C   UNL     1      33.641 -23.346 -15.939  0.00  0.00    -0.000 C 
ATOM     16  C   UNL     1      32.686 -23.677 -13.745  0.00  0.00    -0.000 C 
ATOM     17  C   UNL     1      32.525 -23.404 -15.104  0.00  0.00    -0.000 C 
ENDBRANCH   6  12
BRANCH   6  18
ATOM     18  C   UNL     1      36.772 -22.926 -12.524  0.00  0.00    +0.022 C 
ATOM     19  C   UNL     1      38.082 -23.183 -11.811  0.00  0.00    +0.001 C 
ENDBRANCH   6  18
TORSDOF 2
ENDMDL
MODEL 5
REMARK VINA RESULT:      -7.4     16.755     19.003
REMARK  Name = 4763
REMARK  2 active torsions:
REMARK  status: ('A' for Active; 'I' for Inactive)
REMARK    1  A    between atoms: C_6  and  C_12
REMARK    2  A    between atoms: C_6  and  C_18
REMARK                            x       y       z     vdW  Elec       q    Type
REMARK                         _______ _______ _______ _____ _____    ______ ____
ROOT
ATOM      1  O   UNL     1      31.554  -8.417 -24.093  0.00  0.00    -0.274 OA
ATOM      2  O   UNL     1      33.465  -6.909 -19.963  0.00  0.00    -0.274 OA
ATOM      3  O   UNL     1      29.919  -4.745 -21.895  0.00  0.00    -0.252 OA
ATOM      4  N   UNL     1      30.738  -6.610 -22.953  0.00  0.00    -0.239 N 
ATOM      5  N   UNL     1      31.671  -5.875 -20.933  0.00  0.00    -0.239 N 
ATOM      6  C   UNL     1      32.501  -7.993 -21.904  0.00  0.00    +0.157 C 
ATOM      7  C   UNL     1      31.577  -7.702 -23.089  0.00  0.00    +0.240 C 
ATOM      8  C   UNL     1      32.610  -6.886 -20.852  0.00  0.00    +0.240 C 
ATOM      9  C   UNL     1      30.717  -5.684 -21.921  0.00  0.00    +0.312 C 
ATOM     10  H   UNL     1      30.080  -6.474 -23.672  0.00  0.00    +0.159 HD
ATOM     11  H   UNL     1      31.679  -5.214 -20.203  0.00  0.00    +0.159 HD
ENDROOT
BRANCH   6  12
ATOM     12  C   UNL     1      32.040  -9.255 -21.230  0.00  0.00    -0.006 C 
ATOM     13  C   UNL     1      31.789 -10.388 -21.994  0.00  0.00    -0.003 C 
ATOM     14  C   UNL     1      31.871  -9.275 -19.852  0.00  0.00    -0.003 C 
ATOM     15  C   UNL     1      31.362 -11.560 -21.369  0.00  0.00    -0.000 C 
ATOM     16  C   UNL     1      31.444 -10.446 -19.227  0.00  0.00    -0.000 C 
ATOM     17  C   UNL     1      31.189 -11.590 -19.986  0.00  0.00    -0.000 C 
ENDBRANCH   6  12
BRANCH   6  18
ATOM     18  C   UNL     1      33.908  -8.222 -22.471  0.00  0.00    +0.022 C 
ATOM     19  C   UNL     1      34.266  -7.161 -23.488  0.00  0.00    +0.001 C 
ENDBRANCH   6  18
TORSDOF 2
ENDMDL
MODEL 6
REMARK VINA RESULT:      -7.3      2.306      4.036
REMARK  Name = 4763
REMARK  2 active torsions:
REMARK  status: ('A' for Active; 'I' for Inactive)
REMARK    1  A    between atoms: C_6  and  C_12
REMARK    2  A    between atoms: C_6  and  C_18
REMARK                            x       y       z     vdW  Elec       q    Type
REMARK                         _______ _______ _______ _____ _____    ______ ____
ROOT
ATOM      1  O   UNL     1      35.378 -25.308 -14.485  0.00  0.00    -0.274 OA
ATOM      2  O   UNL     1      38.098 -22.065 -12.235  0.00  0.00    -0.274 OA
ATOM      3  O   UNL     1      35.254 -24.820  -9.931  0.00  0.00    -0.252 OA
ATOM      4  N   UNL     1      35.366 -25.065 -12.210  0.00  0.00    -0.239 N 
ATOM      5  N   UNL     1      36.698 -23.481 -11.111  0.00  0.00    -0.239 N 
ATOM      6  C   UNL     1      37.019 -23.795 -13.544  0.00  0.00    +0.157 C 
ATOM      7  C   UNL     1      35.847 -24.777 -13.476  0.00  0.00    +0.240 C 
ATOM      8  C   UNL     1      37.320 -23.021 -12.257  0.00  0.00    +0.240 C 
ATOM      9  C   UNL     1      35.745 -24.483 -11.011  0.00  0.00    +0.312 C 
ATOM     10  H   UNL     1      34.675 -25.764 -12.156  0.00  0.00    +0.159 HD
ATOM     11  H   UNL     1      36.963 -23.047 -10.268  0.00  0.00    +0.159 HD
ENDROOT
BRANCH   6  12
ATOM     12  C   UNL     1      38.254 -24.544 -13.957  0.00  0.00    -0.006 C 
ATOM     13  C   UNL     1      38.836 -24.281 -15.191  0.00  0.00    -0.003 C 
ATOM     14  C   UNL     1      38.801 -25.491 -13.100  0.00  0.00    -0.003 C 
ATOM     15  C   UNL     1      39.983 -24.977 -15.574  0.00  0.00    -0.000 C 
ATOM     16  C   UNL     1      39.948 -26.186 -13.484  0.00  0.00    -0.000 C 
ATOM     17  C   UNL     1      40.539 -25.929 -14.721  0.00  0.00    -0.000 C 
ENDBRANCH   6  12
BRANCH   6  18
ATOM     18  C   UNL     1      36.683 -22.761 -14.628  0.00  0.00    +0.022 C 
ATOM     19  C   UNL     1      35.188 -22.652 -14.833  0.00  0.00    +0.001 C 
ENDBRANCH   6  18
TORSDOF 2
ENDMDL
MODEL 7
REMARK VINA RESULT:      -7.1      1.831      2.362
REMARK  Name = 4763
REMARK  2 active torsions:
REMARK  status: ('A' for Active; 'I' for Inactive)
REMARK    1  A    between atoms: C_6  and  C_12
REMARK    2  A    between atoms: C_6  and  C_18
REMARK                            x       y       z     vdW  Elec       q    Type
REMARK                         _______ _______ _______ _____ _____    ______ ____
ROOT
ATOM      1  O   UNL     1      34.019 -24.477 -14.556  0.00  0.00    -0.274 OA
ATOM      2  O   UNL     1      38.665 -23.514 -15.237  0.00  0.00    -0.274 OA
ATOM      3  O   UNL     1      37.064 -27.804 -15.361  0.00  0.00    -0.252 OA
ATOM      4  N   UNL     1      35.558 -26.112 -14.996  0.00  0.00    -0.239 N 
ATOM      5  N   UNL     1      37.828 -25.640 -15.332  0.00  0.00    -0.239 N 
ATOM      6  C   UNL     1      36.256 -23.742 -15.125  0.00  0.00    +0.157 C 
ATOM      7  C   UNL     1      35.174 -24.790 -14.852  0.00  0.00    +0.240 C 
ATOM      8  C   UNL     1      37.690 -24.269 -15.223  0.00  0.00    +0.240 C 
ATOM      9  C   UNL     1      36.831 -26.600 -15.245  0.00  0.00    +0.312 C 
ATOM     10  H   UNL     1      34.843 -26.784 -14.911  0.00  0.00    +0.159 HD
ATOM     11  H   UNL     1      38.741 -25.974 -15.490  0.00  0.00    +0.159 HD
ENDROOT
BRANCH   6  12
ATOM     12  C   UNL     1      35.919 -23.020 -16.399  0.00  0.00    -0.006 C 
ATOM     13  C   UNL     1      34.660 -23.178 -16.965  0.00  0.00    -0.003 C 
ATOM     14  C   UNL     1      36.869 -22.201 -16.996  0.00  0.00    -0.003 C 
ATOM     15  C   UNL     1      34.347 -22.508 -18.147  0.00  0.00    -0.000 C 
ATOM     16  C   UNL     1      36.556 -21.531 -18.179  0.00  0.00    -0.000 C 
ATOM     17  C   UNL     1      35.294 -21.684 -18.755  0.00  0.00    -0.000 C 
ENDBRANCH   6  12
BRANCH   6  18
ATOM     18  C   UNL     1      36.218 -22.738 -13.964  0.00  0.00    +0.022 C 
ATOM     19  C   UNL     1      36.533 -23.414 -12.648  0.00  0.00    +0.001 C 
ENDBRANCH   6  18
TORSDOF 2
ENDMDL
MODEL 8
REMARK VINA RESULT:      -7.1     17.671     19.901
REMARK  Name = 4763
REMARK  2 active torsions:
REMARK  status: ('A' for Active; 'I' for Inactive)
REMARK    1  A    between atoms: C_6  and  C_12
REMARK    2  A    between atoms: C_6  and  C_18
REMARK                            x       y       z     vdW  Elec       q    Type
REMARK                         _______ _______ _______ _____ _____    ______ ____
ROOT
ATOM      1  O   UNL     1      30.663  -8.136 -23.322  0.00  0.00    -0.274 OA
ATOM      2  O   UNL     1      35.378  -7.347 -22.976  0.00  0.00    -0.274 OA
ATOM      3  O   UNL     1      33.722 -11.312 -24.564  0.00  0.00    -0.252 OA
ATOM      4  N   UNL     1      32.215  -9.687 -23.968  0.00  0.00    -0.239 N 
ATOM      5  N   UNL     1      34.520  -9.299 -23.801  0.00  0.00    -0.239 N 
ATOM      6  C   UNL     1      32.979  -7.429 -23.306  0.00  0.00    +0.157 C 
ATOM      7  C   UNL     1      31.843  -8.433 -23.514  0.00  0.00    +0.240 C 
ATOM      8  C   UNL     1      34.397  -8.006 -23.328  0.00  0.00    +0.240 C 
ATOM      9  C   UNL     1      33.501 -10.174 -24.146  0.00  0.00    +0.312 C 
ATOM     10  H   UNL     1      31.481 -10.305 -24.189  0.00  0.00    +0.159 HD
ATOM     11  H   UNL     1      35.438  -9.639 -23.905  0.00  0.00    +0.159 HD
ENDROOT
BRANCH   6  12
ATOM     12  C   UNL     1      32.877  -6.360 -24.358  0.00  0.00    -0.006 C 
ATOM     13  C   UNL     1      33.829  -6.298 -25.368  0.00  0.00    -0.003 C 
ATOM     14  C   UNL     1      31.831  -5.447 -24.309  0.00  0.00    -0.003 C 
ATOM     15  C   UNL     1      33.734  -5.306 -26.344  0.00  0.00    -0.000 C 
ATOM     16  C   UNL     1      31.736  -4.456 -25.286  0.00  0.00    -0.000 C 
ATOM     17  C   UNL     1      32.688  -4.385 -26.304  0.00  0.00    -0.000 C 
ENDBRANCH   6  12
BRANCH   6  18
ATOM     18  C   UNL     1      32.770  -6.786 -21.928  0.00  0.00    +0.022 C 
ATOM     19  C   UNL     1      32.818  -7.826 -20.829  0.00  0.00    +0.001 C 
ENDBRANCH   6  18
TORSDOF 2
ENDMDL
MODEL 9
REMARK VINA RESULT:      -7.0      8.443     10.473
REMARK  Name = 4763
REMARK  2 active torsions:
REMARK  status: ('A' for Active; 'I' for Inactive)
REMARK    1  A    between atoms: C_6  and  C_12
REMARK    2  A    between atoms: C_6  and  C_18
REMARK                            x       y       z     vdW  Elec       q    Type
REMARK                         _______ _______ _______ _____ _____    ______ ____
ROOT
ATOM      1  O   UNL     1      35.455 -19.926 -23.813  0.00  0.00    -0.274 OA
ATOM      2  O   UNL     1      35.557 -16.807 -20.174  0.00  0.00    -0.274 OA
ATOM      3  O   UNL     1      33.679 -15.721 -24.209  0.00  0.00    -0.252 OA
ATOM      4  N   UNL     1      34.545 -17.832 -23.967  0.00  0.00    -0.239 N 
ATOM      5  N   UNL     1      34.593 -16.310 -22.187  0.00  0.00    -0.239 N 
ATOM      6  C   UNL     1      35.386 -18.616 -21.776  0.00  0.00    +0.157 C 
ATOM      7  C   UNL     1      35.152 -18.862 -23.269  0.00  0.00    +0.240 C 
ATOM      8  C   UNL     1      35.206 -17.172 -21.298  0.00  0.00    +0.240 C 
ATOM      9  C   UNL     1      34.228 -16.567 -23.500  0.00  0.00    +0.312 C 
ATOM     10  H   UNL     1      34.310 -18.022 -24.904  0.00  0.00    +0.159 HD
ATOM     11  H   UNL     1      34.390 -15.408 -21.848  0.00  0.00    +0.159 HD
ENDROOT
BRANCH   6  12
ATOM     12  C   UNL     1      34.463 -19.504 -20.990  0.00  0.00    -0.006 C 
ATOM     13  C   UNL     1      34.984 -20.571 -20.270  0.00  0.00    -0.003 C 
ATOM     14  C   UNL     1      33.098 -19.246 -20.991  0.00  0.00    -0.003 C 
ATOM     15  C   UNL     1      34.127 -21.394 -19.540  0.00  0.00    -0.000 C 
ATOM     16  C   UNL     1      32.241 -20.069 -20.261  0.00  0.00    -0.000 C 
ATOM     17  C   UNL     1      32.755 -21.144 -19.535  0.00  0.00    -0.000 C 
ENDBRANCH   6  12
BRANCH   6  18
ATOM     18  C   UNL     1      36.835 -19.019 -21.471  0.00  0.00    +0.022 C 
ATOM     19  C   UNL     1      37.807 -18.285 -22.370  0.00  0.00    +0.001 C 
ENDBRANCH   6  18
TORSDOF 2
ENDMDL
