MODEL 1
REMARK VINA RESULT:      -9.8      0.000      0.000
REMARK  Name = 10288191
REMARK  7 active torsions:
REMARK  status: ('A' for Active; 'I' for Inactive)
REMARK    1  A    between atoms: C_6  and  N_21
REMARK    2  A    between atoms: C_7  and  C_14
REMARK    3  A    between atoms: N_13  and  O_16
REMARK    4  A    between atoms: O_16  and  C_17
REMARK    5  A    between atoms: C_17  and  C_18
REMARK    6  A    between atoms: C_18  and  O_19
REMARK    7  A    between atoms: N_21  and  C_25
REMARK                            x       y       z     vdW  Elec       q    Type
REMARK                         _______ _______ _______ _____ _____    ______ ____
ROOT
ATOM      1  F   UNL     1      34.138 -23.600 -13.280  0.00  0.00    -0.202 F 
ATOM      2  N   UNL     1      29.892 -24.256 -14.816  0.00  0.00    -0.285 N 
ATOM      3  N   UNL     1      31.253 -24.284 -13.059  0.00  0.00    -0.245 NA
ATOM      4  C   UNL     1      31.123 -23.891 -15.301  0.00  0.00    +0.066 C 
ATOM      5  C   UNL     1      31.955 -23.915 -14.184  0.00  0.00    +0.119 C 
ATOM      6  C   UNL     1      33.779 -23.243 -15.610  0.00  0.00    +0.067 C 
ATOM      7  C   UNL     1      32.920 -23.227 -16.710  0.00  0.00    +0.140 C 
ATOM      8  C   UNL     1      31.566 -23.553 -16.579  0.00  0.00    +0.005 C 
ATOM      9  C   UNL     1      33.312 -23.586 -14.335  0.00  0.00    +0.168 C 
ATOM     10  C   UNL     1      30.022 -24.479 -13.474  0.00  0.00    +0.220 C 
ATOM     11  C   UNL     1      28.671 -24.385 -15.577  0.00  0.00    +0.114 C 
ENDROOT
BRANCH   7  14
ATOM     12  O   UNL     1      34.533 -23.239 -18.418  0.00  0.00    -0.272 OA
ATOM     13  N   UNL     1      32.573 -22.092 -18.825  0.00  0.00    -0.193 N 
ATOM     14  C   UNL     1      33.410 -22.869 -18.038  0.00  0.00    +0.254 C 
ATOM     15  H   UNL     1      31.690 -21.793 -18.509  0.00  0.00    +0.183 HD
BRANCH  13  16
ATOM     16  O   UNL     1      33.063 -21.758 -20.102  0.00  0.00    -0.264 OA
BRANCH  16  17
ATOM     17  C   UNL     1      33.042 -20.343 -20.234  0.00  0.00    +0.203 C 
BRANCH  17  18
ATOM     18  C   UNL     1      34.439 -19.857 -20.574  0.00  0.00    +0.172 C 
BRANCH  18  19
ATOM     19  O   UNL     1      35.384 -20.581 -19.797  0.00  0.00    -0.379 OA
ATOM     20  H   UNL     1      36.278 -20.264 -19.997  0.00  0.00    +0.211 HD
ENDBRANCH  18  19
ENDBRANCH  17  18
ENDBRANCH  16  17
ENDBRANCH  13  16
ENDBRANCH   7  14
BRANCH   6  21
ATOM     21  N   UNL     1      35.147 -22.909 -15.764  0.00  0.00    -0.312 N 
ATOM     22  H   UNL     1      35.296 -22.009 -16.134  0.00  0.00    +0.152 HD
BRANCH  21  25
ATOM     23 BR   UNL     1      40.277 -25.971 -14.583  0.00  0.00    -0.049 Br
ATOM     24  F   UNL     1      37.647 -21.745 -16.138  0.00  0.00    -0.203 F 
ATOM     25  C   UNL     1      36.331 -23.613 -15.493  0.00  0.00    +0.076 C 
ATOM     26  C   UNL     1      37.574 -23.006 -15.688  0.00  0.00    +0.154 C 
ATOM     27  C   UNL     1      36.272 -24.929 -15.023  0.00  0.00    +0.017 C 
ATOM     28  C   UNL     1      38.748 -23.707 -15.417  0.00  0.00    +0.038 C 
ATOM     29  C   UNL     1      37.446 -25.630 -14.752  0.00  0.00    +0.008 C 
ATOM     30  C   UNL     1      38.685 -25.019 -14.948  0.00  0.00    +0.037 C 
ENDBRANCH  21  25
ENDBRANCH   6  21
TORSDOF 7
ENDMDL
MODEL 2
REMARK VINA RESULT:      -9.7      3.381      6.106
REMARK  Name = 10288191
REMARK  7 active torsions:
REMARK  status: ('A' for Active; 'I' for Inactive)
REMARK    1  A    between atoms: C_6  and  N_21
REMARK    2  A    between atoms: C_7  and  C_14
REMARK    3  A    between atoms: N_13  and  O_16
REMARK    4  A    between atoms: O_16  and  C_17
REMARK    5  A    between atoms: C_17  and  C_18
REMARK    6  A    between atoms: C_18  and  O_19
REMARK    7  A    between atoms: N_21  and  C_25
REMARK                            x       y       z     vdW  Elec       q    Type
REMARK                         _______ _______ _______ _____ _____    ______ ____
ROOT
ATOM      1  F   UNL     1      36.859 -22.380 -17.637  0.00  0.00    -0.202 F 
ATOM      2  N   UNL     1      35.858 -23.471 -13.322  0.00  0.00    -0.285 N 
ATOM      3  N   UNL     1      37.450 -22.931 -14.776  0.00  0.00    -0.245 NA
ATOM      4  C   UNL     1      35.214 -23.296 -14.521  0.00  0.00    +0.066 C 
ATOM      5  C   UNL     1      36.229 -22.958 -15.412  0.00  0.00    +0.119 C 
ATOM      6  C   UNL     1      34.564 -22.806 -17.149  0.00  0.00    +0.067 C 
ATOM      7  C   UNL     1      33.568 -23.147 -16.232  0.00  0.00    +0.140 C 
ATOM      8  C   UNL     1      33.873 -23.401 -14.890  0.00  0.00    +0.005 C 
ATOM      9  C   UNL     1      35.905 -22.708 -16.755  0.00  0.00    +0.168 C 
ATOM     10  C   UNL     1      37.189 -23.242 -13.526  0.00  0.00    +0.220 C 
ATOM     11  C   UNL     1      35.250 -23.834 -12.063  0.00  0.00    +0.114 C 
ENDROOT
BRANCH   7  14
ATOM     12  O   UNL     1      31.760 -22.625 -17.636  0.00  0.00    -0.272 OA
ATOM     13  N   UNL     1      31.348 -24.052 -15.871  0.00  0.00    -0.193 N 
ATOM     14  C   UNL     1      32.173 -23.249 -16.645  0.00  0.00    +0.254 C 
ATOM     15  H   UNL     1      31.682 -24.533 -15.079  0.00  0.00    +0.183 HD
BRANCH  13  16
ATOM     16  O   UNL     1      30.005 -24.138 -16.287  0.00  0.00    -0.264 OA
BRANCH  16  17
ATOM     17  C   UNL     1      29.181 -23.635 -15.244  0.00  0.00    +0.203 C 
BRANCH  17  18
ATOM     18  C   UNL     1      28.318 -22.514 -15.794  0.00  0.00    +0.172 C 
BRANCH  18  19
ATOM     19  O   UNL     1      28.876 -22.057 -17.019  0.00  0.00    -0.379 OA
ATOM     20  H   UNL     1      29.844 -22.079 -16.961  0.00  0.00    +0.211 HD
ENDBRANCH  18  19
ENDBRANCH  17  18
ENDBRANCH  16  17
ENDBRANCH  13  16
ENDBRANCH   7  14
BRANCH   6  21
ATOM     21  N   UNL     1      34.235 -22.552 -18.502  0.00  0.00    -0.312 N 
ATOM     22  H   UNL     1      33.630 -23.222 -18.896  0.00  0.00    +0.152 HD
BRANCH  21  25
ATOM     23 BR   UNL     1      35.849 -18.127 -22.363  0.00  0.00    -0.049 Br
ATOM     24  F   UNL     1      32.369 -20.737 -19.487  0.00  0.00    -0.203 F 
ATOM     25  C   UNL     1      34.605 -21.532 -19.393  0.00  0.00    +0.076 C 
ATOM     26  C   UNL     1      33.649 -20.632 -19.873  0.00  0.00    +0.154 C 
ATOM     27  C   UNL     1      35.935 -21.408 -19.805  0.00  0.00    +0.017 C 
ATOM     28  C   UNL     1      34.019 -19.619 -20.756  0.00  0.00    +0.038 C 
ATOM     29  C   UNL     1      36.305 -20.395 -20.688  0.00  0.00    +0.008 C 
ATOM     30  C   UNL     1      35.347 -19.499 -21.163  0.00  0.00    +0.037 C 
ENDBRANCH  21  25
ENDBRANCH   6  21
TORSDOF 7
ENDMDL
MODEL 3
REMARK VINA RESULT:      -9.4      3.292      5.711
REMARK  Name = 10288191
REMARK  7 active torsions:
REMARK  status: ('A' for Active; 'I' for Inactive)
REMARK    1  A    between atoms: C_6  and  N_21
REMARK    2  A    between atoms: C_7  and  C_14
REMARK    3  A    between atoms: N_13  and  O_16
REMARK    4  A    between atoms: O_16  and  C_17
REMARK    5  A    between atoms: C_17  and  C_18
REMARK    6  A    between atoms: C_18  and  O_19
REMARK    7  A    between atoms: N_21  and  C_25
REMARK                            x       y       z     vdW  Elec       q    Type
REMARK                         _______ _______ _______ _____ _____    ______ ____
ROOT
ATOM      1  F   UNL     1      32.132 -22.446 -18.837  0.00  0.00    -0.202 F 
ATOM      2  N   UNL     1      30.995 -23.383 -14.519  0.00  0.00    -0.285 N 
ATOM      3  N   UNL     1      30.270 -22.889 -16.561  0.00  0.00    -0.245 NA
ATOM      4  C   UNL     1      32.125 -23.253 -15.286  0.00  0.00    +0.066 C 
ATOM      5  C   UNL     1      31.645 -22.945 -16.557  0.00  0.00    +0.119 C 
ATOM      6  C   UNL     1      33.929 -22.860 -17.326  0.00  0.00    +0.067 C 
ATOM      7  C   UNL     1      34.379 -23.170 -16.042  0.00  0.00    +0.140 C 
ATOM      8  C   UNL     1      33.482 -23.374 -14.988  0.00  0.00    +0.005 C 
ATOM      9  C   UNL     1      32.561 -22.743 -17.603  0.00  0.00    +0.168 C 
ATOM     10  C   UNL     1      29.915 -23.157 -15.324  0.00  0.00    +0.220 C 
ATOM     11  C   UNL     1      30.943 -23.700 -13.111  0.00  0.00    +0.114 C 
ENDROOT
BRANCH   7  14
ATOM     12  O   UNL     1      36.576 -22.342 -15.976  0.00  0.00    -0.272 OA
ATOM     13  N   UNL     1      36.242 -24.507 -15.254  0.00  0.00    -0.193 N 
ATOM     14  C   UNL     1      35.805 -23.290 -15.756  0.00  0.00    +0.254 C 
ATOM     15  H   UNL     1      35.625 -25.257 -15.095  0.00  0.00    +0.183 HD
BRANCH  13  16
ATOM     16  O   UNL     1      37.621 -24.603 -14.985  0.00  0.00    -0.264 OA
BRANCH  16  17
ATOM     17  C   UNL     1      37.935 -25.968 -14.741  0.00  0.00    +0.203 C 
BRANCH  17  18
ATOM     18  C   UNL     1      36.724 -26.821 -15.069  0.00  0.00    +0.172 C 
BRANCH  18  19
ATOM     19  O   UNL     1      36.849 -27.310 -16.398  0.00  0.00    -0.379 OA
ATOM     20  H   UNL     1      36.417 -28.176 -16.466  0.00  0.00    +0.211 HD
ENDBRANCH  18  19
ENDBRANCH  17  18
ENDBRANCH  16  17
ENDBRANCH  13  16
ENDBRANCH   7  14
BRANCH   6  21
ATOM     21  N   UNL     1      34.853 -22.657 -18.380  0.00  0.00    -0.312 N 
ATOM     22  H   UNL     1      35.462 -23.418 -18.525  0.00  0.00    +0.152 HD
BRANCH  21  25
ATOM     23 BR   UNL     1      35.791 -17.993 -22.183  0.00  0.00    -0.049 Br
ATOM     24  F   UNL     1      37.417 -21.708 -18.903  0.00  0.00    -0.203 F 
ATOM     25  C   UNL     1      35.072 -21.582 -19.256  0.00  0.00    +0.076 C 
ATOM     26  C   UNL     1      36.369 -21.124 -19.503  0.00  0.00    +0.154 C 
ATOM     27  C   UNL     1      33.990 -20.962 -19.889  0.00  0.00    +0.017 C 
ATOM     28  C   UNL     1      36.583 -20.057 -20.374  0.00  0.00    +0.038 C 
ATOM     29  C   UNL     1      34.205 -19.895 -20.760  0.00  0.00    +0.008 C 
ATOM     30  C   UNL     1      35.502 -19.442 -21.003  0.00  0.00    +0.037 C 
ENDBRANCH  21  25
ENDBRANCH   6  21
TORSDOF 7
ENDMDL
MODEL 4
REMARK VINA RESULT:      -8.9      9.729     13.171
REMARK  Name = 10288191
REMARK  7 active torsions:
REMARK  status: ('A' for Active; 'I' for Inactive)
REMARK    1  A    between atoms: C_6  and  N_21
REMARK    2  A    between atoms: C_7  and  C_14
REMARK    3  A    between atoms: N_13  and  O_16
REMARK    4  A    between atoms: O_16  and  C_17
REMARK    5  A    between atoms: C_17  and  C_18
REMARK    6  A    between atoms: C_18  and  O_19
REMARK    7  A    between atoms: N_21  and  C_25
REMARK                            x       y       z     vdW  Elec       q    Type
REMARK                         _______ _______ _______ _____ _____    ______ ____
ROOT
ATOM      1  F   UNL     1      32.167 -14.715 -20.161  0.00  0.00    -0.202 F 
ATOM      2  N   UNL     1      35.270 -17.312 -22.269  0.00  0.00    -0.285 N 
ATOM      3  N   UNL     1      34.110 -16.952 -20.408  0.00  0.00    -0.245 NA
ATOM      4  C   UNL     1      34.493 -16.212 -22.529  0.00  0.00    +0.066 C 
ATOM      5  C   UNL     1      33.778 -16.008 -21.352  0.00  0.00    +0.119 C 
ATOM      6  C   UNL     1      32.719 -14.113 -22.401  0.00  0.00    +0.067 C 
ATOM      7  C   UNL     1      33.450 -14.343 -23.568  0.00  0.00    +0.140 C 
ATOM      8  C   UNL     1      34.358 -15.404 -23.658  0.00  0.00    +0.005 C 
ATOM      9  C   UNL     1      32.870 -14.938 -21.280  0.00  0.00    +0.168 C 
ATOM     10  C   UNL     1      35.006 -17.717 -20.991  0.00  0.00    +0.220 C 
ATOM     11  C   UNL     1      36.205 -17.940 -23.174  0.00  0.00    +0.114 C 
ENDROOT
BRANCH   7  14
ATOM     12  O   UNL     1      32.440 -13.743 -25.602  0.00  0.00    -0.272 OA
ATOM     13  N   UNL     1      34.137 -12.387 -24.825  0.00  0.00    -0.193 N 
ATOM     14  C   UNL     1      33.290 -13.482 -24.735  0.00  0.00    +0.254 C 
ATOM     15  H   UNL     1      34.816 -12.195 -24.139  0.00  0.00    +0.183 HD
BRANCH  13  16
ATOM     16  O   UNL     1      33.966 -11.568 -25.958  0.00  0.00    -0.264 OA
BRANCH  16  17
ATOM     17  C   UNL     1      35.156 -10.813 -26.148  0.00  0.00    +0.203 C 
BRANCH  17  18
ATOM     18  C   UNL     1      35.147  -9.629 -25.201  0.00  0.00    +0.172 C 
BRANCH  18  19
ATOM     19  O   UNL     1      35.485 -10.077 -23.895  0.00  0.00    -0.379 OA
ATOM     20  H   UNL     1      35.148  -9.447 -23.239  0.00  0.00    +0.211 HD
ENDBRANCH  18  19
ENDBRANCH  17  18
ENDBRANCH  16  17
ENDBRANCH  13  16
ENDBRANCH   7  14
BRANCH   6  21
ATOM     21  N   UNL     1      31.804 -13.034 -22.330  0.00  0.00    -0.312 N 
ATOM     22  H   UNL     1      30.903 -13.256 -22.661  0.00  0.00    +0.152 HD
BRANCH  21  25
ATOM     23 BR   UNL     1      32.366  -7.286 -20.397  0.00  0.00    -0.049 Br
ATOM     24  F   UNL     1      31.503 -12.374 -19.643  0.00  0.00    -0.203 F 
ATOM     25  C   UNL     1      31.932 -11.710 -21.882  0.00  0.00    +0.076 C 
ATOM     26  C   UNL     1      31.778 -11.404 -20.528  0.00  0.00    +0.154 C 
ATOM     27  C   UNL     1      32.218 -10.687 -22.792  0.00  0.00    +0.017 C 
ATOM     28  C   UNL     1      31.907 -10.088 -20.085  0.00  0.00    +0.038 C 
ATOM     29  C   UNL     1      32.347  -9.371 -22.349  0.00  0.00    +0.008 C 
ATOM     30  C   UNL     1      32.193  -9.071 -20.996  0.00  0.00    +0.037 C 
ENDBRANCH  21  25
ENDBRANCH   6  21
TORSDOF 7
ENDMDL
MODEL 5
REMARK VINA RESULT:      -8.8      4.381      7.686
REMARK  Name = 10288191
REMARK  7 active torsions:
REMARK  status: ('A' for Active; 'I' for Inactive)
REMARK    1  A    between atoms: C_6  and  N_21
REMARK    2  A    between atoms: C_7  and  C_14
REMARK    3  A    between atoms: N_13  and  O_16
REMARK    4  A    between atoms: O_16  and  C_17
REMARK    5  A    between atoms: C_17  and  C_18
REMARK    6  A    between atoms: C_18  and  O_19
REMARK    7  A    between atoms: N_21  and  C_25
REMARK                            x       y       z     vdW  Elec       q    Type
REMARK                         _______ _______ _______ _____ _____    ______ ____
ROOT
ATOM      1  F   UNL     1      32.423 -23.271 -17.967  0.00  0.00    -0.202 F 
ATOM      2  N   UNL     1      36.737 -22.131 -17.016  0.00  0.00    -0.285 N 
ATOM      3  N   UNL     1      35.130 -22.189 -18.551  0.00  0.00    -0.245 NA
ATOM      4  C   UNL     1      35.652 -22.688 -16.388  0.00  0.00    +0.066 C 
ATOM      5  C   UNL     1      34.662 -22.712 -17.367  0.00  0.00    +0.119 C 
ATOM      6  C   UNL     1      33.179 -23.711 -15.749  0.00  0.00    +0.067 C 
ATOM      7  C   UNL     1      34.192 -23.673 -14.789  0.00  0.00    +0.140 C 
ATOM      8  C   UNL     1      35.457 -23.158 -15.090  0.00  0.00    +0.005 C 
ATOM      9  C   UNL     1      33.397 -23.234 -17.048  0.00  0.00    +0.168 C 
ATOM     10  C   UNL     1      36.376 -21.851 -18.304  0.00  0.00    +0.220 C 
ATOM     11  C   UNL     1      38.034 -21.881 -16.433  0.00  0.00    +0.114 C 
ENDROOT
BRANCH   7  14
ATOM     12  O   UNL     1      32.812 -24.223 -12.970  0.00  0.00    -0.272 OA
ATOM     13  N   UNL     1      35.080 -24.556 -12.713  0.00  0.00    -0.193 N 
ATOM     14  C   UNL     1      33.961 -24.171 -13.437  0.00  0.00    +0.254 C 
ATOM     15  H   UNL     1      35.989 -24.498 -13.088  0.00  0.00    +0.183 HD
BRANCH  13  16
ATOM     16  O   UNL     1      34.837 -25.034 -11.411  0.00  0.00    -0.264 OA
BRANCH  16  17
ATOM     17  C   UNL     1      35.651 -24.302 -10.505  0.00  0.00    +0.203 C 
BRANCH  17  18
ATOM     18  C   UNL     1      36.784 -23.650 -11.276  0.00  0.00    +0.172 C 
BRANCH  18  19
ATOM     19  O   UNL     1      37.870 -24.563 -11.366  0.00  0.00    -0.379 OA
ATOM     20  H   UNL     1      38.480 -24.274 -12.062  0.00  0.00    +0.211 HD
ENDBRANCH  18  19
ENDBRANCH  17  18
ENDBRANCH  16  17
ENDBRANCH  13  16
ENDBRANCH   7  14
BRANCH   6  21
ATOM     21  N   UNL     1      31.904 -24.236 -15.425  0.00  0.00    -0.312 N 
ATOM     22  H   UNL     1      31.935 -25.135 -15.025  0.00  0.00    +0.152 HD
BRANCH  21  25
ATOM     23 BR   UNL     1      26.264 -22.021 -16.041  0.00  0.00    -0.049 Br
ATOM     24  F   UNL     1      31.133 -21.869 -14.179  0.00  0.00    -0.203 F 
ATOM     25  C   UNL     1      30.604 -23.723 -15.565  0.00  0.00    +0.076 C 
ATOM     26  C   UNL     1      30.242 -22.532 -14.930  0.00  0.00    +0.154 C 
ATOM     27  C   UNL     1      29.663 -24.403 -16.344  0.00  0.00    +0.017 C 
ATOM     28  C   UNL     1      28.951 -22.025 -15.072  0.00  0.00    +0.038 C 
ATOM     29  C   UNL     1      28.372 -23.896 -16.486  0.00  0.00    +0.008 C 
ATOM     30  C   UNL     1      28.016 -22.706 -15.850  0.00  0.00    +0.037 C 
ENDBRANCH  21  25
ENDBRANCH   6  21
TORSDOF 7
ENDMDL
MODEL 6
REMARK VINA RESULT:      -8.2     10.672     13.862
REMARK  Name = 10288191
REMARK  7 active torsions:
REMARK  status: ('A' for Active; 'I' for Inactive)
REMARK    1  A    between atoms: C_6  and  N_21
REMARK    2  A    between atoms: C_7  and  C_14
REMARK    3  A    between atoms: N_13  and  O_16
REMARK    4  A    between atoms: O_16  and  C_17
REMARK    5  A    between atoms: C_17  and  C_18
REMARK    6  A    between atoms: C_18  and  O_19
REMARK    7  A    between atoms: N_21  and  C_25
REMARK                            x       y       z     vdW  Elec       q    Type
REMARK                         _______ _______ _______ _____ _____    ______ ____
ROOT
ATOM      1  F   UNL     1      33.122 -13.624 -25.740  0.00  0.00    -0.202 F 
ATOM      2  N   UNL     1      34.643 -17.536 -23.951  0.00  0.00    -0.285 N 
ATOM      3  N   UNL     1      34.341 -16.336 -25.797  0.00  0.00    -0.245 NA
ATOM      4  C   UNL     1      34.065 -16.364 -23.534  0.00  0.00    +0.066 C 
ATOM      5  C   UNL     1      33.888 -15.631 -24.705  0.00  0.00    +0.119 C 
ATOM      6  C   UNL     1      32.926 -13.864 -23.376  0.00  0.00    +0.067 C 
ATOM      7  C   UNL     1      33.118 -14.622 -22.220  0.00  0.00    +0.140 C 
ATOM      8  C   UNL     1      33.694 -15.896 -22.274  0.00  0.00    +0.005 C 
ATOM      9  C   UNL     1      33.306 -14.354 -24.631  0.00  0.00    +0.168 C 
ATOM     10  C   UNL     1      34.787 -17.471 -25.308  0.00  0.00    +0.220 C 
ATOM     11  C   UNL     1      35.033 -18.648 -23.116  0.00  0.00    +0.114 C 
ENDROOT
BRANCH   7  14
ATOM     12  O   UNL     1      32.725 -14.848 -19.915  0.00  0.00    -0.272 OA
ATOM     13  N   UNL     1      32.329 -12.779 -20.855  0.00  0.00    -0.193 N 
ATOM     14  C   UNL     1      32.721 -14.109 -20.913  0.00  0.00    +0.254 C 
ATOM     15  H   UNL     1      32.317 -12.205 -21.655  0.00  0.00    +0.183 HD
BRANCH  13  16
ATOM     16  O   UNL     1      31.950 -12.303 -19.586  0.00  0.00    -0.264 OA
BRANCH  16  17
ATOM     17  C   UNL     1      31.201 -11.107 -19.761  0.00  0.00    +0.203 C 
BRANCH  17  18
ATOM     18  C   UNL     1      31.759 -10.035 -18.843  0.00  0.00    +0.172 C 
BRANCH  18  19
ATOM     19  O   UNL     1      32.622  -9.188 -19.590  0.00  0.00    -0.379 OA
ATOM     20  H   UNL     1      33.147  -9.722 -20.205  0.00  0.00    +0.211 HD
ENDBRANCH  18  19
ENDBRANCH  17  18
ENDBRANCH  16  17
ENDBRANCH  13  16
ENDBRANCH   7  14
BRANCH   6  21
ATOM     21  N   UNL     1      32.341 -12.577 -23.300  0.00  0.00    -0.312 N 
ATOM     22  H   UNL     1      31.389 -12.588 -23.049  0.00  0.00    +0.152 HD
BRANCH  21  25
ATOM     23 BR   UNL     1      34.580  -6.989 -24.228  0.00  0.00    -0.049 Br
ATOM     24  F   UNL     1      30.873 -10.302 -22.654  0.00  0.00    -0.203 F 
ATOM     25  C   UNL     1      32.855 -11.287 -23.513  0.00  0.00    +0.076 C 
ATOM     26  C   UNL     1      32.098 -10.161 -23.180  0.00  0.00    +0.154 C 
ATOM     27  C   UNL     1      34.131 -11.123 -24.061  0.00  0.00    +0.017 C 
ATOM     28  C   UNL     1      32.611  -8.882 -23.392  0.00  0.00    +0.038 C 
ATOM     29  C   UNL     1      34.644  -9.844 -24.273  0.00  0.00    +0.008 C 
ATOM     30  C   UNL     1      33.884  -8.723 -23.938  0.00  0.00    +0.037 C 
ENDBRANCH  21  25
ENDBRANCH   6  21
TORSDOF 7
ENDMDL
MODEL 7
REMARK VINA RESULT:      -8.2      7.564     10.540
REMARK  Name = 10288191
REMARK  7 active torsions:
REMARK  status: ('A' for Active; 'I' for Inactive)
REMARK    1  A    between atoms: C_6  and  N_21
REMARK    2  A    between atoms: C_7  and  C_14
REMARK    3  A    between atoms: N_13  and  O_16
REMARK    4  A    between atoms: O_16  and  C_17
REMARK    5  A    between atoms: C_17  and  C_18
REMARK    6  A    between atoms: C_18  and  O_19
REMARK    7  A    between atoms: N_21  and  C_25
REMARK                            x       y       z     vdW  Elec       q    Type
REMARK                         _______ _______ _______ _____ _____    ______ ____
ROOT
ATOM      1  F   UNL     1      33.889 -15.665 -19.714  0.00  0.00    -0.202 F 
ATOM      2  N   UNL     1      31.672 -12.034 -21.363  0.00  0.00    -0.285 N 
ATOM      3  N   UNL     1      32.333 -13.136 -19.549  0.00  0.00    -0.245 NA
ATOM      4  C   UNL     1      32.351 -13.131 -21.829  0.00  0.00    +0.066 C 
ATOM      5  C   UNL     1      32.754 -13.803 -20.678  0.00  0.00    +0.119 C 
ATOM      6  C   UNL     1      33.787 -15.464 -22.087  0.00  0.00    +0.067 C 
ATOM      7  C   UNL     1      33.370 -14.767 -23.223  0.00  0.00    +0.140 C 
ATOM      8  C   UNL     1      32.638 -13.579 -23.118  0.00  0.00    +0.005 C 
ATOM      9  C   UNL     1      33.487 -14.995 -20.803  0.00  0.00    +0.168 C 
ATOM     10  C   UNL     1      31.689 -12.082 -19.997  0.00  0.00    +0.220 C 
ATOM     11  C   UNL     1      31.046 -11.005 -22.160  0.00  0.00    +0.114 C 
ENDROOT
BRANCH   7  14
ATOM     12  O   UNL     1      34.552 -16.130 -24.726  0.00  0.00    -0.272 OA
ATOM     13  N   UNL     1      32.983 -14.693 -25.616  0.00  0.00    -0.193 N 
ATOM     14  C   UNL     1      33.684 -15.258 -24.561  0.00  0.00    +0.254 C 
ATOM     15  H   UNL     1      32.305 -13.993 -25.476  0.00  0.00    +0.183 HD
BRANCH  13  16
ATOM     16  O   UNL     1      33.300 -15.181 -26.898  0.00  0.00    -0.264 OA
BRANCH  16  17
ATOM     17  C   UNL     1      33.740 -14.090 -27.696  0.00  0.00    +0.203 C 
BRANCH  17  18
ATOM     18  C   UNL     1      33.014 -12.832 -27.258  0.00  0.00    +0.172 C 
BRANCH  18  19
ATOM     19  O   UNL     1      33.862 -12.082 -26.399  0.00  0.00    -0.379 OA
ATOM     20  H   UNL     1      33.987 -12.563 -25.566  0.00  0.00    +0.211 HD
ENDBRANCH  18  19
ENDBRANCH  17  18
ENDBRANCH  16  17
ENDBRANCH  13  16
ENDBRANCH   7  14
BRANCH   6  21
ATOM     21  N   UNL     1      34.527 -16.664 -22.215  0.00  0.00    -0.312 N 
ATOM     22  H   UNL     1      35.256 -16.612 -22.875  0.00  0.00    +0.152 HD
BRANCH  21  25
ATOM     23 BR   UNL     1      34.062 -22.085 -19.478  0.00  0.00    -0.049 Br
ATOM     24  F   UNL     1      36.773 -18.226 -21.705  0.00  0.00    -0.203 F 
ATOM     25  C   UNL     1      34.422 -17.914 -21.585  0.00  0.00    +0.076 C 
ATOM     26  C   UNL     1      35.566 -18.680 -21.339  0.00  0.00    +0.154 C 
ATOM     27  C   UNL     1      33.170 -18.401 -21.197  0.00  0.00    +0.017 C 
ATOM     28  C   UNL     1      35.459 -19.920 -20.712  0.00  0.00    +0.038 C 
ATOM     29  C   UNL     1      33.064 -19.642 -20.570  0.00  0.00    +0.008 C 
ATOM     30  C   UNL     1      34.208 -20.402 -20.326  0.00  0.00    +0.037 C 
ENDBRANCH  21  25
ENDBRANCH   6  21
TORSDOF 7
ENDMDL
MODEL 8
REMARK VINA RESULT:      -8.1      3.651      5.963
REMARK  Name = 10288191
REMARK  7 active torsions:
REMARK  status: ('A' for Active; 'I' for Inactive)
REMARK    1  A    between atoms: C_6  and  N_21
REMARK    2  A    between atoms: C_7  and  C_14
REMARK    3  A    between atoms: N_13  and  O_16
REMARK    4  A    between atoms: O_16  and  C_17
REMARK    5  A    between atoms: C_17  and  C_18
REMARK    6  A    between atoms: C_18  and  O_19
REMARK    7  A    between atoms: N_21  and  C_25
REMARK                            x       y       z     vdW  Elec       q    Type
REMARK                         _______ _______ _______ _____ _____    ______ ____
ROOT
ATOM      1  F   UNL     1      36.936 -23.436 -16.200  0.00  0.00    -0.202 F 
ATOM      2  N   UNL     1      36.430 -23.735 -11.675  0.00  0.00    -0.285 N 
ATOM      3  N   UNL     1      37.849 -23.509 -13.371  0.00  0.00    -0.245 NA
ATOM      4  C   UNL     1      35.653 -23.745 -12.806  0.00  0.00    +0.066 C 
ATOM      5  C   UNL     1      36.563 -23.601 -13.851  0.00  0.00    +0.119 C 
ATOM      6  C   UNL     1      34.708 -23.689 -15.390  0.00  0.00    +0.067 C 
ATOM      7  C   UNL     1      33.821 -23.831 -14.321  0.00  0.00    +0.140 C 
ATOM      8  C   UNL     1      34.277 -23.863 -12.998  0.00  0.00    +0.005 C 
ATOM      9  C   UNL     1      36.087 -23.573 -15.173  0.00  0.00    +0.168 C 
ATOM     10  C   UNL     1      37.732 -23.592 -12.065  0.00  0.00    +0.220 C 
ATOM     11  C   UNL     1      35.968 -23.855 -10.312  0.00  0.00    +0.114 C 
ENDROOT
BRANCH   7  14
ATOM     12  O   UNL     1      31.864 -25.067 -14.718  0.00  0.00    -0.272 OA
ATOM     13  N   UNL     1      31.656 -22.774 -14.587  0.00  0.00    -0.193 N 
ATOM     14  C   UNL     1      32.385 -23.953 -14.550  0.00  0.00    +0.254 C 
ATOM     15  H   UNL     1      32.080 -21.894 -14.466  0.00  0.00    +0.183 HD
BRANCH  13  16
ATOM     16  O   UNL     1      30.272 -22.912 -14.809  0.00  0.00    -0.264 OA
BRANCH  16  17
ATOM     17  C   UNL     1      30.010 -22.650 -16.182  0.00  0.00    +0.203 C 
BRANCH  17  18
ATOM     18  C   UNL     1      28.526 -22.829 -16.444  0.00  0.00    +0.172 C 
BRANCH  18  19
ATOM     19  O   UNL     1      27.800 -21.888 -15.664  0.00  0.00    -0.379 OA
ATOM     20  H   UNL     1      27.696 -21.064 -16.166  0.00  0.00    +0.211 HD
ENDBRANCH  18  19
ENDBRANCH  17  18
ENDBRANCH  16  17
ENDBRANCH  13  16
ENDBRANCH   7  14
BRANCH   6  21
ATOM     21  N   UNL     1      34.227 -23.659 -16.721  0.00  0.00    -0.312 N 
ATOM     22  H   UNL     1      33.690 -24.448 -16.966  0.00  0.00    +0.152 HD
BRANCH  21  25
ATOM     23 BR   UNL     1      34.845 -19.602 -21.221  0.00  0.00    -0.049 Br
ATOM     24  F   UNL     1      32.015 -22.657 -18.081  0.00  0.00    -0.203 F 
ATOM     25  C   UNL     1      34.367 -22.724 -17.759  0.00  0.00    +0.076 C 
ATOM     26  C   UNL     1      33.240 -22.235 -18.426  0.00  0.00    +0.154 C 
ATOM     27  C   UNL     1      35.637 -22.275 -18.131  0.00  0.00    +0.017 C 
ATOM     28  C   UNL     1      33.382 -21.306 -19.456  0.00  0.00    +0.038 C 
ATOM     29  C   UNL     1      35.779 -21.346 -19.161  0.00  0.00    +0.008 C 
ATOM     30  C   UNL     1      34.651 -20.860 -19.823  0.00  0.00    +0.037 C 
ENDBRANCH  21  25
ENDBRANCH   6  21
TORSDOF 7
ENDMDL
MODEL 9
REMARK VINA RESULT:      -8.0     10.286     13.437
REMARK  Name = 10288191
REMARK  7 active torsions:
REMARK  status: ('A' for Active; 'I' for Inactive)
REMARK    1  A    between atoms: C_6  and  N_21
REMARK    2  A    between atoms: C_7  and  C_14
REMARK    3  A    between atoms: N_13  and  O_16
REMARK    4  A    between atoms: O_16  and  C_17
REMARK    5  A    between atoms: C_17  and  C_18
REMARK    6  A    between atoms: C_18  and  O_19
REMARK    7  A    between atoms: N_21  and  C_25
REMARK                            x       y       z     vdW  Elec       q    Type
REMARK                         _______ _______ _______ _____ _____    ______ ____
ROOT
ATOM      1  F   UNL     1      31.355 -12.458 -20.831  0.00  0.00    -0.202 F 
ATOM      2  N   UNL     1      32.516  -8.102 -21.533  0.00  0.00    -0.285 N 
ATOM      3  N   UNL     1      31.502  -9.557 -20.194  0.00  0.00    -0.245 NA
ATOM      4  C   UNL     1      32.651  -9.321 -22.149  0.00  0.00    +0.066 C 
ATOM      5  C   UNL     1      32.010 -10.212 -21.292  0.00  0.00    +0.119 C 
ATOM      6  C   UNL     1      32.569 -11.986 -22.828  0.00  0.00    +0.067 C 
ATOM      7  C   UNL     1      33.205 -11.067 -23.665  0.00  0.00    +0.140 C 
ATOM      8  C   UNL     1      33.260  -9.707 -23.342  0.00  0.00    +0.005 C 
ATOM      9  C   UNL     1      31.964 -11.575 -21.634  0.00  0.00    +0.168 C 
ATOM     10  C   UNL     1      31.823  -8.295 -20.371  0.00  0.00    +0.220 C 
ATOM     11  C   UNL     1      33.011  -6.834 -22.016  0.00  0.00    +0.114 C 
ENDROOT
BRANCH   7  14
ATOM     12  O   UNL     1      34.970 -11.099 -25.215  0.00  0.00    -0.272 OA
ATOM     13  N   UNL     1      33.098 -12.348 -25.721  0.00  0.00    -0.193 N 
ATOM     14  C   UNL     1      33.834 -11.498 -24.909  0.00  0.00    +0.254 C 
ATOM     15  H   UNL     1      32.193 -12.649 -25.476  0.00  0.00    +0.183 HD
BRANCH  13  16
ATOM     16  O   UNL     1      33.723 -12.753 -26.917  0.00  0.00    -0.264 OA
BRANCH  16  17
ATOM     17  C   UNL     1      32.965 -13.817 -27.480  0.00  0.00    +0.203 C 
BRANCH  17  18
ATOM     18  C   UNL     1      32.698 -14.856 -26.407  0.00  0.00    +0.172 C 
BRANCH  18  19
ATOM     19  O   UNL     1      33.708 -15.855 -26.468  0.00  0.00    -0.379 OA
ATOM     20  H   UNL     1      33.446 -16.613 -25.923  0.00  0.00    +0.211 HD
ENDBRANCH  18  19
ENDBRANCH  17  18
ENDBRANCH  16  17
ENDBRANCH  13  16
ENDBRANCH   7  14
BRANCH   6  21
ATOM     21  N   UNL     1      32.525 -13.358 -23.173  0.00  0.00    -0.312 N 
ATOM     22  H   UNL     1      31.839 -13.576 -23.845  0.00  0.00    +0.152 HD
BRANCH  21  25
ATOM     23 BR   UNL     1      35.755 -18.174 -21.311  0.00  0.00    -0.049 Br
ATOM     24  F   UNL     1      31.739 -14.864 -20.968  0.00  0.00    -0.203 F 
ATOM     25  C   UNL     1      33.268 -14.469 -22.741  0.00  0.00    +0.076 C 
ATOM     26  C   UNL     1      32.852 -15.209 -21.632  0.00  0.00    +0.154 C 
ATOM     27  C   UNL     1      34.431 -14.841 -23.422  0.00  0.00    +0.017 C 
ATOM     28  C   UNL     1      33.592 -16.312 -21.206  0.00  0.00    +0.038 C 
ATOM     29  C   UNL     1      35.170 -15.944 -22.996  0.00  0.00    +0.008 C 
ATOM     30  C   UNL     1      34.750 -16.681 -21.888  0.00  0.00    +0.037 C 
ENDBRANCH  21  25
ENDBRANCH   6  21
TORSDOF 7
ENDMDL
