MODEL 1
REMARK VINA RESULT:      -9.9      0.000      0.000
REMARK  Name = 621174
REMARK  7 active torsions:
REMARK  status: ('A' for Active; 'I' for Inactive)
REMARK    1  A    between atoms: N_1  and  C_20
REMARK    2  A    between atoms: C_2  and  N_9
REMARK    3  A    between atoms: N_9  and  C_11
REMARK    4  A    between atoms: C_10  and  C_17
REMARK    5  A    between atoms: C_17  and  C_18
REMARK    6  A    between atoms: C_20  and  C_21
REMARK    7  A    between atoms: C_21  and  C_22
REMARK                            x       y       z     vdW  Elec       q    Type
REMARK                         _______ _______ _______ _____ _____    ______ ____
ROOT
ATOM      1  N   UNL     1      34.918 -20.847 -19.449  0.00  0.00    +0.387 N 
ATOM      2  C   UNL     1      34.628 -19.231 -21.872  0.00  0.00    +0.076 C 
ATOM      3  C   UNL     1      35.935 -19.289 -21.081  0.00  0.00    -0.003 C 
ATOM      4  C   UNL     1      33.445 -19.557 -20.961  0.00  0.00    -0.003 C 
ATOM      5  C   UNL     1      36.072 -20.615 -20.330  0.00  0.00    -0.076 C 
ATOM      6  C   UNL     1      33.664 -20.874 -20.215  0.00  0.00    -0.076 C 
ATOM      7  H   UNL     1      34.866 -20.073 -18.788  0.00  0.00    -0.080 HD
ENDROOT
BRANCH   2   9
ATOM      8  O   UNL     1      35.114 -18.552 -24.694  0.00  0.00    -0.275 OA
ATOM      9  N   UNL     1      34.463 -17.943 -22.498  0.00  0.00    -0.260 N 
ATOM     10  C   UNL     1      34.725 -17.710 -23.882  0.00  0.00    +0.229 C 
BRANCH   9  11
ATOM     11  C   UNL     1      34.005 -16.824 -21.678  0.00  0.00    +0.054 C 
ATOM     12  C   UNL     1      34.951 -15.977 -21.181  0.00  0.00    +0.015 C 
ATOM     13  C   UNL     1      32.664 -16.703 -21.467  0.00  0.00    +0.015 C 
ATOM     14  C   UNL     1      34.515 -14.909 -20.398  0.00  0.00    +0.001 C 
ATOM     15  C   UNL     1      32.228 -15.634 -20.684  0.00  0.00    +0.001 C 
ATOM     16  C   UNL     1      33.154 -14.737 -20.149  0.00  0.00    +0.000 C 
ENDBRANCH   9  11
BRANCH  10  17
ATOM     17  C   UNL     1      34.534 -16.266 -24.339  0.00  0.00    +0.086 C 
BRANCH  17  18
ATOM     18  C   UNL     1      33.701 -16.156 -25.617  0.00  0.00    +0.010 C 
ATOM     19  C   UNL     1      33.170 -14.745 -25.817  0.00  0.00    +0.001 C 
ENDBRANCH  17  18
ENDBRANCH  10  17
ENDBRANCH   2   9
BRANCH   1  20
ATOM     20  C   UNL     1      35.089 -22.093 -18.702  0.00  0.00    -0.073 C 
BRANCH  20  21
ATOM     21  C   UNL     1      33.777 -22.876 -18.639  0.00  0.00    +0.004 C 
BRANCH  21  22
ATOM     22  C   UNL     1      33.309 -23.057 -17.217  0.00  0.00    -0.024 C 
ATOM     23  C   UNL     1      34.244 -23.268 -16.214  0.00  0.00    -0.004 C 
ATOM     24  C   UNL     1      31.952 -23.011 -16.935  0.00  0.00    -0.004 C 
ATOM     25  C   UNL     1      33.812 -23.435 -14.898  0.00  0.00    -0.000 C 
ATOM     26  C   UNL     1      31.520 -23.177 -15.618  0.00  0.00    -0.000 C 
ATOM     27  C   UNL     1      32.451 -23.389 -14.601  0.00  0.00    -0.000 C 
ENDBRANCH  21  22
ENDBRANCH  20  21
ENDBRANCH   1  20
TORSDOF 7
ENDMDL
MODEL 2
REMARK VINA RESULT:      -9.8      2.849      5.508
REMARK  Name = 621174
REMARK  7 active torsions:
REMARK  status: ('A' for Active; 'I' for Inactive)
REMARK    1  A    between atoms: N_1  and  C_20
REMARK    2  A    between atoms: C_2  and  N_9
REMARK    3  A    between atoms: N_9  and  C_11
REMARK    4  A    between atoms: C_10  and  C_17
REMARK    5  A    between atoms: C_17  and  C_18
REMARK    6  A    between atoms: C_20  and  C_21
REMARK    7  A    between atoms: C_21  and  C_22
REMARK                            x       y       z     vdW  Elec       q    Type
REMARK                         _______ _______ _______ _____ _____    ______ ____
ROOT
ATOM      1  N   UNL     1      35.438 -17.000 -21.982  0.00  0.00    +0.387 N 
ATOM      2  C   UNL     1      33.322 -15.039 -22.472  0.00  0.00    +0.076 C 
ATOM      3  C   UNL     1      34.116 -15.685 -23.608  0.00  0.00    -0.003 C 
ATOM      4  C   UNL     1      34.142 -15.051 -21.182  0.00  0.00    -0.003 C 
ATOM      5  C   UNL     1      34.632 -17.068 -23.208  0.00  0.00    -0.076 C 
ATOM      6  C   UNL     1      34.656 -16.455 -20.863  0.00  0.00    -0.076 C 
ATOM      7  H   UNL     1      36.220 -16.370 -22.154  0.00  0.00    -0.080 HD
ENDROOT
BRANCH   2   9
ATOM      8  O   UNL     1      31.923 -13.098 -20.758  0.00  0.00    -0.275 OA
ATOM      9  N   UNL     1      32.922 -13.699 -22.822  0.00  0.00    -0.260 N 
ATOM     10  C   UNL     1      32.245 -12.827 -21.917  0.00  0.00    +0.229 C 
BRANCH   9  11
ATOM     11  C   UNL     1      33.225 -13.210 -24.165  0.00  0.00    +0.054 C 
ATOM     12  C   UNL     1      32.745 -13.926 -25.221  0.00  0.00    +0.015 C 
ATOM     13  C   UNL     1      33.967 -12.071 -24.270  0.00  0.00    +0.015 C 
ATOM     14  C   UNL     1      33.034 -13.460 -26.503  0.00  0.00    +0.001 C 
ATOM     15  C   UNL     1      34.255 -11.605 -25.553  0.00  0.00    +0.001 C 
ATOM     16  C   UNL     1      33.789 -12.300 -26.670  0.00  0.00    +0.000 C 
ENDBRANCH   9  11
BRANCH  10  17
ATOM     17  C   UNL     1      31.866 -11.465 -22.497  0.00  0.00    +0.086 C 
BRANCH  17  18
ATOM     18  C   UNL     1      31.504 -10.444 -21.418  0.00  0.00    +0.010 C 
ATOM     19  C   UNL     1      32.216  -9.120 -21.641  0.00  0.00    +0.001 C 
ENDBRANCH  17  18
ENDBRANCH  10  17
ENDBRANCH   2   9
BRANCH   1  20
ATOM     20  C   UNL     1      35.964 -18.322 -21.642  0.00  0.00    -0.073 C 
BRANCH  20  21
ATOM     21  C   UNL     1      34.902 -19.403 -21.846  0.00  0.00    +0.004 C 
BRANCH  21  22
ATOM     22  C   UNL     1      34.863 -20.366 -20.687  0.00  0.00    -0.024 C 
ATOM     23  C   UNL     1      33.638 -20.822 -20.222  0.00  0.00    -0.004 C 
ATOM     24  C   UNL     1      36.051 -20.779 -20.104  0.00  0.00    -0.004 C 
ATOM     25  C   UNL     1      33.601 -21.713 -19.149  0.00  0.00    -0.000 C 
ATOM     26  C   UNL     1      36.015 -21.671 -19.031  0.00  0.00    -0.000 C 
ATOM     27  C   UNL     1      34.789 -22.137 -18.555  0.00  0.00    -0.000 C 
ENDBRANCH  21  22
ENDBRANCH  20  21
ENDBRANCH   1  20
TORSDOF 7
ENDMDL
MODEL 3
REMARK VINA RESULT:      -9.7      3.574      6.068
REMARK  Name = 621174
REMARK  7 active torsions:
REMARK  status: ('A' for Active; 'I' for Inactive)
REMARK    1  A    between atoms: N_1  and  C_20
REMARK    2  A    between atoms: C_2  and  N_9
REMARK    3  A    between atoms: N_9  and  C_11
REMARK    4  A    between atoms: C_10  and  C_17
REMARK    5  A    between atoms: C_17  and  C_18
REMARK    6  A    between atoms: C_20  and  C_21
REMARK    7  A    between atoms: C_21  and  C_22
REMARK                            x       y       z     vdW  Elec       q    Type
REMARK                         _______ _______ _______ _____ _____    ______ ____
ROOT
ATOM      1  N   UNL     1      34.942 -16.156 -21.853  0.00  0.00    +0.387 N 
ATOM      2  C   UNL     1      33.122 -14.027 -22.702  0.00  0.00    +0.076 C 
ATOM      3  C   UNL     1      34.229 -14.565 -23.609  0.00  0.00    -0.003 C 
ATOM      4  C   UNL     1      33.486 -14.254 -21.235  0.00  0.00    -0.003 C 
ATOM      5  C   UNL     1      34.570 -16.017 -23.268  0.00  0.00    -0.076 C 
ATOM      6  C   UNL     1      33.851 -15.716 -20.973  0.00  0.00    -0.076 C 
ATOM      7  H   UNL     1      35.747 -15.556 -21.679  0.00  0.00    -0.080 HD
ENDROOT
BRANCH   2   9
ATOM      8  O   UNL     1      31.282 -12.244 -21.255  0.00  0.00    -0.275 OA
ATOM      9  N   UNL     1      32.875 -12.631 -22.967  0.00  0.00    -0.260 N 
ATOM     10  C   UNL     1      31.959 -11.845 -22.205  0.00  0.00    +0.229 C 
BRANCH   9  11
ATOM     11  C   UNL     1      33.596 -11.993 -24.064  0.00  0.00    +0.054 C 
ATOM     12  C   UNL     1      33.410 -12.494 -25.319  0.00  0.00    +0.015 C 
ATOM     13  C   UNL     1      34.405 -10.939 -23.760  0.00  0.00    +0.015 C 
ATOM     14  C   UNL     1      34.098 -11.884 -26.367  0.00  0.00    +0.001 C 
ATOM     15  C   UNL     1      35.092 -10.329 -24.810  0.00  0.00    +0.001 C 
ATOM     16  C   UNL     1      34.939 -10.802 -26.113  0.00  0.00    +0.000 C 
ENDBRANCH   9  11
BRANCH  10  17
ATOM     17  C   UNL     1      31.804 -10.400 -22.676  0.00  0.00    +0.086 C 
BRANCH  17  18
ATOM     18  C   UNL     1      31.910  -9.392 -21.531  0.00  0.00    +0.010 C 
ATOM     19  C   UNL     1      32.617  -8.120 -21.972  0.00  0.00    +0.001 C 
ENDBRANCH  17  18
ENDBRANCH  10  17
ENDBRANCH   2   9
BRANCH   1  20
ATOM     20  C   UNL     1      35.313 -17.540 -21.556  0.00  0.00    -0.073 C 
BRANCH  20  21
ATOM     21  C   UNL     1      34.089 -18.455 -21.598  0.00  0.00    +0.004 C 
BRANCH  21  22
ATOM     22  C   UNL     1      34.301 -19.699 -20.773  0.00  0.00    -0.024 C 
ATOM     23  C   UNL     1      35.592 -20.144 -20.531  0.00  0.00    -0.004 C 
ATOM     24  C   UNL     1      33.201 -20.379 -20.271  0.00  0.00    -0.004 C 
ATOM     25  C   UNL     1      35.789 -21.295 -19.768  0.00  0.00    -0.000 C 
ATOM     26  C   UNL     1      33.398 -21.530 -19.507  0.00  0.00    -0.000 C 
ATOM     27  C   UNL     1      34.692 -21.987 -19.256  0.00  0.00    -0.000 C 
ENDBRANCH  21  22
ENDBRANCH  20  21
ENDBRANCH   1  20
TORSDOF 7
ENDMDL
MODEL 4
REMARK VINA RESULT:      -9.5      1.408      2.324
REMARK  Name = 621174
REMARK  7 active torsions:
REMARK  status: ('A' for Active; 'I' for Inactive)
REMARK    1  A    between atoms: N_1  and  C_20
REMARK    2  A    between atoms: C_2  and  N_9
REMARK    3  A    between atoms: N_9  and  C_11
REMARK    4  A    between atoms: C_10  and  C_17
REMARK    5  A    between atoms: C_17  and  C_18
REMARK    6  A    between atoms: C_20  and  C_21
REMARK    7  A    between atoms: C_21  and  C_22
REMARK                            x       y       z     vdW  Elec       q    Type
REMARK                         _______ _______ _______ _____ _____    ______ ____
ROOT
ATOM      1  N   UNL     1      35.597 -20.530 -19.584  0.00  0.00    +0.387 N 
ATOM      2  C   UNL     1      34.946 -18.964 -21.970  0.00  0.00    +0.076 C 
ATOM      3  C   UNL     1      36.280 -18.820 -21.237  0.00  0.00    -0.003 C 
ATOM      4  C   UNL     1      33.871 -19.479 -21.012  0.00  0.00    -0.003 C 
ATOM      5  C   UNL     1      36.658 -20.113 -20.512  0.00  0.00    -0.076 C 
ATOM      6  C   UNL     1      34.329 -20.749 -20.294  0.00  0.00    -0.076 C 
ATOM      7  H   UNL     1      35.454 -19.778 -18.911  0.00  0.00    -0.080 HD
ENDROOT
BRANCH   2   9
ATOM      8  O   UNL     1      35.090 -18.239 -24.818  0.00  0.00    -0.275 OA
ATOM      9  N   UNL     1      34.552 -17.714 -22.570  0.00  0.00    -0.260 N 
ATOM     10  C   UNL     1      34.659 -17.454 -23.970  0.00  0.00    +0.229 C 
BRANCH   9  11
ATOM     11  C   UNL     1      34.017 -16.665 -21.706  0.00  0.00    +0.054 C 
ATOM     12  C   UNL     1      32.684 -16.700 -21.421  0.00  0.00    +0.015 C 
ATOM     13  C   UNL     1      34.887 -15.723 -21.243  0.00  0.00    +0.015 C 
ATOM     14  C   UNL     1      32.173 -15.699 -20.596  0.00  0.00    +0.001 C 
ATOM     15  C   UNL     1      34.375 -14.722 -20.417  0.00  0.00    +0.001 C 
ATOM     16  C   UNL     1      33.018 -14.710 -20.094  0.00  0.00    +0.000 C 
ENDBRANCH   9  11
BRANCH  10  17
ATOM     17  C   UNL     1      34.233 -16.052 -24.399  0.00  0.00    +0.086 C 
BRANCH  17  18
ATOM     18  C   UNL     1      33.586 -16.030 -25.784  0.00  0.00    +0.010 C 
ATOM     19  C   UNL     1      32.918 -14.693 -26.066  0.00  0.00    +0.001 C 
ENDBRANCH  17  18
ENDBRANCH  10  17
ENDBRANCH   2   9
BRANCH   1  20
ATOM     20  C   UNL     1      35.995 -21.738 -18.863  0.00  0.00    -0.073 C 
BRANCH  20  21
ATOM     21  C   UNL     1      36.791 -21.388 -17.605  0.00  0.00    +0.004 C 
BRANCH  21  22
ATOM     22  C   UNL     1      36.587 -22.412 -16.518  0.00  0.00    -0.024 C 
ATOM     23  C   UNL     1      35.304 -22.856 -16.233  0.00  0.00    -0.004 C 
ATOM     24  C   UNL     1      37.685 -22.892 -15.820  0.00  0.00    -0.004 C 
ATOM     25  C   UNL     1      35.115 -23.804 -15.227  0.00  0.00    -0.000 C 
ATOM     26  C   UNL     1      37.496 -23.841 -14.814  0.00  0.00    -0.000 C 
ATOM     27  C   UNL     1      36.210 -24.296 -14.519  0.00  0.00    -0.000 C 
ENDBRANCH  21  22
ENDBRANCH  20  21
ENDBRANCH   1  20
TORSDOF 7
ENDMDL
MODEL 5
REMARK VINA RESULT:      -9.5      0.877      1.708
REMARK  Name = 621174
REMARK  7 active torsions:
REMARK  status: ('A' for Active; 'I' for Inactive)
REMARK    1  A    between atoms: N_1  and  C_20
REMARK    2  A    between atoms: C_2  and  N_9
REMARK    3  A    between atoms: N_9  and  C_11
REMARK    4  A    between atoms: C_10  and  C_17
REMARK    5  A    between atoms: C_17  and  C_18
REMARK    6  A    between atoms: C_20  and  C_21
REMARK    7  A    between atoms: C_21  and  C_22
REMARK                            x       y       z     vdW  Elec       q    Type
REMARK                         _______ _______ _______ _____ _____    ______ ____
ROOT
ATOM      1  N   UNL     1      34.030 -22.055 -19.879  0.00  0.00    +0.387 N 
ATOM      2  C   UNL     1      34.221 -19.230 -20.618  0.00  0.00    +0.076 C 
ATOM      3  C   UNL     1      32.949 -20.048 -20.841  0.00  0.00    -0.003 C 
ATOM      4  C   UNL     1      35.442 -20.150 -20.586  0.00  0.00    -0.003 C 
ATOM      5  C   UNL     1      32.841 -21.192 -19.832  0.00  0.00    -0.076 C 
ATOM      6  C   UNL     1      35.251 -21.291 -19.586  0.00  0.00    -0.076 C 
ATOM      7  H   UNL     1      34.112 -22.426 -20.825  0.00  0.00    -0.080 HD
ENDROOT
BRANCH   2   9
ATOM      8  O   UNL     1      35.215 -19.586 -23.365  0.00  0.00    -0.275 OA
ATOM      9  N   UNL     1      34.363 -18.214 -21.631  0.00  0.00    -0.260 N 
ATOM     10  C   UNL     1      34.857 -18.485 -22.942  0.00  0.00    +0.229 C 
BRANCH   9  11
ATOM     11  C   UNL     1      33.983 -16.843 -21.299  0.00  0.00    +0.054 C 
ATOM     12  C   UNL     1      32.661 -16.518 -21.376  0.00  0.00    +0.015 C 
ATOM     13  C   UNL     1      34.975 -15.983 -20.935  0.00  0.00    +0.015 C 
ATOM     14  C   UNL     1      32.298 -15.210 -21.059  0.00  0.00    +0.001 C 
ATOM     15  C   UNL     1      34.611 -14.674 -20.618  0.00  0.00    +0.001 C 
ATOM     16  C   UNL     1      33.272 -14.287 -20.680  0.00  0.00    +0.000 C 
ENDBRANCH   9  11
BRANCH  10  17
ATOM     17  C   UNL     1      34.975 -17.263 -23.851  0.00  0.00    +0.086 C 
BRANCH  17  18
ATOM     18  C   UNL     1      34.168 -17.407 -25.142  0.00  0.00    +0.010 C 
ATOM     19  C   UNL     1      33.670 -16.060 -25.642  0.00  0.00    +0.001 C 
ENDBRANCH  17  18
ENDBRANCH  10  17
ENDBRANCH   2   9
BRANCH   1  20
ATOM     20  C   UNL     1      33.888 -23.172 -18.945  0.00  0.00    -0.073 C 
BRANCH  20  21
ATOM     21  C   UNL     1      34.409 -22.795 -17.558  0.00  0.00    +0.004 C 
BRANCH  21  22
ATOM     22  C   UNL     1      33.409 -23.134 -16.481  0.00  0.00    -0.024 C 
ATOM     23  C   UNL     1      33.862 -23.465 -15.213  0.00  0.00    -0.004 C 
ATOM     24  C   UNL     1      32.055 -23.110 -16.777  0.00  0.00    -0.004 C 
ATOM     25  C   UNL     1      32.937 -23.779 -14.216  0.00  0.00    -0.000 C 
ATOM     26  C   UNL     1      31.130 -23.423 -15.780  0.00  0.00    -0.000 C 
ATOM     27  C   UNL     1      31.573 -23.757 -14.500  0.00  0.00    -0.000 C 
ENDBRANCH  21  22
ENDBRANCH  20  21
ENDBRANCH   1  20
TORSDOF 7
ENDMDL
MODEL 6
REMARK VINA RESULT:      -9.3      6.068      9.146
REMARK  Name = 621174
REMARK  7 active torsions:
REMARK  status: ('A' for Active; 'I' for Inactive)
REMARK    1  A    between atoms: N_1  and  C_20
REMARK    2  A    between atoms: C_2  and  N_9
REMARK    3  A    between atoms: N_9  and  C_11
REMARK    4  A    between atoms: C_10  and  C_17
REMARK    5  A    between atoms: C_17  and  C_18
REMARK    6  A    between atoms: C_20  and  C_21
REMARK    7  A    between atoms: C_21  and  C_22
REMARK                            x       y       z     vdW  Elec       q    Type
REMARK                         _______ _______ _______ _____ _____    ______ ____
ROOT
ATOM      1  N   UNL     1      32.941 -13.042 -22.391  0.00  0.00    +0.387 N 
ATOM      2  C   UNL     1      32.703 -10.328 -23.458  0.00  0.00    +0.076 C 
ATOM      3  C   UNL     1      33.783 -11.301 -23.934  0.00  0.00    -0.003 C 
ATOM      4  C   UNL     1      32.250 -10.692 -22.044  0.00  0.00    -0.003 C 
ATOM      5  C   UNL     1      33.329 -12.753 -23.779  0.00  0.00    -0.076 C 
ATOM      6  C   UNL     1      31.847 -12.165 -21.953  0.00  0.00    -0.076 C 
ATOM      7  H   UNL     1      33.748 -12.861 -21.794  0.00  0.00    -0.080 HD
ENDROOT
BRANCH   2   9
ATOM      8  O   UNL     1      35.165  -9.357 -24.746  0.00  0.00    -0.275 OA
ATOM      9  N   UNL     1      33.175  -8.967 -23.518  0.00  0.00    -0.260 N 
ATOM     10  C   UNL     1      34.388  -8.592 -24.170  0.00  0.00    +0.229 C 
BRANCH   9  11
ATOM     11  C   UNL     1      32.374  -7.924 -22.884  0.00  0.00    +0.054 C 
ATOM     12  C   UNL     1      32.794  -7.452 -21.675  0.00  0.00    +0.015 C 
ATOM     13  C   UNL     1      31.261  -7.493 -23.543  0.00  0.00    +0.015 C 
ATOM     14  C   UNL     1      32.029  -6.456 -21.070  0.00  0.00    +0.001 C 
ATOM     15  C   UNL     1      30.497  -6.496 -22.936  0.00  0.00    +0.001 C 
ATOM     16  C   UNL     1      30.880  -5.978 -21.699  0.00  0.00    +0.000 C 
ENDBRANCH   9  11
BRANCH  10  17
ATOM     17  C   UNL     1      34.734  -7.107 -24.080  0.00  0.00    +0.086 C 
BRANCH  17  18
ATOM     18  C   UNL     1      34.649  -6.398 -25.432  0.00  0.00    +0.010 C 
ATOM     19  C   UNL     1      33.392  -5.549 -25.538  0.00  0.00    +0.001 C 
ENDBRANCH  17  18
ENDBRANCH  10  17
ENDBRANCH   2   9
BRANCH   1  20
ATOM     20  C   UNL     1      32.559 -14.447 -22.250  0.00  0.00    -0.073 C 
BRANCH  20  21
ATOM     21  C   UNL     1      33.561 -15.202 -21.377  0.00  0.00    +0.004 C 
BRANCH  21  22
ATOM     22  C   UNL     1      34.165 -16.372 -22.113  0.00  0.00    -0.024 C 
ATOM     23  C   UNL     1      34.477 -17.528 -21.414  0.00  0.00    -0.004 C 
ATOM     24  C   UNL     1      34.400 -16.271 -23.476  0.00  0.00    -0.004 C 
ATOM     25  C   UNL     1      35.035 -18.611 -22.095  0.00  0.00    -0.000 C 
ATOM     26  C   UNL     1      34.957 -17.354 -24.157  0.00  0.00    -0.000 C 
ATOM     27  C   UNL     1      35.275 -18.523 -23.465  0.00  0.00    -0.000 C 
ENDBRANCH  21  22
ENDBRANCH  20  21
ENDBRANCH   1  20
TORSDOF 7
ENDMDL
MODEL 7
REMARK VINA RESULT:      -9.2      6.165     12.152
REMARK  Name = 621174
REMARK  7 active torsions:
REMARK  status: ('A' for Active; 'I' for Inactive)
REMARK    1  A    between atoms: N_1  and  C_20
REMARK    2  A    between atoms: C_2  and  N_9
REMARK    3  A    between atoms: N_9  and  C_11
REMARK    4  A    between atoms: C_10  and  C_17
REMARK    5  A    between atoms: C_17  and  C_18
REMARK    6  A    between atoms: C_20  and  C_21
REMARK    7  A    between atoms: C_21  and  C_22
REMARK                            x       y       z     vdW  Elec       q    Type
REMARK                         _______ _______ _______ _____ _____    ______ ____
ROOT
ATOM      1  N   UNL     1      34.230  -9.037 -23.294  0.00  0.00    +0.387 N 
ATOM      2  C   UNL     1      33.335 -11.595 -24.397  0.00  0.00    +0.076 C 
ATOM      3  C   UNL     1      32.706 -10.981 -23.147  0.00  0.00    -0.003 C 
ATOM      4  C   UNL     1      34.766 -11.085 -24.573  0.00  0.00    -0.003 C 
ATOM      5  C   UNL     1      32.829  -9.456 -23.156  0.00  0.00    -0.076 C 
ATOM      6  C   UNL     1      34.819  -9.557 -24.535  0.00  0.00    -0.076 C 
ATOM      7  H   UNL     1      34.754  -9.427 -22.511  0.00  0.00    -0.080 HD
ENDROOT
BRANCH   2   9
ATOM      8  O   UNL     1      33.177 -13.468 -26.662  0.00  0.00    -0.275 OA
ATOM      9  N   UNL     1      33.301 -13.035 -24.335  0.00  0.00    -0.260 N 
ATOM     10  C   UNL     1      33.223 -13.863 -25.495  0.00  0.00    +0.229 C 
BRANCH   9  11
ATOM     11  C   UNL     1      33.348 -13.676 -23.023  0.00  0.00    +0.054 C 
ATOM     12  C   UNL     1      34.541 -14.197 -22.618  0.00  0.00    +0.015 C 
ATOM     13  C   UNL     1      32.197 -13.709 -22.294  0.00  0.00    +0.015 C 
ATOM     14  C   UNL     1      34.587 -14.809 -21.366  0.00  0.00    +0.001 C 
ATOM     15  C   UNL     1      32.243 -14.321 -21.042  0.00  0.00    +0.001 C 
ATOM     16  C   UNL     1      33.438 -14.872 -20.577  0.00  0.00    +0.000 C 
ENDBRANCH   9  11
BRANCH  10  17
ATOM     17  C   UNL     1      33.150 -15.363 -25.212  0.00  0.00    +0.086 C 
BRANCH  17  18
ATOM     18  C   UNL     1      34.457 -16.088 -25.530  0.00  0.00    +0.010 C 
ATOM     19  C   UNL     1      34.564 -17.403 -24.773  0.00  0.00    +0.001 C 
ENDBRANCH  17  18
ENDBRANCH  10  17
ENDBRANCH   2   9
BRANCH   1  20
ATOM     20  C   UNL     1      34.335  -7.579 -23.250  0.00  0.00    -0.073 C 
BRANCH  20  21
ATOM     21  C   UNL     1      34.419  -6.994 -24.660  0.00  0.00    +0.004 C 
BRANCH  21  22
ATOM     22  C   UNL     1      33.318  -5.994 -24.911  0.00  0.00    -0.024 C 
ATOM     23  C   UNL     1      33.386  -5.172 -26.026  0.00  0.00    -0.004 C 
ATOM     24  C   UNL     1      32.256  -5.913 -24.023  0.00  0.00    -0.004 C 
ATOM     25  C   UNL     1      32.368  -4.247 -26.259  0.00  0.00    -0.000 C 
ATOM     26  C   UNL     1      31.237  -4.989 -24.256  0.00  0.00    -0.000 C 
ATOM     27  C   UNL     1      31.294  -4.156 -25.374  0.00  0.00    -0.000 C 
ENDBRANCH  21  22
ENDBRANCH  20  21
ENDBRANCH   1  20
TORSDOF 7
ENDMDL
MODEL 8
REMARK VINA RESULT:      -9.1      6.351      9.970
REMARK  Name = 621174
REMARK  7 active torsions:
REMARK  status: ('A' for Active; 'I' for Inactive)
REMARK    1  A    between atoms: N_1  and  C_20
REMARK    2  A    between atoms: C_2  and  N_9
REMARK    3  A    between atoms: N_9  and  C_11
REMARK    4  A    between atoms: C_10  and  C_17
REMARK    5  A    between atoms: C_17  and  C_18
REMARK    6  A    between atoms: C_20  and  C_21
REMARK    7  A    between atoms: C_21  and  C_22
REMARK                            x       y       z     vdW  Elec       q    Type
REMARK                         _______ _______ _______ _____ _____    ______ ____
ROOT
ATOM      1  N   UNL     1      33.576 -12.745 -23.369  0.00  0.00    +0.387 N 
ATOM      2  C   UNL     1      32.632  -9.976 -23.426  0.00  0.00    +0.076 C 
ATOM      3  C   UNL     1      33.967 -10.396 -24.041  0.00  0.00    -0.003 C 
ATOM      4  C   UNL     1      32.228 -10.953 -22.323  0.00  0.00    -0.003 C 
ATOM      5  C   UNL     1      33.938 -11.859 -24.484  0.00  0.00    -0.076 C 
ATOM      6  C   UNL     1      32.256 -12.398 -22.824  0.00  0.00    -0.076 C 
ATOM      7  H   UNL     1      34.265 -12.616 -22.628  0.00  0.00    -0.080 HD
ENDROOT
BRANCH   2   9
ATOM      8  O   UNL     1      32.341  -9.102 -20.630  0.00  0.00    -0.275 OA
ATOM      9  N   UNL     1      32.700  -8.625 -22.924  0.00  0.00    -0.260 N 
ATOM     10  C   UNL     1      32.546  -8.299 -21.543  0.00  0.00    +0.229 C 
BRANCH   9  11
ATOM     11  C   UNL     1      32.939  -7.541 -23.874  0.00  0.00    +0.054 C 
ATOM     12  C   UNL     1      31.853  -6.872 -24.354  0.00  0.00    +0.015 C 
ATOM     13  C   UNL     1      34.231  -7.273 -24.214  0.00  0.00    +0.015 C 
ATOM     14  C   UNL     1      32.080  -5.837 -25.260  0.00  0.00    +0.001 C 
ATOM     15  C   UNL     1      34.458  -6.237 -25.120  0.00  0.00    +0.001 C 
ATOM     16  C   UNL     1      33.383  -5.519 -25.644  0.00  0.00    +0.000 C 
ENDBRANCH   9  11
BRANCH  10  17
ATOM     17  C   UNL     1      32.604  -6.806 -21.224  0.00  0.00    +0.086 C 
BRANCH  17  18
ATOM     18  C   UNL     1      31.268  -6.257 -20.723  0.00  0.00    +0.010 C 
ATOM     19  C   UNL     1      30.695  -5.224 -21.681  0.00  0.00    +0.001 C 
ENDBRANCH  17  18
ENDBRANCH  10  17
ENDBRANCH   2   9
BRANCH   1  20
ATOM     20  C   UNL     1      33.601 -14.143 -23.797  0.00  0.00    -0.073 C 
BRANCH  20  21
ATOM     21  C   UNL     1      34.522 -14.973 -22.902  0.00  0.00    +0.004 C 
BRANCH  21  22
ATOM     22  C   UNL     1      34.612 -16.402 -23.375  0.00  0.00    -0.024 C 
ATOM     23  C   UNL     1      34.363 -16.695 -24.707  0.00  0.00    -0.004 C 
ATOM     24  C   UNL     1      34.942 -17.400 -22.470  0.00  0.00    -0.004 C 
ATOM     25  C   UNL     1      34.447 -18.017 -25.146  0.00  0.00    -0.000 C 
ATOM     26  C   UNL     1      35.027 -18.722 -22.908  0.00  0.00    -0.000 C 
ATOM     27  C   UNL     1      34.779 -19.029 -24.247  0.00  0.00    -0.000 C 
ENDBRANCH  21  22
ENDBRANCH  20  21
ENDBRANCH   1  20
TORSDOF 7
ENDMDL
MODEL 9
REMARK VINA RESULT:      -9.1      3.413      9.893
REMARK  Name = 621174
REMARK  7 active torsions:
REMARK  status: ('A' for Active; 'I' for Inactive)
REMARK    1  A    between atoms: N_1  and  C_20
REMARK    2  A    between atoms: C_2  and  N_9
REMARK    3  A    between atoms: N_9  and  C_11
REMARK    4  A    between atoms: C_10  and  C_17
REMARK    5  A    between atoms: C_17  and  C_18
REMARK    6  A    between atoms: C_20  and  C_21
REMARK    7  A    between atoms: C_21  and  C_22
REMARK                            x       y       z     vdW  Elec       q    Type
REMARK                         _______ _______ _______ _____ _____    ______ ____
ROOT
ATOM      1  N   UNL     1      35.642 -22.026 -19.233  0.00  0.00    +0.387 N 
ATOM      2  C   UNL     1      35.060 -22.582 -16.420  0.00  0.00    +0.076 C 
ATOM      3  C   UNL     1      36.485 -22.379 -16.934  0.00  0.00    -0.003 C 
ATOM      4  C   UNL     1      34.155 -23.066 -17.552  0.00  0.00    -0.003 C 
ATOM      5  C   UNL     1      36.506 -21.484 -18.174  0.00  0.00    -0.076 C 
ATOM      6  C   UNL     1      34.252 -22.149 -18.772  0.00  0.00    -0.076 C 
ATOM      7  H   UNL     1      35.979 -22.959 -19.467  0.00  0.00    -0.080 HD
ENDROOT
BRANCH   2   9
ATOM      8  O   UNL     1      32.916 -22.924 -14.432  0.00  0.00    -0.275 OA
ATOM      9  N   UNL     1      35.041 -23.502 -15.309  0.00  0.00    -0.260 N 
ATOM     10  C   UNL     1      33.949 -23.596 -14.394  0.00  0.00    +0.229 C 
BRANCH   9  11
ATOM     11  C   UNL     1      36.192 -24.380 -15.113  0.00  0.00    +0.054 C 
ATOM     12  C   UNL     1      36.026 -25.708 -15.375  0.00  0.00    +0.015 C 
ATOM     13  C   UNL     1      37.353 -23.811 -14.681  0.00  0.00    +0.015 C 
ATOM     14  C   UNL     1      37.124 -26.545 -15.188  0.00  0.00    +0.001 C 
ATOM     15  C   UNL     1      38.452 -24.650 -14.495  0.00  0.00    +0.001 C 
ATOM     16  C   UNL     1      38.337 -26.018 -14.747  0.00  0.00    +0.000 C 
ENDBRANCH   9  11
BRANCH  10  17
ATOM     17  C   UNL     1      34.144 -24.599 -13.260  0.00  0.00    +0.086 C 
BRANCH  17  18
ATOM     18  C   UNL     1      34.743 -23.963 -12.005  0.00  0.00    +0.010 C 
ATOM     19  C   UNL     1      35.927 -24.762 -11.484  0.00  0.00    +0.001 C 
ENDBRANCH  17  18
ENDBRANCH  10  17
ENDBRANCH   2   9
BRANCH   1  20
ATOM     20  C   UNL     1      35.712 -21.187 -20.429  0.00  0.00    -0.073 C 
BRANCH  20  21
ATOM     21  C   UNL     1      34.527 -20.223 -20.491  0.00  0.00    +0.004 C 
BRANCH  21  22
ATOM     22  C   UNL     1      34.745 -19.144 -21.522  0.00  0.00    -0.024 C 
ATOM     23  C   UNL     1      34.857 -19.493 -22.859  0.00  0.00    -0.004 C 
ATOM     24  C   UNL     1      34.831 -17.821 -21.115  0.00  0.00    -0.004 C 
ATOM     25  C   UNL     1      35.058 -18.495 -23.813  0.00  0.00    -0.000 C 
ATOM     26  C   UNL     1      35.032 -16.823 -22.069  0.00  0.00    -0.000 C 
ATOM     27  C   UNL     1      35.145 -17.161 -23.418  0.00  0.00    -0.000 C 
ENDBRANCH  21  22
ENDBRANCH  20  21
ENDBRANCH   1  20
TORSDOF 7
ENDMDL
