MODEL 1
REMARK VINA RESULT:      -9.4      0.000      0.000
REMARK  Name = 168120
REMARK  8 active torsions:
REMARK  status: ('A' for Active; 'I' for Inactive)
REMARK    1  A    between atoms: C_2  and  O_19
REMARK    2  A    between atoms: C_3  and  O_21
REMARK    3  A    between atoms: C_4  and  N_7
REMARK    4  A    between atoms: C_5  and  C_23
REMARK    5  A    between atoms: C_23  and  O_24
REMARK    6  A    between atoms: O_24  and  P_25
REMARK    7  A    between atoms: P_25  and  O_27
REMARK    8  A    between atoms: P_25  and  O_29
REMARK                            x       y       z     vdW  Elec       q    Type
REMARK                         _______ _______ _______ _____ _____    ______ ____
ROOT
ATOM      1  O   UNL     1      32.104 -25.348 -14.621  0.00  0.00    -0.333 OA
ATOM      2  C   UNL     1      31.630 -23.295 -13.538  0.00  0.00    +0.187 C 
ATOM      3  C   UNL     1      30.388 -24.163 -13.475  0.00  0.00    +0.171 C 
ATOM      4  C   UNL     1      32.711 -24.335 -13.795  0.00  0.00    +0.229 C 
ATOM      5  C   UNL     1      30.667 -25.210 -14.547  0.00  0.00    +0.176 C 
ENDROOT
BRANCH   4   7
ATOM      6 BR   UNL     1      35.611 -24.029 -12.105  0.00  0.00    +0.004 Br
ATOM      7  N   UNL     1      33.900 -23.805 -14.458  0.00  0.00    -0.215 N 
ATOM      8  N   UNL     1      36.006 -23.130 -14.770  0.00  0.00    -0.374 NA
ATOM      9  N   UNL     1      33.003 -23.396 -16.679  0.00  0.00    -0.227 NA
ATOM     10  N   UNL     1      34.705 -22.485 -18.172  0.00  0.00    -0.227 NA
ATOM     11  C   UNL     1      33.982 -23.397 -15.761  0.00  0.00    +0.169 C 
ATOM     12  C   UNL     1      35.143 -23.624 -13.907  0.00  0.00    +0.225 C 
ATOM     13  C   UNL     1      35.293 -22.984 -15.934  0.00  0.00    +0.196 C 
ATOM     14  C   UNL     1      35.643 -22.513 -17.195  0.00  0.00    +0.155 C 
ATOM     15  C   UNL     1      33.461 -22.921 -17.858  0.00  0.00    +0.253 C 
ATOM     16  N   UNL     1      36.952 -22.073 -17.459  0.00  0.00    -0.341 N 
ATOM     17  H   UNL     1      37.188 -21.743 -18.357  0.00  0.00    +0.144 HD
ATOM     18  H   UNL     1      37.632 -22.095 -16.748  0.00  0.00    +0.144 HD
ENDBRANCH   4   7
BRANCH   2  19
ATOM     19  O   UNL     1      31.864 -22.576 -12.345  0.00  0.00    -0.378 OA
ATOM     20  H   UNL     1      31.434 -21.709 -12.401  0.00  0.00    +0.211 HD
ENDBRANCH   2  19
BRANCH   3  21
ATOM     21  O   UNL     1      30.325 -24.810 -12.204  0.00  0.00    -0.379 OA
ATOM     22  H   UNL     1      29.522 -24.531 -11.737  0.00  0.00    +0.211 HD
ENDBRANCH   3  21
BRANCH   5  23
ATOM     23  C   UNL     1      30.154 -24.803 -15.922  0.00  0.00    +0.186 C 
BRANCH  23  24
ATOM     24  O   UNL     1      28.846 -24.277 -15.781  0.00  0.00    -0.271 OA
BRANCH  24  25
ATOM     25  P   UNL     1      28.483 -22.895 -16.544  0.00  0.00    +0.473 P 
ATOM     26  O   UNL     1      27.747 -21.887 -15.711  0.00  0.00    -0.227 OA
BRANCH  25  27
ATOM     27  O   UNL     1      27.713 -23.386 -17.878  0.00  0.00    -0.303 OA
ATOM     28  H   UNL     1      28.363 -23.622 -18.559  0.00  0.00    +0.222 HD
ENDBRANCH  25  27
BRANCH  25  29
ATOM     29  O   UNL     1      29.919 -22.403 -17.102  0.00  0.00    -0.303 OA
ATOM     30  H   UNL     1      30.599 -22.561 -16.428  0.00  0.00    +0.222 HD
ENDBRANCH  25  29
ENDBRANCH  24  25
ENDBRANCH  23  24
ENDBRANCH   5  23
TORSDOF 8
ENDMDL
MODEL 2
REMARK VINA RESULT:      -9.3      1.749      2.777
REMARK  Name = 168120
REMARK  8 active torsions:
REMARK  status: ('A' for Active; 'I' for Inactive)
REMARK    1  A    between atoms: C_2  and  O_19
REMARK    2  A    between atoms: C_3  and  O_21
REMARK    3  A    between atoms: C_4  and  N_7
REMARK    4  A    between atoms: C_5  and  C_23
REMARK    5  A    between atoms: C_23  and  O_24
REMARK    6  A    between atoms: O_24  and  P_25
REMARK    7  A    between atoms: P_25  and  O_27
REMARK    8  A    between atoms: P_25  and  O_29
REMARK                            x       y       z     vdW  Elec       q    Type
REMARK                         _______ _______ _______ _____ _____    ______ ____
ROOT
ATOM      1  O   UNL     1      31.913 -25.469 -14.581  0.00  0.00    -0.333 OA
ATOM      2  C   UNL     1      31.783 -23.326 -13.580  0.00  0.00    +0.187 C 
ATOM      3  C   UNL     1      30.425 -23.990 -13.458  0.00  0.00    +0.171 C 
ATOM      4  C   UNL     1      32.686 -24.529 -13.810  0.00  0.00    +0.229 C 
ATOM      5  C   UNL     1      30.516 -25.109 -14.490  0.00  0.00    +0.176 C 
ENDROOT
BRANCH   4   7
ATOM      6 BR   UNL     1      32.597 -23.175 -16.895  0.00  0.00    +0.004 Br
ATOM      7  N   UNL     1      33.927 -24.215 -14.516  0.00  0.00    -0.215 N 
ATOM      8  N   UNL     1      35.309 -23.501 -16.117  0.00  0.00    -0.374 NA
ATOM      9  N   UNL     1      35.553 -24.934 -12.859  0.00  0.00    -0.227 NA
ATOM     10  N   UNL     1      37.837 -24.575 -13.640  0.00  0.00    -0.227 NA
ATOM     11  C   UNL     1      35.195 -24.415 -14.044  0.00  0.00    +0.169 C 
ATOM     12  C   UNL     1      34.051 -23.665 -15.765  0.00  0.00    +0.225 C 
ATOM     13  C   UNL     1      36.035 -23.966 -15.050  0.00  0.00    +0.196 C 
ATOM     14  C   UNL     1      37.403 -24.060 -14.816  0.00  0.00    +0.155 C 
ATOM     15  C   UNL     1      36.898 -24.974 -12.748  0.00  0.00    +0.253 C 
ATOM     16  N   UNL     1      38.328 -23.629 -15.782  0.00  0.00    -0.341 N 
ATOM     17  H   UNL     1      39.294 -23.700 -15.605  0.00  0.00    +0.144 HD
ATOM     18  H   UNL     1      38.011 -23.255 -16.636  0.00  0.00    +0.144 HD
ENDBRANCH   4   7
BRANCH   2  19
ATOM     19  O   UNL     1      32.152 -22.605 -12.423  0.00  0.00    -0.378 OA
ATOM     20  H   UNL     1      31.640 -22.927 -11.664  0.00  0.00    +0.211 HD
ENDBRANCH   2  19
BRANCH   3  21
ATOM     21  O   UNL     1      30.293 -24.568 -12.161  0.00  0.00    -0.379 OA
ATOM     22  H   UNL     1      29.603 -24.101 -11.665  0.00  0.00    +0.211 HD
ENDBRANCH   3  21
BRANCH   5  23
ATOM     23  C   UNL     1      30.038 -24.683 -15.872  0.00  0.00    +0.186 C 
BRANCH  23  24
ATOM     24  O   UNL     1      28.658 -24.375 -15.800  0.00  0.00    -0.271 OA
BRANCH  24  25
ATOM     25  P   UNL     1      28.117 -23.063 -16.581  0.00  0.00    +0.473 P 
ATOM     26  O   UNL     1      29.159 -22.020 -16.862  0.00  0.00    -0.227 OA
BRANCH  25  27
ATOM     27  O   UNL     1      26.868 -22.570 -15.681  0.00  0.00    -0.303 OA
ATOM     28  H   UNL     1      26.721 -21.622 -15.825  0.00  0.00    +0.222 HD
ENDBRANCH  25  27
BRANCH  25  29
ATOM     29  O   UNL     1      27.408 -23.690 -17.892  0.00  0.00    -0.303 OA
ATOM     30  H   UNL     1      27.772 -24.573 -18.066  0.00  0.00    +0.222 HD
ENDBRANCH  25  29
ENDBRANCH  24  25
ENDBRANCH  23  24
ENDBRANCH   5  23
TORSDOF 8
ENDMDL
MODEL 3
REMARK VINA RESULT:      -9.2      4.377      6.465
REMARK  Name = 168120
REMARK  8 active torsions:
REMARK  status: ('A' for Active; 'I' for Inactive)
REMARK    1  A    between atoms: C_2  and  O_19
REMARK    2  A    between atoms: C_3  and  O_21
REMARK    3  A    between atoms: C_4  and  N_7
REMARK    4  A    between atoms: C_5  and  C_23
REMARK    5  A    between atoms: C_23  and  O_24
REMARK    6  A    between atoms: O_24  and  P_25
REMARK    7  A    between atoms: P_25  and  O_27
REMARK    8  A    between atoms: P_25  and  O_29
REMARK                            x       y       z     vdW  Elec       q    Type
REMARK                         _______ _______ _______ _____ _____    ______ ____
ROOT
ATOM      1  O   UNL     1      35.735 -24.958 -15.783  0.00  0.00    -0.333 OA
ATOM      2  C   UNL     1      36.246 -22.684 -15.363  0.00  0.00    +0.187 C 
ATOM      3  C   UNL     1      37.398 -23.530 -14.857  0.00  0.00    +0.171 C 
ATOM      4  C   UNL     1      35.577 -23.639 -16.341  0.00  0.00    +0.229 C 
ATOM      5  C   UNL     1      36.772 -24.918 -14.776  0.00  0.00    +0.176 C 
ENDROOT
BRANCH   4   7
ATOM      6 BR   UNL     1      34.533 -22.354 -19.277  0.00  0.00    +0.004 Br
ATOM      7  N   UNL     1      34.159 -23.364 -16.565  0.00  0.00    -0.215 N 
ATOM      8  N   UNL     1      32.280 -22.724 -17.587  0.00  0.00    -0.374 NA
ATOM      9  N   UNL     1      33.244 -24.080 -14.431  0.00  0.00    -0.227 NA
ATOM     10  N   UNL     1      30.821 -23.796 -14.362  0.00  0.00    -0.227 NA
ATOM     11  C   UNL     1      33.146 -23.582 -15.673  0.00  0.00    +0.169 C 
ATOM     12  C   UNL     1      33.587 -22.848 -17.699  0.00  0.00    +0.225 C 
ATOM     13  C   UNL     1      31.991 -23.180 -16.325  0.00  0.00    +0.196 C 
ATOM     14  C   UNL     1      30.797 -23.301 -15.623  0.00  0.00    +0.155 C 
ATOM     15  C   UNL     1      32.025 -24.149 -13.852  0.00  0.00    +0.253 C 
ATOM     16  N   UNL     1      29.578 -22.916 -16.207  0.00  0.00    -0.341 N 
ATOM     17  H   UNL     1      28.739 -23.007 -15.700  0.00  0.00    +0.144 HD
ATOM     18  H   UNL     1      29.563 -22.556 -17.124  0.00  0.00    +0.144 HD
ENDBRANCH   4   7
BRANCH   2  19
ATOM     19  O   UNL     1      36.669 -21.494 -15.996  0.00  0.00    -0.378 OA
ATOM     20  H   UNL     1      37.638 -21.476 -16.036  0.00  0.00    +0.211 HD
ENDBRANCH   2  19
BRANCH   3  21
ATOM     21  O   UNL     1      38.438 -23.549 -15.834  0.00  0.00    -0.379 OA
ATOM     22  H   UNL     1      39.289 -23.369 -15.406  0.00  0.00    +0.211 HD
ENDBRANCH   3  21
BRANCH   5  23
ATOM     23  C   UNL     1      36.137 -25.205 -13.422  0.00  0.00    +0.186 C 
BRANCH  23  24
ATOM     24  O   UNL     1      36.963 -24.660 -12.409  0.00  0.00    -0.271 OA
BRANCH  24  25
ATOM     25  P   UNL     1      36.290 -23.685 -11.305  0.00  0.00    +0.473 P 
ATOM     26  O   UNL     1      36.229 -24.248  -9.916  0.00  0.00    -0.227 OA
BRANCH  25  27
ATOM     27  O   UNL     1      34.863 -23.296 -11.957  0.00  0.00    -0.303 OA
ATOM     28  H   UNL     1      34.261 -22.991 -11.260  0.00  0.00    +0.222 HD
ENDBRANCH  25  27
BRANCH  25  29
ATOM     29  O   UNL     1      37.151 -22.324 -11.453  0.00  0.00    -0.303 OA
ATOM     30  H   UNL     1      37.319 -21.951 -10.573  0.00  0.00    +0.222 HD
ENDBRANCH  25  29
ENDBRANCH  24  25
ENDBRANCH  23  24
ENDBRANCH   5  23
TORSDOF 8
ENDMDL
MODEL 4
REMARK VINA RESULT:      -8.8      4.772      6.753
REMARK  Name = 168120
REMARK  8 active torsions:
REMARK  status: ('A' for Active; 'I' for Inactive)
REMARK    1  A    between atoms: C_2  and  O_19
REMARK    2  A    between atoms: C_3  and  O_21
REMARK    3  A    between atoms: C_4  and  N_7
REMARK    4  A    between atoms: C_5  and  C_23
REMARK    5  A    between atoms: C_23  and  O_24
REMARK    6  A    between atoms: O_24  and  P_25
REMARK    7  A    between atoms: P_25  and  O_27
REMARK    8  A    between atoms: P_25  and  O_29
REMARK                            x       y       z     vdW  Elec       q    Type
REMARK                         _______ _______ _______ _____ _____    ______ ____
ROOT
ATOM      1  O   UNL     1      36.835 -23.420 -13.483  0.00  0.00    -0.333 OA
ATOM      2  C   UNL     1      34.897 -24.743 -13.155  0.00  0.00    +0.187 C 
ATOM      3  C   UNL     1      35.845 -24.995 -11.998  0.00  0.00    +0.171 C 
ATOM      4  C   UNL     1      35.407 -23.407 -13.676  0.00  0.00    +0.229 C 
ATOM      5  C   UNL     1      37.168 -24.464 -12.539  0.00  0.00    +0.176 C 
ENDROOT
BRANCH   4   7
ATOM      6 BR   UNL     1      37.893 -22.887 -15.892  0.00  0.00    +0.004 Br
ATOM      7  N   UNL     1      35.102 -23.163 -15.084  0.00  0.00    -0.215 N 
ATOM      8  N   UNL     1      35.406 -22.755 -17.258  0.00  0.00    -0.374 NA
ATOM      9  N   UNL     1      32.676 -23.287 -15.023  0.00  0.00    -0.227 NA
ATOM     10  N   UNL     1      31.711 -22.932 -17.236  0.00  0.00    -0.227 NA
ATOM     11  C   UNL     1      33.855 -23.119 -15.643  0.00  0.00    +0.169 C 
ATOM     12  C   UNL     1      35.999 -22.937 -16.097  0.00  0.00    +0.225 C 
ATOM     13  C   UNL     1      34.065 -22.867 -16.989  0.00  0.00    +0.196 C 
ATOM     14  C   UNL     1      32.935 -22.773 -17.795  0.00  0.00    +0.155 C 
ATOM     15  C   UNL     1      31.659 -23.174 -15.904  0.00  0.00    +0.253 C 
ATOM     16  N   UNL     1      33.056 -22.519 -19.172  0.00  0.00    -0.341 N 
ATOM     17  H   UNL     1      32.248 -22.455 -19.733  0.00  0.00    +0.144 HD
ATOM     18  H   UNL     1      33.946 -22.404 -19.576  0.00  0.00    +0.144 HD
ENDBRANCH   4   7
BRANCH   2  19
ATOM     19  O   UNL     1      33.545 -24.671 -12.756  0.00  0.00    -0.378 OA
ATOM     20  H   UNL     1      33.066 -24.064 -13.342  0.00  0.00    +0.211 HD
ENDBRANCH   2  19
BRANCH   3  21
ATOM     21  O   UNL     1      35.452 -24.201 -10.880  0.00  0.00    -0.379 OA
ATOM     22  H   UNL     1      35.115 -23.347 -11.191  0.00  0.00    +0.211 HD
ENDBRANCH   3  21
BRANCH   5  23
ATOM     23  C   UNL     1      37.982 -25.526 -13.267  0.00  0.00    +0.186 C 
BRANCH  23  24
ATOM     24  O   UNL     1      39.352 -25.172 -13.202  0.00  0.00    -0.271 OA
BRANCH  24  25
ATOM     25  P   UNL     1      40.353 -25.747 -14.337  0.00  0.00    +0.473 P 
ATOM     26  O   UNL     1      41.214 -26.896 -13.899  0.00  0.00    -0.227 OA
BRANCH  25  27
ATOM     27  O   UNL     1      41.153 -24.437 -14.841  0.00  0.00    -0.303 OA
ATOM     28  H   UNL     1      41.984 -24.353 -14.346  0.00  0.00    +0.222 HD
ENDBRANCH  25  27
BRANCH  25  29
ATOM     29  O   UNL     1      39.356 -26.072 -15.568  0.00  0.00    -0.303 OA
ATOM     30  H   UNL     1      39.847 -26.024 -16.403  0.00  0.00    +0.222 HD
ENDBRANCH  25  29
ENDBRANCH  24  25
ENDBRANCH  23  24
ENDBRANCH   5  23
TORSDOF 8
ENDMDL
MODEL 5
REMARK VINA RESULT:      -8.8      5.034      7.263
REMARK  Name = 168120
REMARK  8 active torsions:
REMARK  status: ('A' for Active; 'I' for Inactive)
REMARK    1  A    between atoms: C_2  and  O_19
REMARK    2  A    between atoms: C_3  and  O_21
REMARK    3  A    between atoms: C_4  and  N_7
REMARK    4  A    between atoms: C_5  and  C_23
REMARK    5  A    between atoms: C_23  and  O_24
REMARK    6  A    between atoms: O_24  and  P_25
REMARK    7  A    between atoms: P_25  and  O_27
REMARK    8  A    between atoms: P_25  and  O_29
REMARK                            x       y       z     vdW  Elec       q    Type
REMARK                         _______ _______ _______ _____ _____    ______ ____
ROOT
ATOM      1  O   UNL     1      36.777 -23.363 -14.044  0.00  0.00    -0.333 OA
ATOM      2  C   UNL     1      35.462 -24.921 -12.837  0.00  0.00    +0.187 C 
ATOM      3  C   UNL     1      36.896 -25.039 -12.358  0.00  0.00    +0.171 C 
ATOM      4  C   UNL     1      35.467 -23.536 -13.467  0.00  0.00    +0.229 C 
ATOM      5  C   UNL     1      37.670 -24.347 -13.474  0.00  0.00    +0.176 C 
ENDROOT
BRANCH   4   7
ATOM      6 BR   UNL     1      36.345 -22.641 -16.595  0.00  0.00    +0.004 Br
ATOM      7  N   UNL     1      34.447 -23.345 -14.494  0.00  0.00    -0.215 N 
ATOM      8  N   UNL     1      33.519 -22.901 -16.476  0.00  0.00    -0.374 NA
ATOM      9  N   UNL     1      32.447 -23.846 -13.207  0.00  0.00    -0.227 NA
ATOM     10  N   UNL     1      30.436 -23.651 -14.576  0.00  0.00    -0.227 NA
ATOM     11  C   UNL     1      33.097 -23.498 -14.328  0.00  0.00    +0.169 C 
ATOM     12  C   UNL     1      34.647 -22.985 -15.802  0.00  0.00    +0.225 C 
ATOM     13  C   UNL     1      32.542 -23.220 -15.567  0.00  0.00    +0.196 C 
ATOM     14  C   UNL     1      31.158 -23.305 -15.669  0.00  0.00    +0.155 C 
ATOM     15  C   UNL     1      31.115 -23.895 -13.429  0.00  0.00    +0.253 C 
ATOM     16  N   UNL     1      30.510 -23.039 -16.888  0.00  0.00    -0.341 N 
ATOM     17  H   UNL     1      29.529 -23.103 -16.948  0.00  0.00    +0.144 HD
ATOM     18  H   UNL     1      31.036 -22.787 -17.681  0.00  0.00    +0.144 HD
ENDBRANCH   4   7
BRANCH   2  19
ATOM     19  O   UNL     1      34.519 -25.020 -11.790  0.00  0.00    -0.378 OA
ATOM     20  H   UNL     1      34.680 -24.317 -11.142  0.00  0.00    +0.211 HD
ENDBRANCH   2  19
BRANCH   3  21
ATOM     21  O   UNL     1      37.057 -24.292 -11.153  0.00  0.00    -0.379 OA
ATOM     22  H   UNL     1      37.450 -24.857 -10.470  0.00  0.00    +0.211 HD
ENDBRANCH   3  21
BRANCH   5  23
ATOM     23  C   UNL     1      38.099 -25.302 -14.580  0.00  0.00    +0.186 C 
BRANCH  23  24
ATOM     24  O   UNL     1      39.043 -26.216 -14.050  0.00  0.00    -0.271 OA
BRANCH  24  25
ATOM     25  P   UNL     1      40.596 -26.061 -14.482  0.00  0.00    +0.473 P 
ATOM     26  O   UNL     1      41.512 -27.118 -13.942  0.00  0.00    -0.227 OA
BRANCH  25  27
ATOM     27  O   UNL     1      40.962 -24.545 -14.057  0.00  0.00    -0.303 OA
ATOM     28  H   UNL     1      41.834 -24.529 -13.632  0.00  0.00    +0.222 HD
ENDBRANCH  25  27
BRANCH  25  29
ATOM     29  O   UNL     1      40.515 -25.986 -16.096  0.00  0.00    -0.303 OA
ATOM     30  H   UNL     1      41.413 -25.961 -16.463  0.00  0.00    +0.222 HD
ENDBRANCH  25  29
ENDBRANCH  24  25
ENDBRANCH  23  24
ENDBRANCH   5  23
TORSDOF 8
ENDMDL
MODEL 6
REMARK VINA RESULT:      -8.3      4.473      6.569
REMARK  Name = 168120
REMARK  8 active torsions:
REMARK  status: ('A' for Active; 'I' for Inactive)
REMARK    1  A    between atoms: C_2  and  O_19
REMARK    2  A    between atoms: C_3  and  O_21
REMARK    3  A    between atoms: C_4  and  N_7
REMARK    4  A    between atoms: C_5  and  C_23
REMARK    5  A    between atoms: C_23  and  O_24
REMARK    6  A    between atoms: O_24  and  P_25
REMARK    7  A    between atoms: P_25  and  O_27
REMARK    8  A    between atoms: P_25  and  O_29
REMARK                            x       y       z     vdW  Elec       q    Type
REMARK                         _______ _______ _______ _____ _____    ______ ____
ROOT
ATOM      1  O   UNL     1      35.689 -22.809 -14.734  0.00  0.00    -0.333 OA
ATOM      2  C   UNL     1      34.738 -24.978 -14.768  0.00  0.00    +0.187 C 
ATOM      3  C   UNL     1      35.881 -24.977 -13.771  0.00  0.00    +0.171 C 
ATOM      4  C   UNL     1      34.428 -23.492 -14.873  0.00  0.00    +0.229 C 
ATOM      5  C   UNL     1      36.654 -23.722 -14.164  0.00  0.00    +0.176 C 
ENDROOT
BRANCH   4   7
ATOM      6 BR   UNL     1      31.087 -23.742 -15.243  0.00  0.00    +0.004 Br
ATOM      7  N   UNL     1      33.793 -23.104 -16.130  0.00  0.00    -0.215 N 
ATOM      8  N   UNL     1      32.201 -22.724 -17.649  0.00  0.00    -0.374 NA
ATOM      9  N   UNL     1      35.746 -22.410 -17.398  0.00  0.00    -0.227 NA
ATOM     10  N   UNL     1      35.131 -21.652 -19.635  0.00  0.00    -0.227 NA
ATOM     11  C   UNL     1      34.430 -22.621 -17.239  0.00  0.00    +0.169 C 
ATOM     12  C   UNL     1      32.455 -23.148 -16.428  0.00  0.00    +0.225 C 
ATOM     13  C   UNL     1      33.427 -22.391 -18.167  0.00  0.00    +0.196 C 
ATOM     14  C   UNL     1      33.817 -21.889 -19.404  0.00  0.00    +0.155 C 
ATOM     15  C   UNL     1      36.001 -21.924 -18.633  0.00  0.00    +0.253 C 
ATOM     16  N   UNL     1      32.866 -21.627 -20.405  0.00  0.00    -0.341 N 
ATOM     17  H   UNL     1      33.154 -21.271 -21.277  0.00  0.00    +0.144 HD
ATOM     18  H   UNL     1      31.912 -21.800 -20.236  0.00  0.00    +0.144 HD
ENDBRANCH   4   7
BRANCH   2  19
ATOM     19  O   UNL     1      33.619 -25.719 -14.326  0.00  0.00    -0.378 OA
ATOM     20  H   UNL     1      32.854 -25.515 -14.887  0.00  0.00    +0.211 HD
ENDBRANCH   2  19
BRANCH   3  21
ATOM     21  O   UNL     1      35.362 -24.805 -12.453  0.00  0.00    -0.379 OA
ATOM     22  H   UNL     1      34.641 -25.436 -12.303  0.00  0.00    +0.211 HD
ENDBRANCH   3  21
BRANCH   5  23
ATOM     23  C   UNL     1      37.734 -23.991 -15.203  0.00  0.00    +0.186 C 
BRANCH  23  24
ATOM     24  O   UNL     1      38.925 -24.363 -14.534  0.00  0.00    -0.271 OA
BRANCH  24  25
ATOM     25  P   UNL     1      39.507 -25.856 -14.765  0.00  0.00    +0.473 P 
ATOM     26  O   UNL     1      38.490 -26.955 -14.666  0.00  0.00    -0.227 OA
BRANCH  25  27
ATOM     27  O   UNL     1      40.736 -25.954 -13.719  0.00  0.00    -0.303 OA
ATOM     28  H   UNL     1      41.563 -25.717 -14.168  0.00  0.00    +0.222 HD
ENDBRANCH  25  27
BRANCH  25  29
ATOM     29  O   UNL     1      40.247 -25.738 -16.199  0.00  0.00    -0.303 OA
ATOM     30  H   UNL     1      39.586 -25.785 -16.908  0.00  0.00    +0.222 HD
ENDBRANCH  25  29
ENDBRANCH  24  25
ENDBRANCH  23  24
ENDBRANCH   5  23
TORSDOF 8
ENDMDL
MODEL 7
REMARK VINA RESULT:      -8.0      4.766      6.853
REMARK  Name = 168120
REMARK  8 active torsions:
REMARK  status: ('A' for Active; 'I' for Inactive)
REMARK    1  A    between atoms: C_2  and  O_19
REMARK    2  A    between atoms: C_3  and  O_21
REMARK    3  A    between atoms: C_4  and  N_7
REMARK    4  A    between atoms: C_5  and  C_23
REMARK    5  A    between atoms: C_23  and  O_24
REMARK    6  A    between atoms: O_24  and  P_25
REMARK    7  A    between atoms: P_25  and  O_27
REMARK    8  A    between atoms: P_25  and  O_29
REMARK                            x       y       z     vdW  Elec       q    Type
REMARK                         _______ _______ _______ _____ _____    ______ ____
ROOT
ATOM      1  O   UNL     1      37.321 -23.630 -13.969  0.00  0.00    -0.333 OA
ATOM      2  C   UNL     1      35.427 -24.007 -12.597  0.00  0.00    +0.187 C 
ATOM      3  C   UNL     1      36.672 -24.261 -11.768  0.00  0.00    +0.171 C 
ATOM      4  C   UNL     1      35.985 -23.150 -13.723  0.00  0.00    +0.229 C 
ATOM      5  C   UNL     1      37.748 -24.421 -12.837  0.00  0.00    +0.176 C 
ENDROOT
BRANCH   4   7
ATOM      6 BR   UNL     1      32.955 -24.626 -13.757  0.00  0.00    +0.004 Br
ATOM      7  N   UNL     1      35.205 -23.207 -14.957  0.00  0.00    -0.215 N 
ATOM      8  N   UNL     1      33.528 -23.653 -16.363  0.00  0.00    -0.374 NA
ATOM      9  N   UNL     1      36.720 -22.063 -16.473  0.00  0.00    -0.227 NA
ATOM     10  N   UNL     1      35.787 -21.919 -18.723  0.00  0.00    -0.227 NA
ATOM     11  C   UNL     1      35.579 -22.702 -16.171  0.00  0.00    +0.169 C 
ATOM     12  C   UNL     1      33.965 -23.769 -15.126  0.00  0.00    +0.225 C 
ATOM     13  C   UNL     1      34.527 -22.987 -17.027  0.00  0.00    +0.196 C 
ATOM     14  C   UNL     1      34.660 -22.571 -18.348  0.00  0.00    +0.155 C 
ATOM     15  C   UNL     1      36.733 -21.709 -17.777  0.00  0.00    +0.253 C 
ATOM     16  N   UNL     1      33.642 -22.819 -19.284  0.00  0.00    -0.341 N 
ATOM     17  H   UNL     1      33.747 -22.519 -20.216  0.00  0.00    +0.144 HD
ATOM     18  H   UNL     1      32.824 -23.293 -19.009  0.00  0.00    +0.144 HD
ENDBRANCH   4   7
BRANCH   2  19
ATOM     19  O   UNL     1      34.412 -23.338 -11.879  0.00  0.00    -0.378 OA
ATOM     20  H   UNL     1      34.073 -23.920 -11.180  0.00  0.00    +0.211 HD
ENDBRANCH   2  19
BRANCH   3  21
ATOM     21  O   UNL     1      36.967 -23.103 -10.987  0.00  0.00    -0.379 OA
ATOM     22  H   UNL     1      37.676 -22.597 -11.412  0.00  0.00    +0.211 HD
ENDBRANCH   3  21
BRANCH   5  23
ATOM     23  C   UNL     1      37.919 -25.863 -13.296  0.00  0.00    +0.186 C 
BRANCH  23  24
ATOM     24  O   UNL     1      39.283 -26.221 -13.168  0.00  0.00    -0.271 OA
BRANCH  24  25
ATOM     25  P   UNL     1      40.266 -25.982 -14.433  0.00  0.00    +0.473 P 
ATOM     26  O   UNL     1      41.223 -27.104 -14.712  0.00  0.00    -0.227 OA
BRANCH  25  27
ATOM     27  O   UNL     1      40.949 -24.551 -14.121  0.00  0.00    -0.303 OA
ATOM     28  H   UNL     1      40.290 -23.847 -14.227  0.00  0.00    +0.222 HD
ENDBRANCH  25  27
BRANCH  25  29
ATOM     29  O   UNL     1      39.235 -25.649 -15.634  0.00  0.00    -0.303 OA
ATOM     30  H   UNL     1      39.734 -25.399 -16.427  0.00  0.00    +0.222 HD
ENDBRANCH  25  29
ENDBRANCH  24  25
ENDBRANCH  23  24
ENDBRANCH   5  23
TORSDOF 8
ENDMDL
MODEL 8
REMARK VINA RESULT:      -7.8      4.527      6.337
REMARK  Name = 168120
REMARK  8 active torsions:
REMARK  status: ('A' for Active; 'I' for Inactive)
REMARK    1  A    between atoms: C_2  and  O_19
REMARK    2  A    between atoms: C_3  and  O_21
REMARK    3  A    between atoms: C_4  and  N_7
REMARK    4  A    between atoms: C_5  and  C_23
REMARK    5  A    between atoms: C_23  and  O_24
REMARK    6  A    between atoms: O_24  and  P_25
REMARK    7  A    between atoms: P_25  and  O_27
REMARK    8  A    between atoms: P_25  and  O_29
REMARK                            x       y       z     vdW  Elec       q    Type
REMARK                         _______ _______ _______ _____ _____    ______ ____
ROOT
ATOM      1  O   UNL     1      35.499 -24.306 -15.964  0.00  0.00    -0.333 OA
ATOM      2  C   UNL     1      36.547 -22.195 -15.720  0.00  0.00    +0.187 C 
ATOM      3  C   UNL     1      37.101 -23.125 -14.658  0.00  0.00    +0.171 C 
ATOM      4  C   UNL     1      35.991 -23.188 -16.730  0.00  0.00    +0.229 C 
ATOM      5  C   UNL     1      36.067 -24.246 -14.636  0.00  0.00    +0.176 C 
ENDROOT
BRANCH   4   7
ATOM      6 BR   UNL     1      32.770 -23.880 -16.016  0.00  0.00    +0.004 Br
ATOM      7  N   UNL     1      34.917 -22.651 -17.563  0.00  0.00    -0.215 N 
ATOM      8  N   UNL     1      32.861 -22.218 -18.318  0.00  0.00    -0.374 NA
ATOM      9  N   UNL     1      36.223 -21.407 -19.192  0.00  0.00    -0.227 NA
ATOM     10  N   UNL     1      34.788 -20.305 -20.829  0.00  0.00    -0.227 NA
ATOM     11  C   UNL     1      35.073 -21.852 -18.662  0.00  0.00    +0.169 C 
ATOM     12  C   UNL     1      33.569 -22.842 -17.399  0.00  0.00    +0.225 C 
ATOM     13  C   UNL     1      33.788 -21.595 -19.113  0.00  0.00    +0.196 C 
ATOM     14  C   UNL     1      33.667 -20.790 -20.241  0.00  0.00    +0.155 C 
ATOM     15  C   UNL     1      35.978 -20.640 -20.276  0.00  0.00    +0.253 C 
ATOM     16  N   UNL     1      32.402 -20.478 -20.768  0.00  0.00    -0.341 N 
ATOM     17  H   UNL     1      32.329 -19.906 -21.566  0.00  0.00    +0.144 HD
ATOM     18  H   UNL     1      31.589 -20.831 -20.339  0.00  0.00    +0.144 HD
ENDBRANCH   4   7
BRANCH   2  19
ATOM     19  O   UNL     1      37.531 -21.359 -16.291  0.00  0.00    -0.378 OA
ATOM     20  H   UNL     1      37.638 -20.565 -15.744  0.00  0.00    +0.211 HD
ENDBRANCH   2  19
BRANCH   3  21
ATOM     21  O   UNL     1      38.349 -23.658 -15.097  0.00  0.00    -0.379 OA
ATOM     22  H   UNL     1      38.209 -24.207 -15.884  0.00  0.00    +0.211 HD
ENDBRANCH   3  21
BRANCH   5  23
ATOM     23  C   UNL     1      34.940 -23.997 -13.643  0.00  0.00    +0.186 C 
BRANCH  23  24
ATOM     24  O   UNL     1      35.482 -23.385 -12.486  0.00  0.00    -0.271 OA
BRANCH  24  25
ATOM     25  P   UNL     1      36.296 -24.308 -11.433  0.00  0.00    +0.473 P 
ATOM     26  O   UNL     1      36.771 -25.623 -11.979  0.00  0.00    -0.227 OA
BRANCH  25  27
ATOM     27  O   UNL     1      35.301 -24.406 -10.162  0.00  0.00    -0.303 OA
ATOM     28  H   UNL     1      35.622 -25.089  -9.552  0.00  0.00    +0.222 HD
ENDBRANCH  25  27
BRANCH  25  29
ATOM     29  O   UNL     1      37.466 -23.320 -10.915  0.00  0.00    -0.303 OA
ATOM     30  H   UNL     1      37.121 -22.415 -10.854  0.00  0.00    +0.222 HD
ENDBRANCH  25  29
ENDBRANCH  24  25
ENDBRANCH  23  24
ENDBRANCH   5  23
TORSDOF 8
ENDMDL
MODEL 9
REMARK VINA RESULT:      -7.7      4.219      6.123
REMARK  Name = 168120
REMARK  8 active torsions:
REMARK  status: ('A' for Active; 'I' for Inactive)
REMARK    1  A    between atoms: C_2  and  O_19
REMARK    2  A    between atoms: C_3  and  O_21
REMARK    3  A    between atoms: C_4  and  N_7
REMARK    4  A    between atoms: C_5  and  C_23
REMARK    5  A    between atoms: C_23  and  O_24
REMARK    6  A    between atoms: O_24  and  P_25
REMARK    7  A    between atoms: P_25  and  O_27
REMARK    8  A    between atoms: P_25  and  O_29
REMARK                            x       y       z     vdW  Elec       q    Type
REMARK                         _______ _______ _______ _____ _____    ______ ____
ROOT
ATOM      1  O   UNL     1      37.467 -23.403 -13.844  0.00  0.00    -0.333 OA
ATOM      2  C   UNL     1      35.869 -24.543 -12.518  0.00  0.00    +0.187 C 
ATOM      3  C   UNL     1      37.236 -24.750 -11.896  0.00  0.00    +0.171 C 
ATOM      4  C   UNL     1      36.109 -23.305 -13.370  0.00  0.00    +0.229 C 
ATOM      5  C   UNL     1      38.174 -24.371 -13.037  0.00  0.00    +0.176 C 
ENDROOT
BRANCH   4   7
ATOM      6 BR   UNL     1      37.262 -22.311 -16.377  0.00  0.00    +0.004 Br
ATOM      7  N   UNL     1      35.198 -23.177 -14.505  0.00  0.00    -0.215 N 
ATOM      8  N   UNL     1      34.467 -22.778 -16.577  0.00  0.00    -0.374 NA
ATOM      9  N   UNL     1      33.110 -23.837 -13.452  0.00  0.00    -0.227 NA
ATOM     10  N   UNL     1      31.256 -23.773 -15.036  0.00  0.00    -0.227 NA
ATOM     11  C   UNL     1      33.854 -23.430 -14.491  0.00  0.00    +0.169 C 
ATOM     12  C   UNL     1      35.517 -22.788 -15.780  0.00  0.00    +0.225 C 
ATOM     13  C   UNL     1      33.421 -23.178 -15.784  0.00  0.00    +0.196 C 
ATOM     14  C   UNL     1      32.067 -23.363 -16.041  0.00  0.00    +0.155 C 
ATOM     15  C   UNL     1      31.819 -23.981 -13.822  0.00  0.00    +0.253 C 
ATOM     16  N   UNL     1      31.542 -23.130 -17.323  0.00  0.00    -0.341 N 
ATOM     17  H   UNL     1      30.581 -23.265 -17.493  0.00  0.00    +0.144 HD
ATOM     18  H   UNL     1      32.133 -22.831 -18.051  0.00  0.00    +0.144 HD
ENDBRANCH   4   7
BRANCH   2  19
ATOM     19  O   UNL     1      34.851 -24.335 -11.562  0.00  0.00    -0.378 OA
ATOM     20  H   UNL     1      34.437 -25.183 -11.339  0.00  0.00    +0.211 HD
ENDBRANCH   2  19
BRANCH   3  21
ATOM     21  O   UNL     1      37.416 -23.824 -10.825  0.00  0.00    -0.379 OA
ATOM     22  H   UNL     1      37.994 -23.102 -11.114  0.00  0.00    +0.211 HD
ENDBRANCH   3  21
BRANCH   5  23
ATOM     23  C   UNL     1      38.542 -25.555 -13.921  0.00  0.00    +0.186 C 
BRANCH  23  24
ATOM     24  O   UNL     1      37.680 -25.568 -15.045  0.00  0.00    -0.271 OA
BRANCH  24  25
ATOM     25  P   UNL     1      36.708 -26.845 -15.258  0.00  0.00    +0.473 P 
ATOM     26  O   UNL     1      36.938 -27.611 -16.528  0.00  0.00    -0.227 OA
BRANCH  25  27
ATOM     27  O   UNL     1      35.224 -26.230 -15.080  0.00  0.00    -0.303 OA
ATOM     28  H   UNL     1      35.144 -25.419 -15.606  0.00  0.00    +0.222 HD
ENDBRANCH  25  27
BRANCH  25  29
ATOM     29  O   UNL     1      36.925 -27.695 -13.899  0.00  0.00    -0.303 OA
ATOM     30  H   UNL     1      37.848 -27.616 -13.613  0.00  0.00    +0.222 HD
ENDBRANCH  25  29
ENDBRANCH  24  25
ENDBRANCH  23  24
ENDBRANCH   5  23
TORSDOF 8
ENDMDL
