MODEL 1
REMARK VINA RESULT:      -3.9      0.000      0.000
REMARK  Name = 533975
REMARK  3 active torsions:
REMARK  status: ('A' for Active; 'I' for Inactive)
REMARK    1  A    between atoms: C_1  and  C_3
REMARK    2  A    between atoms: C_1  and  C_5
REMARK    3  A    between atoms: C_5  and  O_6
REMARK                            x       y       z     vdW  Elec       q    Type
REMARK                         _______ _______ _______ _____ _____    ______ ____
ROOT
ATOM      1  C   UNL     1      34.727 -19.399 -21.973  0.00  0.00    +0.065 C 
ENDROOT
BRANCH   1   3
ATOM      2 BR   UNL     1      35.675 -21.101 -19.869  0.00  0.00    -0.054 Br
ATOM      3  C   UNL     1      34.308 -20.169 -20.747  0.00  0.00    +0.015 C 
ATOM      4  C   UNL     1      33.038 -20.238 -20.325  0.00  0.00    +0.003 C 
ENDBRANCH   1   3
BRANCH   1   5
ATOM      5  C   UNL     1      35.808 -18.358 -21.689  0.00  0.00    +0.142 C 
BRANCH   5   6
ATOM      6  O   UNL     1      35.382 -17.497 -20.641  0.00  0.00    -0.382 OA
ATOM      7  H   UNL     1      34.414 -17.448 -20.637  0.00  0.00    +0.210 HD
ENDBRANCH   5   6
ENDBRANCH   1   5
TORSDOF 3
ENDMDL
MODEL 2
REMARK VINA RESULT:      -3.9      9.360     10.035
REMARK  Name = 533975
REMARK  3 active torsions:
REMARK  status: ('A' for Active; 'I' for Inactive)
REMARK    1  A    between atoms: C_1  and  C_3
REMARK    2  A    between atoms: C_1  and  C_5
REMARK    3  A    between atoms: C_5  and  O_6
REMARK                            x       y       z     vdW  Elec       q    Type
REMARK                         _______ _______ _______ _____ _____    ______ ____
ROOT
ATOM      1  C   UNL     1      41.584 -13.598 -15.469  0.00  0.00    +0.065 C 
ENDROOT
BRANCH   1   3
ATOM      2 BR   UNL     1      41.680 -16.370 -16.199  0.00  0.00    -0.054 Br
ATOM      3  C   UNL     1      41.444 -14.560 -16.620  0.00  0.00    +0.015 C 
ATOM      4  C   UNL     1      41.216 -14.164 -17.880  0.00  0.00    +0.003 C 
ENDBRANCH   1   3
BRANCH   1   5
ATOM      5  C   UNL     1      40.476 -13.742 -14.427  0.00  0.00    +0.142 C 
BRANCH   5   6
ATOM      6  O   UNL     1      40.979 -13.400 -13.142  0.00  0.00    -0.382 OA
ATOM      7  H   UNL     1      40.736 -12.485 -12.934  0.00  0.00    +0.210 HD
ENDBRANCH   5   6
ENDBRANCH   1   5
TORSDOF 3
ENDMDL
MODEL 3
REMARK VINA RESULT:      -3.9      3.014      3.801
REMARK  Name = 533975
REMARK  3 active torsions:
REMARK  status: ('A' for Active; 'I' for Inactive)
REMARK    1  A    between atoms: C_1  and  C_3
REMARK    2  A    between atoms: C_1  and  C_5
REMARK    3  A    between atoms: C_5  and  O_6
REMARK                            x       y       z     vdW  Elec       q    Type
REMARK                         _______ _______ _______ _____ _____    ______ ____
ROOT
ATOM      1  C   UNL     1      33.429 -21.375 -19.547  0.00  0.00    +0.065 C 
ENDROOT
BRANCH   1   3
ATOM      2 BR   UNL     1      36.264 -21.055 -19.837  0.00  0.00    -0.054 Br
ATOM      3  C   UNL     1      34.500 -20.571 -20.239  0.00  0.00    +0.015 C 
ATOM      4  C   UNL     1      34.230 -19.542 -21.053  0.00  0.00    +0.003 C 
ENDBRANCH   1   3
BRANCH   1   5
ATOM      5  C   UNL     1      33.986 -22.538 -18.727  0.00  0.00    +0.142 C 
BRANCH   5   6
ATOM      6  O   UNL     1      33.917 -23.737 -19.488  0.00  0.00    -0.382 OA
ATOM      7  H   UNL     1      33.532 -24.442 -18.945  0.00  0.00    +0.210 HD
ENDBRANCH   5   6
ENDBRANCH   1   5
TORSDOF 3
ENDMDL
MODEL 4
REMARK VINA RESULT:      -3.8      2.614      3.367
REMARK  Name = 533975
REMARK  3 active torsions:
REMARK  status: ('A' for Active; 'I' for Inactive)
REMARK    1  A    between atoms: C_1  and  C_3
REMARK    2  A    between atoms: C_1  and  C_5
REMARK    3  A    between atoms: C_5  and  O_6
REMARK                            x       y       z     vdW  Elec       q    Type
REMARK                         _______ _______ _______ _____ _____    ______ ____
ROOT
ATOM      1  C   UNL     1      34.349 -19.890 -20.875  0.00  0.00    +0.065 C 
ENDROOT
BRANCH   1   3
ATOM      2 BR   UNL     1      34.885 -18.961 -23.535  0.00  0.00    -0.054 Br
ATOM      3  C   UNL     1      34.740 -18.683 -21.689  0.00  0.00    +0.015 C 
ATOM      4  C   UNL     1      35.020 -17.492 -21.141  0.00  0.00    +0.003 C 
ENDBRANCH   1   3
BRANCH   1   5
ATOM      5  C   UNL     1      32.842 -19.999 -20.647  0.00  0.00    +0.142 C 
BRANCH   5   6
ATOM      6  O   UNL     1      32.589 -20.755 -19.471  0.00  0.00    -0.382 OA
ATOM      7  H   UNL     1      31.633 -20.792 -19.311  0.00  0.00    +0.210 HD
ENDBRANCH   5   6
ENDBRANCH   1   5
TORSDOF 3
ENDMDL
MODEL 5
REMARK VINA RESULT:      -3.8      1.904      2.391
REMARK  Name = 533975
REMARK  3 active torsions:
REMARK  status: ('A' for Active; 'I' for Inactive)
REMARK    1  A    between atoms: C_1  and  C_3
REMARK    2  A    between atoms: C_1  and  C_5
REMARK    3  A    between atoms: C_5  and  O_6
REMARK                            x       y       z     vdW  Elec       q    Type
REMARK                         _______ _______ _______ _____ _____    ______ ____
ROOT
ATOM      1  C   UNL     1      35.265 -17.879 -21.067  0.00  0.00    +0.065 C 
ENDROOT
BRANCH   1   3
ATOM      2 BR   UNL     1      33.274 -19.927 -20.810  0.00  0.00    -0.054 Br
ATOM      3  C   UNL     1      34.522 -18.956 -21.814  0.00  0.00    +0.015 C 
ATOM      4  C   UNL     1      34.758 -19.250 -23.100  0.00  0.00    +0.003 C 
ENDBRANCH   1   3
BRANCH   1   5
ATOM      5  C   UNL     1      34.775 -16.470 -21.397  0.00  0.00    +0.142 C 
BRANCH   5   6
ATOM      6  O   UNL     1      34.907 -15.636 -20.253  0.00  0.00    -0.382 OA
ATOM      7  H   UNL     1      35.619 -14.996 -20.401  0.00  0.00    +0.210 HD
ENDBRANCH   5   6
ENDBRANCH   1   5
TORSDOF 3
ENDMDL
MODEL 6
REMARK VINA RESULT:      -3.7      2.723      3.152
REMARK  Name = 533975
REMARK  3 active torsions:
REMARK  status: ('A' for Active; 'I' for Inactive)
REMARK    1  A    between atoms: C_1  and  C_3
REMARK    2  A    between atoms: C_1  and  C_5
REMARK    3  A    between atoms: C_5  and  O_6
REMARK                            x       y       z     vdW  Elec       q    Type
REMARK                         _______ _______ _______ _____ _____    ______ ____
ROOT
ATOM      1  C   UNL     1      34.746 -19.093 -23.560  0.00  0.00    +0.065 C 
ENDROOT
BRANCH   1   3
ATOM      2 BR   UNL     1      33.616 -19.739 -21.005  0.00  0.00    -0.054 Br
ATOM      3  C   UNL     1      35.007 -19.087 -22.075  0.00  0.00    +0.015 C 
ATOM      4  C   UNL     1      36.134 -18.605 -21.533  0.00  0.00    +0.003 C 
ENDBRANCH   1   3
BRANCH   1   5
ATOM      5  C   UNL     1      34.995 -17.737 -24.219  0.00  0.00    +0.142 C 
BRANCH   5   6
ATOM      6  O   UNL     1      34.547 -17.771 -25.568  0.00  0.00    -0.382 OA
ATOM      7  H   UNL     1      34.809 -18.611 -25.974  0.00  0.00    +0.210 HD
ENDBRANCH   5   6
ENDBRANCH   1   5
TORSDOF 3
ENDMDL
MODEL 7
REMARK VINA RESULT:      -3.7      8.024      8.778
REMARK  Name = 533975
REMARK  3 active torsions:
REMARK  status: ('A' for Active; 'I' for Inactive)
REMARK    1  A    between atoms: C_1  and  C_3
REMARK    2  A    between atoms: C_1  and  C_5
REMARK    3  A    between atoms: C_5  and  O_6
REMARK                            x       y       z     vdW  Elec       q    Type
REMARK                         _______ _______ _______ _____ _____    ______ ____
ROOT
ATOM      1  C   UNL     1      28.536 -22.742 -15.723  0.00  0.00    +0.065 C 
ENDROOT
BRANCH   1   3
ATOM      2 BR   UNL     1      29.857 -25.149 -14.895  0.00  0.00    -0.054 Br
ATOM      3  C   UNL     1      29.848 -23.484 -15.752  0.00  0.00    +0.015 C 
ATOM      4  C   UNL     1      30.960 -22.980 -16.306  0.00  0.00    +0.003 C 
ENDBRANCH   1   3
BRANCH   1   5
ATOM      5  C   UNL     1      27.844 -22.690 -17.084  0.00  0.00    +0.142 C 
BRANCH   5   6
ATOM      6  O   UNL     1      27.655 -24.010 -17.576  0.00  0.00    -0.382 OA
ATOM      7  H   UNL     1      26.715 -24.151 -17.768  0.00  0.00    +0.210 HD
ENDBRANCH   5   6
ENDBRANCH   1   5
TORSDOF 3
ENDMDL
MODEL 8
REMARK VINA RESULT:      -3.7      2.378      2.850
REMARK  Name = 533975
REMARK  3 active torsions:
REMARK  status: ('A' for Active; 'I' for Inactive)
REMARK    1  A    between atoms: C_1  and  C_3
REMARK    2  A    between atoms: C_1  and  C_5
REMARK    3  A    between atoms: C_5  and  O_6
REMARK                            x       y       z     vdW  Elec       q    Type
REMARK                         _______ _______ _______ _____ _____    ______ ____
ROOT
ATOM      1  C   UNL     1      35.969 -19.744 -20.597  0.00  0.00    +0.065 C 
ENDROOT
BRANCH   1   3
ATOM      2 BR   UNL     1      33.153 -20.269 -20.457  0.00  0.00    -0.054 Br
ATOM      3  C   UNL     1      34.675 -19.669 -21.367  0.00  0.00    +0.015 C 
ATOM      4  C   UNL     1      34.605 -19.250 -22.638  0.00  0.00    +0.003 C 
ENDBRANCH   1   3
BRANCH   1   5
ATOM      5  C   UNL     1      36.211 -21.112 -19.962  0.00  0.00    +0.142 C 
BRANCH   5   6
ATOM      6  O   UNL     1      36.563 -20.950 -18.594  0.00  0.00    -0.382 OA
ATOM      7  H   UNL     1      37.378 -20.431 -18.530  0.00  0.00    +0.210 HD
ENDBRANCH   5   6
ENDBRANCH   1   5
TORSDOF 3
ENDMDL
MODEL 9
REMARK VINA RESULT:      -3.7      8.495      8.767
REMARK  Name = 533975
REMARK  3 active torsions:
REMARK  status: ('A' for Active; 'I' for Inactive)
REMARK    1  A    between atoms: C_1  and  C_3
REMARK    2  A    between atoms: C_1  and  C_5
REMARK    3  A    between atoms: C_5  and  O_6
REMARK                            x       y       z     vdW  Elec       q    Type
REMARK                         _______ _______ _______ _____ _____    ______ ____
ROOT
ATOM      1  C   UNL     1      28.458 -23.972 -16.474  0.00  0.00    +0.065 C 
ENDROOT
BRANCH   1   3
ATOM      2 BR   UNL     1      31.182 -23.154 -16.108  0.00  0.00    -0.054 Br
ATOM      3  C   UNL     1      29.741 -24.297 -15.753  0.00  0.00    +0.015 C 
ATOM      4  C   UNL     1      29.878 -25.359 -14.947  0.00  0.00    +0.003 C 
ENDBRANCH   1   3
BRANCH   1   5
ATOM      5  C   UNL     1      27.794 -22.691 -15.972  0.00  0.00    +0.142 C 
BRANCH   5   6
ATOM      6  O   UNL     1      27.798 -21.713 -17.003  0.00  0.00    -0.382 OA
ATOM      7  H   UNL     1      28.664 -21.277 -17.031  0.00  0.00    +0.210 HD
ENDBRANCH   5   6
ENDBRANCH   1   5
TORSDOF 3
ENDMDL
