MODEL 1
REMARK VINA RESULT:     -10.6      0.000      0.000
REMARK  Name = 9543495
REMARK  6 active torsions:
REMARK  status: ('A' for Active; 'I' for Inactive)
REMARK    1  A    between atoms: C_2  and  N_17
REMARK    2  A    between atoms: C_3  and  C_7
REMARK    3  A    between atoms: C_5  and  C_14
REMARK    4  A    between atoms: C_14  and  O_15
REMARK    5  A    between atoms: N_17  and  S_19
REMARK    6  A    between atoms: S_19  and  C_22
REMARK                            x       y       z     vdW  Elec       q    Type
REMARK                         _______ _______ _______ _____ _____    ______ ____
ROOT
ATOM      1  S   UNL     1      33.206 -13.904 -23.933  0.00  0.00    -0.079 S 
ATOM      2  C   UNL     1      33.611 -16.102 -22.666  0.00  0.00    +0.078 C 
ATOM      3  C   UNL     1      32.854 -13.942 -22.257  0.00  0.00    +0.031 C 
ATOM      4  C   UNL     1      33.114 -15.177 -21.703  0.00  0.00    +0.023 C 
ATOM      5  C   UNL     1      33.710 -15.541 -23.921  0.00  0.00    +0.119 C 
ENDROOT
BRANCH   3   7
ATOM      6  F   UNL     1      30.898  -9.337 -19.807  0.00  0.00    -0.204 F 
ATOM      7  C   UNL     1      32.347 -12.749 -21.623  0.00  0.00    +0.006 C 
ATOM      8  C   UNL     1      32.135 -12.729 -20.244  0.00  0.00    +0.003 C 
ATOM      9  C   UNL     1      32.069 -11.617 -22.388  0.00  0.00    +0.003 C 
ATOM     10  C   UNL     1      31.646 -11.576 -19.631  0.00  0.00    +0.030 C 
ATOM     11  C   UNL     1      31.579 -10.464 -21.774  0.00  0.00    +0.030 C 
ATOM     12  C   UNL     1      31.367 -10.443 -20.396  0.00  0.00    +0.140 C 
ENDBRANCH   3   7
BRANCH   5  14
ATOM     13  O   UNL     1      33.624 -16.002 -26.267  0.00  0.00    -0.244 OA
ATOM     14  C   UNL     1      34.157 -16.129 -25.142  0.00  0.00    +0.345 C 
BRANCH  14  15
ATOM     15  O   UNL     1      35.285 -16.895 -24.999  0.00  0.00    -0.477 OA
ATOM     16  H   UNL     1      35.249 -17.817 -25.161  0.00  0.00    +0.295 HD
ENDBRANCH  14  15
ENDBRANCH   5  14
BRANCH   2  17
ATOM     17  N   UNL     1      33.949 -17.428 -22.340  0.00  0.00    -0.214 N 
ATOM     18  H   UNL     1      33.311 -18.136 -22.587  0.00  0.00    +0.174 HD
BRANCH  17  19
ATOM     19  S   UNL     1      35.387 -17.897 -21.548  0.00  0.00    +0.074 S 
ATOM     20  O   UNL     1      35.693 -16.948 -20.495  0.00  0.00    -0.150 OA
ATOM     21  O   UNL     1      36.392 -18.250 -22.534  0.00  0.00    -0.150 OA
BRANCH  19  22
ATOM     22  C   UNL     1      34.864 -19.397 -20.771  0.00  0.00    +0.125 C 
ATOM     23  C   UNL     1      33.511 -19.669 -20.671  0.00  0.00    +0.020 C 
ATOM     24  C   UNL     1      35.818 -20.270 -20.280  0.00  0.00    +0.020 C 
ATOM     25  C   UNL     1      34.047 -21.744 -19.557  0.00  0.00    -0.022 C 
ATOM     26  C   UNL     1      33.100 -20.853 -20.058  0.00  0.00    -0.003 C 
ATOM     27  C   UNL     1      35.407 -21.453 -19.667  0.00  0.00    -0.003 C 
ATOM     28  C   UNL     1      33.607 -23.011 -18.903  0.00  0.00    +0.031 C 
ENDBRANCH  19  22
ENDBRANCH  17  19
ENDBRANCH   2  17
TORSDOF 6
ENDMDL
MODEL 2
REMARK VINA RESULT:     -10.3      2.285      2.852
REMARK  Name = 9543495
REMARK  6 active torsions:
REMARK  status: ('A' for Active; 'I' for Inactive)
REMARK    1  A    between atoms: C_2  and  N_17
REMARK    2  A    between atoms: C_3  and  C_7
REMARK    3  A    between atoms: C_5  and  C_14
REMARK    4  A    between atoms: C_14  and  O_15
REMARK    5  A    between atoms: N_17  and  S_19
REMARK    6  A    between atoms: S_19  and  C_22
REMARK                            x       y       z     vdW  Elec       q    Type
REMARK                         _______ _______ _______ _____ _____    ______ ____
ROOT
ATOM      1  S   UNL     1      33.372 -13.065 -25.579  0.00  0.00    -0.079 S 
ATOM      2  C   UNL     1      33.947 -14.704 -23.686  0.00  0.00    +0.078 C 
ATOM      3  C   UNL     1      33.730 -12.415 -24.035  0.00  0.00    +0.031 C 
ATOM      4  C   UNL     1      34.020 -13.401 -23.116  0.00  0.00    +0.023 C 
ATOM      5  C   UNL     1      33.604 -14.667 -25.020  0.00  0.00    +0.119 C 
ENDROOT
BRANCH   3   7
ATOM      6  F   UNL     1      33.600  -6.890 -23.339  0.00  0.00    -0.204 F 
ATOM      7  C   UNL     1      33.696 -10.984 -23.855  0.00  0.00    +0.006 C 
ATOM      8  C   UNL     1      32.635 -10.393 -23.171  0.00  0.00    +0.003 C 
ATOM      9  C   UNL     1      34.725 -10.193 -24.365  0.00  0.00    +0.003 C 
ATOM     10  C   UNL     1      32.601  -9.009 -22.997  0.00  0.00    +0.030 C 
ATOM     11  C   UNL     1      34.692  -8.810 -24.190  0.00  0.00    +0.030 C 
ATOM     12  C   UNL     1      33.631  -8.217 -23.506  0.00  0.00    +0.140 C 
ENDBRANCH   3   7
BRANCH   5  14
ATOM     13  O   UNL     1      32.480 -15.892 -26.741  0.00  0.00    -0.244 OA
ATOM     14  C   UNL     1      33.429 -15.746 -25.939  0.00  0.00    +0.345 C 
BRANCH  14  15
ATOM     15  O   UNL     1      34.434 -16.677 -25.887  0.00  0.00    -0.477 OA
ATOM     16  H   UNL     1      35.124 -16.657 -26.521  0.00  0.00    +0.295 HD
ENDBRANCH  14  15
ENDBRANCH   5  14
BRANCH   2  17
ATOM     17  N   UNL     1      34.202 -15.872 -22.945  0.00  0.00    -0.214 N 
ATOM     18  H   UNL     1      34.590 -16.641 -23.421  0.00  0.00    +0.174 HD
BRANCH  17  19
ATOM     19  S   UNL     1      33.886 -16.051 -21.276  0.00  0.00    +0.074 S 
ATOM     20  O   UNL     1      32.455 -16.005 -21.045  0.00  0.00    -0.150 OA
ATOM     21  O   UNL     1      34.781 -15.197 -20.517  0.00  0.00    -0.150 OA
BRANCH  19  22
ATOM     22  C   UNL     1      34.408 -17.721 -21.016  0.00  0.00    +0.125 C 
ATOM     23  C   UNL     1      33.454 -18.699 -20.797  0.00  0.00    +0.020 C 
ATOM     24  C   UNL     1      35.758 -18.016 -21.039  0.00  0.00    +0.020 C 
ATOM     25  C   UNL     1      35.224 -20.333 -20.612  0.00  0.00    -0.022 C 
ATOM     26  C   UNL     1      33.866 -20.016 -20.592  0.00  0.00    -0.003 C 
ATOM     27  C   UNL     1      36.170 -19.333 -20.834  0.00  0.00    -0.003 C 
ATOM     28  C   UNL     1      35.664 -21.741 -20.394  0.00  0.00    +0.031 C 
ENDBRANCH  19  22
ENDBRANCH  17  19
ENDBRANCH   2  17
TORSDOF 6
ENDMDL
MODEL 3
REMARK VINA RESULT:     -10.0      8.492     10.675
REMARK  Name = 9543495
REMARK  6 active torsions:
REMARK  status: ('A' for Active; 'I' for Inactive)
REMARK    1  A    between atoms: C_2  and  N_17
REMARK    2  A    between atoms: C_3  and  C_7
REMARK    3  A    between atoms: C_5  and  C_14
REMARK    4  A    between atoms: C_14  and  O_15
REMARK    5  A    between atoms: N_17  and  S_19
REMARK    6  A    between atoms: S_19  and  C_22
REMARK                            x       y       z     vdW  Elec       q    Type
REMARK                         _______ _______ _______ _____ _____    ______ ____
ROOT
ATOM      1  S   UNL     1      36.186 -22.605 -15.883  0.00  0.00    -0.079 S 
ATOM      2  C   UNL     1      34.150 -24.047 -15.270  0.00  0.00    +0.078 C 
ATOM      3  C   UNL     1      34.901 -22.701 -17.012  0.00  0.00    +0.031 C 
ATOM      4  C   UNL     1      33.877 -23.505 -16.559  0.00  0.00    +0.023 C 
ATOM      5  C   UNL     1      35.373 -23.639 -14.786  0.00  0.00    +0.119 C 
ENDROOT
BRANCH   3   7
ATOM      6  F   UNL     1      35.312 -19.899 -21.809  0.00  0.00    -0.204 F 
ATOM      7  C   UNL     1      35.007 -21.976 -18.254  0.00  0.00    +0.006 C 
ATOM      8  C   UNL     1      36.253 -21.531 -18.697  0.00  0.00    +0.003 C 
ATOM      9  C   UNL     1      33.865 -21.719 -19.011  0.00  0.00    +0.003 C 
ATOM     10  C   UNL     1      36.356 -20.829 -19.898  0.00  0.00    +0.030 C 
ATOM     11  C   UNL     1      33.968 -21.017 -20.212  0.00  0.00    +0.030 C 
ATOM     12  C   UNL     1      35.213 -20.572 -20.656  0.00  0.00    +0.140 C 
ENDBRANCH   3   7
BRANCH   5  14
ATOM     13  O   UNL     1      37.063 -24.615 -13.400  0.00  0.00    -0.244 OA
ATOM     14  C   UNL     1      36.008 -23.958 -13.547  0.00  0.00    +0.345 C 
BRANCH  14  15
ATOM     15  O   UNL     1      35.345 -23.468 -12.451  0.00  0.00    -0.477 OA
ATOM     16  H   UNL     1      35.023 -24.056 -11.797  0.00  0.00    +0.295 HD
ENDBRANCH  14  15
ENDBRANCH   5  14
BRANCH   2  17
ATOM     17  N   UNL     1      33.253 -24.898 -14.600  0.00  0.00    -0.214 N 
ATOM     18  H   UNL     1      33.347 -25.868 -14.746  0.00  0.00    +0.174 HD
BRANCH  17  19
ATOM     19  S   UNL     1      32.013 -24.371 -13.551  0.00  0.00    +0.074 S 
ATOM     20  O   UNL     1      32.413 -23.133 -12.910  0.00  0.00    -0.150 OA
ATOM     21  O   UNL     1      31.539 -25.489 -12.757  0.00  0.00    -0.150 OA
BRANCH  19  22
ATOM     22  C   UNL     1      30.740 -23.975 -14.713  0.00  0.00    +0.125 C 
ATOM     23  C   UNL     1      30.646 -22.682 -15.196  0.00  0.00    +0.020 C 
ATOM     24  C   UNL     1      29.865 -24.967 -15.117  0.00  0.00    +0.020 C 
ATOM     25  C   UNL     1      28.750 -23.357 -16.532  0.00  0.00    -0.022 C 
ATOM     26  C   UNL     1      29.641 -22.370 -16.113  0.00  0.00    -0.003 C 
ATOM     27  C   UNL     1      28.861 -24.655 -16.033  0.00  0.00    -0.003 C 
ATOM     28  C   UNL     1      27.677 -23.024 -17.513  0.00  0.00    +0.031 C 
ENDBRANCH  19  22
ENDBRANCH  17  19
ENDBRANCH   2  17
TORSDOF 6
ENDMDL
MODEL 4
REMARK VINA RESULT:      -9.9      5.657     10.646
REMARK  Name = 9543495
REMARK  6 active torsions:
REMARK  status: ('A' for Active; 'I' for Inactive)
REMARK    1  A    between atoms: C_2  and  N_17
REMARK    2  A    between atoms: C_3  and  C_7
REMARK    3  A    between atoms: C_5  and  C_14
REMARK    4  A    between atoms: C_14  and  O_15
REMARK    5  A    between atoms: N_17  and  S_19
REMARK    6  A    between atoms: S_19  and  C_22
REMARK                            x       y       z     vdW  Elec       q    Type
REMARK                         _______ _______ _______ _____ _____    ______ ____
ROOT
ATOM      1  S   UNL     1      32.275 -12.863 -21.976  0.00  0.00    -0.079 S 
ATOM      2  C   UNL     1      32.618 -10.616 -23.173  0.00  0.00    +0.078 C 
ATOM      3  C   UNL     1      33.107 -12.870 -23.473  0.00  0.00    +0.031 C 
ATOM      4  C   UNL     1      33.220 -11.604 -24.005  0.00  0.00    +0.023 C 
ATOM      5  C   UNL     1      32.066 -11.164 -22.036  0.00  0.00    +0.119 C 
ENDROOT
BRANCH   3   7
ATOM      6  F   UNL     1      34.935 -17.718 -25.521  0.00  0.00    -0.204 F 
ATOM      7  C   UNL     1      33.580 -14.125 -24.004  0.00  0.00    +0.006 C 
ATOM      8  C   UNL     1      33.164 -14.551 -25.265  0.00  0.00    +0.003 C 
ATOM      9  C   UNL     1      34.453 -14.913 -23.254  0.00  0.00    +0.003 C 
ATOM     10  C   UNL     1      33.621 -15.764 -25.778  0.00  0.00    +0.030 C 
ATOM     11  C   UNL     1      34.911 -16.127 -23.768  0.00  0.00    +0.030 C 
ATOM     12  C   UNL     1      34.495 -16.553 -25.029  0.00  0.00    +0.140 C 
ENDBRANCH   3   7
BRANCH   5  14
ATOM     13  O   UNL     1      30.363 -10.945 -20.370  0.00  0.00    -0.244 OA
ATOM     14  C   UNL     1      31.379 -10.520 -20.963  0.00  0.00    +0.345 C 
BRANCH  14  15
ATOM     15  O   UNL     1      31.939  -9.323 -20.596  0.00  0.00    -0.477 OA
ATOM     16  H   UNL     1      32.680  -8.991 -21.061  0.00  0.00    +0.295 HD
ENDBRANCH  14  15
ENDBRANCH   5  14
BRANCH   2  17
ATOM     17  N   UNL     1      32.607  -9.250 -23.505  0.00  0.00    -0.214 N 
ATOM     18  H   UNL     1      31.793  -8.888 -23.925  0.00  0.00    +0.174 HD
BRANCH  17  19
ATOM     19  S   UNL     1      33.903  -8.172 -23.230  0.00  0.00    +0.074 S 
ATOM     20  O   UNL     1      35.131  -8.750 -23.741  0.00  0.00    -0.150 OA
ATOM     21  O   UNL     1      33.837  -7.668 -21.871  0.00  0.00    -0.150 OA
BRANCH  19  22
ATOM     22  C   UNL     1      33.460  -6.839 -24.306  0.00  0.00    +0.125 C 
ATOM     23  C   UNL     1      32.241  -6.209 -24.132  0.00  0.00    +0.020 C 
ATOM     24  C   UNL     1      34.342  -6.453 -25.299  0.00  0.00    +0.020 C 
ATOM     25  C   UNL     1      32.768  -4.755 -25.987  0.00  0.00    -0.022 C 
ATOM     26  C   UNL     1      31.892  -5.158 -24.981  0.00  0.00    -0.003 C 
ATOM     27  C   UNL     1      33.993  -5.403 -26.147  0.00  0.00    -0.003 C 
ATOM     28  C   UNL     1      32.396  -3.630 -26.894  0.00  0.00    +0.031 C 
ENDBRANCH  19  22
ENDBRANCH  17  19
ENDBRANCH   2  17
TORSDOF 6
ENDMDL
MODEL 5
REMARK VINA RESULT:      -9.4      7.457     12.005
REMARK  Name = 9543495
REMARK  6 active torsions:
REMARK  status: ('A' for Active; 'I' for Inactive)
REMARK    1  A    between atoms: C_2  and  N_17
REMARK    2  A    between atoms: C_3  and  C_7
REMARK    3  A    between atoms: C_5  and  C_14
REMARK    4  A    between atoms: C_14  and  O_15
REMARK    5  A    between atoms: N_17  and  S_19
REMARK    6  A    between atoms: S_19  and  C_22
REMARK                            x       y       z     vdW  Elec       q    Type
REMARK                         _______ _______ _______ _____ _____    ______ ____
ROOT
ATOM      1  S   UNL     1      35.179 -24.628 -13.831  0.00  0.00    -0.079 S 
ATOM      2  C   UNL     1      34.764 -23.058 -15.822  0.00  0.00    +0.078 C 
ATOM      3  C   UNL     1      36.503 -24.261 -14.855  0.00  0.00    +0.031 C 
ATOM      4  C   UNL     1      36.143 -23.412 -15.879  0.00  0.00    +0.023 C 
ATOM      5  C   UNL     1      34.121 -23.650 -14.757  0.00  0.00    +0.119 C 
ENDROOT
BRANCH   3   7
ATOM      6  F   UNL     1      41.478 -26.502 -13.734  0.00  0.00    -0.204 F 
ATOM      7  C   UNL     1      37.791 -24.842 -14.565  0.00  0.00    +0.006 C 
ATOM      8  C   UNL     1      37.980 -25.568 -13.389  0.00  0.00    +0.003 C 
ATOM      9  C   UNL     1      38.848 -24.675 -15.459  0.00  0.00    +0.003 C 
ATOM     10  C   UNL     1      39.225 -26.130 -13.108  0.00  0.00    +0.030 C 
ATOM     11  C   UNL     1      40.094 -25.236 -15.178  0.00  0.00    +0.030 C 
ATOM     12  C   UNL     1      40.283 -25.963 -14.003  0.00  0.00    +0.140 C 
ENDBRANCH   3   7
BRANCH   5  14
ATOM     13  O   UNL     1      31.752 -23.789 -15.068  0.00  0.00    -0.244 OA
ATOM     14  C   UNL     1      32.753 -23.550 -14.357  0.00  0.00    +0.345 C 
BRANCH  14  15
ATOM     15  O   UNL     1      32.593 -23.148 -13.056  0.00  0.00    -0.477 OA
ATOM     16  H   UNL     1      33.331 -23.118 -12.481  0.00  0.00    +0.295 HD
ENDBRANCH  14  15
ENDBRANCH   5  14
BRANCH   2  17
ATOM     17  N   UNL     1      34.161 -22.201 -16.761  0.00  0.00    -0.214 N 
ATOM     18  H   UNL     1      34.232 -21.231 -16.607  0.00  0.00    +0.174 HD
BRANCH  17  19
ATOM     19  S   UNL     1      33.317 -22.724 -18.151  0.00  0.00    +0.074 S 
ATOM     20  O   UNL     1      31.896 -22.503 -17.967  0.00  0.00    -0.150 OA
ATOM     21  O   UNL     1      33.812 -24.025 -18.560  0.00  0.00    -0.150 OA
BRANCH  19  22
ATOM     22  C   UNL     1      33.884 -21.547 -19.345  0.00  0.00    +0.125 C 
ATOM     23  C   UNL     1      32.959 -20.755 -20.002  0.00  0.00    +0.020 C 
ATOM     24  C   UNL     1      35.239 -21.443 -19.597  0.00  0.00    +0.020 C 
ATOM     25  C   UNL     1      34.769 -19.708 -21.211  0.00  0.00    -0.022 C 
ATOM     26  C   UNL     1      33.406 -19.827 -20.944  0.00  0.00    -0.003 C 
ATOM     27  C   UNL     1      35.686 -20.516 -20.539  0.00  0.00    -0.003 C 
ATOM     28  C   UNL     1      35.247 -18.715 -22.217  0.00  0.00    +0.031 C 
ENDBRANCH  19  22
ENDBRANCH  17  19
ENDBRANCH   2  17
TORSDOF 6
ENDMDL
MODEL 6
REMARK VINA RESULT:      -9.4      5.587     10.661
REMARK  Name = 9543495
REMARK  6 active torsions:
REMARK  status: ('A' for Active; 'I' for Inactive)
REMARK    1  A    between atoms: C_2  and  N_17
REMARK    2  A    between atoms: C_3  and  C_7
REMARK    3  A    between atoms: C_5  and  C_14
REMARK    4  A    between atoms: C_14  and  O_15
REMARK    5  A    between atoms: N_17  and  S_19
REMARK    6  A    between atoms: S_19  and  C_22
REMARK                            x       y       z     vdW  Elec       q    Type
REMARK                         _______ _______ _______ _____ _____    ______ ____
ROOT
ATOM      1  S   UNL     1      32.417 -12.829 -21.738  0.00  0.00    -0.079 S 
ATOM      2  C   UNL     1      32.647 -10.632 -23.050  0.00  0.00    +0.078 C 
ATOM      3  C   UNL     1      33.185 -12.884 -23.268  0.00  0.00    +0.031 C 
ATOM      4  C   UNL     1      33.242 -11.641 -23.862  0.00  0.00    +0.023 C 
ATOM      5  C   UNL     1      32.158 -11.140 -21.867  0.00  0.00    +0.119 C 
ENDROOT
BRANCH   3   7
ATOM      6  F   UNL     1      35.062 -17.773 -25.167  0.00  0.00    -0.204 F 
ATOM      7  C   UNL     1      33.671 -14.150 -23.760  0.00  0.00    +0.006 C 
ATOM      8  C   UNL     1      34.546 -14.910 -22.984  0.00  0.00    +0.003 C 
ATOM      9  C   UNL     1      33.266 -14.613 -25.011  0.00  0.00    +0.003 C 
ATOM     10  C   UNL     1      35.016 -16.134 -23.459  0.00  0.00    +0.030 C 
ATOM     11  C   UNL     1      33.736 -15.838 -25.486  0.00  0.00    +0.030 C 
ATOM     12  C   UNL     1      34.611 -16.598 -24.711  0.00  0.00    +0.140 C 
ENDBRANCH   3   7
BRANCH   5  14
ATOM     13  O   UNL     1      30.486 -10.863 -20.178  0.00  0.00    -0.244 OA
ATOM     14  C   UNL     1      31.499 -10.464 -20.796  0.00  0.00    +0.345 C 
BRANCH  14  15
ATOM     15  O   UNL     1      32.082  -9.269 -20.462  0.00  0.00    -0.477 OA
ATOM     16  H   UNL     1      31.641  -8.678 -19.885  0.00  0.00    +0.295 HD
ENDBRANCH  14  15
ENDBRANCH   5  14
BRANCH   2  17
ATOM     17  N   UNL     1      32.584  -9.283 -23.443  0.00  0.00    -0.214 N 
ATOM     18  H   UNL     1      31.775  -8.983 -23.917  0.00  0.00    +0.174 HD
BRANCH  17  19
ATOM     19  S   UNL     1      33.809  -8.129 -23.157  0.00  0.00    +0.074 S 
ATOM     20  O   UNL     1      35.009  -8.505 -23.879  0.00  0.00    -0.150 OA
ATOM     21  O   UNL     1      33.869  -7.825 -21.739  0.00  0.00    -0.150 OA
BRANCH  19  22
ATOM     22  C   UNL     1      33.128  -6.712 -23.969  0.00  0.00    +0.125 C 
ATOM     23  C   UNL     1      33.675  -6.295 -25.169  0.00  0.00    +0.020 C 
ATOM     24  C   UNL     1      32.061  -6.051 -23.388  0.00  0.00    +0.020 C 
ATOM     25  C   UNL     1      32.062  -4.499 -25.239  0.00  0.00    -0.022 C 
ATOM     26  C   UNL     1      33.137  -5.178 -25.809  0.00  0.00    -0.003 C 
ATOM     27  C   UNL     1      31.524  -4.934 -24.028  0.00  0.00    -0.003 C 
ATOM     28  C   UNL     1      31.486  -3.305 -25.924  0.00  0.00    +0.031 C 
ENDBRANCH  19  22
ENDBRANCH  17  19
ENDBRANCH   2  17
TORSDOF 6
ENDMDL
MODEL 7
REMARK VINA RESULT:      -9.3      6.689     11.403
REMARK  Name = 9543495
REMARK  6 active torsions:
REMARK  status: ('A' for Active; 'I' for Inactive)
REMARK    1  A    between atoms: C_2  and  N_17
REMARK    2  A    between atoms: C_3  and  C_7
REMARK    3  A    between atoms: C_5  and  C_14
REMARK    4  A    between atoms: C_14  and  O_15
REMARK    5  A    between atoms: N_17  and  S_19
REMARK    6  A    between atoms: S_19  and  C_22
REMARK                            x       y       z     vdW  Elec       q    Type
REMARK                         _______ _______ _______ _____ _____    ______ ____
ROOT
ATOM      1  S   UNL     1      32.618 -24.006 -14.446  0.00  0.00    -0.079 S 
ATOM      2  C   UNL     1      33.225 -23.079 -16.764  0.00  0.00    +0.078 C 
ATOM      3  C   UNL     1      34.260 -24.068 -14.932  0.00  0.00    +0.031 C 
ATOM      4  C   UNL     1      34.445 -23.540 -16.191  0.00  0.00    +0.023 C 
ATOM      5  C   UNL     1      32.152 -23.272 -15.922  0.00  0.00    +0.119 C 
ENDROOT
BRANCH   3   7
ATOM      6  F   UNL     1      38.021 -26.249 -11.449  0.00  0.00    -0.204 F 
ATOM      7  C   UNL     1      35.234 -24.632 -14.030  0.00  0.00    +0.006 C 
ATOM      8  C   UNL     1      36.219 -25.490 -14.517  0.00  0.00    +0.003 C 
ATOM      9  C   UNL     1      35.189 -24.321 -12.671  0.00  0.00    +0.003 C 
ATOM     10  C   UNL     1      37.162 -26.037 -13.645  0.00  0.00    +0.030 C 
ATOM     11  C   UNL     1      36.131 -24.867 -11.799  0.00  0.00    +0.030 C 
ATOM     12  C   UNL     1      37.117 -25.725 -12.286  0.00  0.00    +0.140 C 
ENDBRANCH   3   7
BRANCH   5  14
ATOM     13  O   UNL     1      30.279 -22.404 -17.133  0.00  0.00    -0.244 OA
ATOM     14  C   UNL     1      30.775 -22.951 -16.123  0.00  0.00    +0.345 C 
BRANCH  14  15
ATOM     15  O   UNL     1      29.973 -23.301 -15.068  0.00  0.00    -0.477 OA
ATOM     16  H   UNL     1      30.355 -23.520 -14.241  0.00  0.00    +0.295 HD
ENDBRANCH  14  15
ENDBRANCH   5  14
BRANCH   2  17
ATOM     17  N   UNL     1      33.159 -22.500 -18.045  0.00  0.00    -0.214 N 
ATOM     18  H   UNL     1      32.339 -22.011 -18.284  0.00  0.00    +0.174 HD
BRANCH  17  19
ATOM     19  S   UNL     1      34.400 -22.585 -19.214  0.00  0.00    +0.074 S 
ATOM     20  O   UNL     1      34.064 -23.587 -20.207  0.00  0.00    -0.150 OA
ATOM     21  O   UNL     1      35.692 -22.611 -18.552  0.00  0.00    -0.150 OA
BRANCH  19  22
ATOM     22  C   UNL     1      34.238 -21.002 -19.987  0.00  0.00    +0.125 C 
ATOM     23  C   UNL     1      35.376 -20.342 -20.417  0.00  0.00    +0.020 C 
ATOM     24  C   UNL     1      32.978 -20.456 -20.145  0.00  0.00    +0.020 C 
ATOM     25  C   UNL     1      33.984 -18.527 -21.196  0.00  0.00    -0.022 C 
ATOM     26  C   UNL     1      35.247 -19.094 -21.027  0.00  0.00    -0.003 C 
ATOM     27  C   UNL     1      32.849 -19.208 -20.754  0.00  0.00    -0.003 C 
ATOM     28  C   UNL     1      33.847 -17.193 -21.848  0.00  0.00    +0.031 C 
ENDBRANCH  19  22
ENDBRANCH  17  19
ENDBRANCH   2  17
TORSDOF 6
ENDMDL
MODEL 8
REMARK VINA RESULT:      -9.2      7.840     10.222
REMARK  Name = 9543495
REMARK  6 active torsions:
REMARK  status: ('A' for Active; 'I' for Inactive)
REMARK    1  A    between atoms: C_2  and  N_17
REMARK    2  A    between atoms: C_3  and  C_7
REMARK    3  A    between atoms: C_5  and  C_14
REMARK    4  A    between atoms: C_14  and  O_15
REMARK    5  A    between atoms: N_17  and  S_19
REMARK    6  A    between atoms: S_19  and  C_22
REMARK                            x       y       z     vdW  Elec       q    Type
REMARK                         _______ _______ _______ _____ _____    ______ ____
ROOT
ATOM      1  S   UNL     1      37.033 -22.274 -17.016  0.00  0.00    -0.079 S 
ATOM      2  C   UNL     1      35.436 -23.784 -15.685  0.00  0.00    +0.078 C 
ATOM      3  C   UNL     1      35.411 -22.397 -17.552  0.00  0.00    +0.031 C 
ATOM      4  C   UNL     1      34.666 -23.236 -16.752  0.00  0.00    +0.023 C 
ATOM      5  C   UNL     1      36.741 -23.344 -15.710  0.00  0.00    +0.119 C 
ENDROOT
BRANCH   3   7
ATOM      6  F   UNL     1      33.838 -19.532 -22.063  0.00  0.00    -0.204 F 
ATOM      7  C   UNL     1      35.004 -21.655 -18.720  0.00  0.00    +0.006 C 
ATOM      8  C   UNL     1      33.657 -21.606 -19.080  0.00  0.00    +0.003 C 
ATOM      9  C   UNL     1      35.957 -20.988 -19.490  0.00  0.00    +0.003 C 
ATOM     10  C   UNL     1      33.263 -20.889 -20.209  0.00  0.00    +0.030 C 
ATOM     11  C   UNL     1      35.562 -20.271 -20.619  0.00  0.00    +0.030 C 
ATOM     12  C   UNL     1      34.216 -20.221 -20.979  0.00  0.00    +0.140 C 
ENDBRANCH   3   7
BRANCH   5  14
ATOM     13  O   UNL     1      37.800 -23.582 -13.578  0.00  0.00    -0.244 OA
ATOM     14  C   UNL     1      37.818 -23.657 -14.827  0.00  0.00    +0.345 C 
BRANCH  14  15
ATOM     15  O   UNL     1      38.952 -24.075 -15.474  0.00  0.00    -0.477 OA
ATOM     16  H   UNL     1      38.885 -24.529 -16.291  0.00  0.00    +0.295 HD
ENDBRANCH  14  15
ENDBRANCH   5  14
BRANCH   2  17
ATOM     17  N   UNL     1      34.894 -24.669 -14.736  0.00  0.00    -0.214 N 
ATOM     18  H   UNL     1      35.023 -25.634 -14.885  0.00  0.00    +0.174 HD
BRANCH  17  19
ATOM     19  S   UNL     1      34.031 -24.190 -13.343  0.00  0.00    +0.074 S 
ATOM     20  O   UNL     1      34.447 -22.858 -12.947  0.00  0.00    -0.150 OA
ATOM     21  O   UNL     1      34.022 -25.275 -12.378  0.00  0.00    -0.150 OA
BRANCH  19  22
ATOM     22  C   UNL     1      32.392 -24.057 -13.997  0.00  0.00    +0.125 C 
ATOM     23  C   UNL     1      31.594 -25.186 -14.050  0.00  0.00    +0.020 C 
ATOM     24  C   UNL     1      31.942 -22.828 -14.442  0.00  0.00    +0.020 C 
ATOM     25  C   UNL     1      29.831 -23.849 -15.019  0.00  0.00    -0.022 C 
ATOM     26  C   UNL     1      30.301 -25.080 -14.566  0.00  0.00    -0.003 C 
ATOM     27  C   UNL     1      30.651 -22.723 -14.958  0.00  0.00    -0.003 C 
ATOM     28  C   UNL     1      28.449 -23.736 -15.569  0.00  0.00    +0.031 C 
ENDBRANCH  19  22
ENDBRANCH  17  19
ENDBRANCH   2  17
TORSDOF 6
ENDMDL
MODEL 9
REMARK VINA RESULT:      -9.0      3.700      5.761
REMARK  Name = 9543495
REMARK  6 active torsions:
REMARK  status: ('A' for Active; 'I' for Inactive)
REMARK    1  A    between atoms: C_2  and  N_17
REMARK    2  A    between atoms: C_3  and  C_7
REMARK    3  A    between atoms: C_5  and  C_14
REMARK    4  A    between atoms: C_14  and  O_15
REMARK    5  A    between atoms: N_17  and  S_19
REMARK    6  A    between atoms: S_19  and  C_22
REMARK                            x       y       z     vdW  Elec       q    Type
REMARK                         _______ _______ _______ _____ _____    ______ ____
ROOT
ATOM      1  S   UNL     1      31.601 -10.435 -21.628  0.00  0.00    -0.079 S 
ATOM      2  C   UNL     1      33.167 -11.591 -23.306  0.00  0.00    +0.078 C 
ATOM      3  C   UNL     1      32.277  -9.484 -22.882  0.00  0.00    +0.031 C 
ATOM      4  C   UNL     1      33.095 -10.226 -23.707  0.00  0.00    +0.023 C 
ATOM      5  C   UNL     1      32.402 -11.842 -22.188  0.00  0.00    +0.119 C 
ENDROOT
BRANCH   3   7
ATOM      6  F   UNL     1      30.999  -4.068 -23.147  0.00  0.00    -0.204 F 
ATOM      7  C   UNL     1      31.946  -8.082 -22.950  0.00  0.00    +0.006 C 
ATOM      8  C   UNL     1      31.340  -7.564 -24.094  0.00  0.00    +0.003 C 
ATOM      9  C   UNL     1      32.234  -7.244 -21.873  0.00  0.00    +0.003 C 
ATOM     10  C   UNL     1      31.020  -6.208 -24.161  0.00  0.00    +0.030 C 
ATOM     11  C   UNL     1      31.914  -5.888 -21.940  0.00  0.00    +0.030 C 
ATOM     12  C   UNL     1      31.307  -5.370 -23.084  0.00  0.00    +0.140 C 
ENDBRANCH   3   7
BRANCH   5  14
ATOM     13  O   UNL     1      32.404 -13.260 -20.260  0.00  0.00    -0.244 OA
ATOM     14  C   UNL     1      32.209 -13.068 -21.481  0.00  0.00    +0.345 C 
BRANCH  14  15
ATOM     15  O   UNL     1      31.765 -14.093 -22.276  0.00  0.00    -0.477 OA
ATOM     16  H   UNL     1      30.864 -14.351 -22.248  0.00  0.00    +0.295 HD
ENDBRANCH  14  15
ENDBRANCH   5  14
BRANCH   2  17
ATOM     17  N   UNL     1      33.940 -12.544 -23.993  0.00  0.00    -0.214 N 
ATOM     18  H   UNL     1      34.894 -12.612 -23.761  0.00  0.00    +0.174 HD
BRANCH  17  19
ATOM     19  S   UNL     1      33.341 -13.592 -25.201  0.00  0.00    +0.074 S 
ATOM     20  O   UNL     1      33.969 -13.279 -26.470  0.00  0.00    -0.150 OA
ATOM     21  O   UNL     1      31.896 -13.678 -25.097  0.00  0.00    -0.150 OA
BRANCH  19  22
ATOM     22  C   UNL     1      34.000 -15.140 -24.655  0.00  0.00    +0.125 C 
ATOM     23  C   UNL     1      34.614 -15.212 -23.417  0.00  0.00    +0.020 C 
ATOM     24  C   UNL     1      33.887 -16.247 -25.475  0.00  0.00    +0.020 C 
ATOM     25  C   UNL     1      35.029 -17.561 -23.800  0.00  0.00    -0.022 C 
ATOM     26  C   UNL     1      35.134 -16.434 -22.987  0.00  0.00    -0.003 C 
ATOM     27  C   UNL     1      34.406 -17.468 -25.045  0.00  0.00    -0.003 C 
ATOM     28  C   UNL     1      35.583 -18.867 -23.339  0.00  0.00    +0.031 C 
ENDBRANCH  19  22
ENDBRANCH  17  19
ENDBRANCH   2  17
TORSDOF 6
ENDMDL
