MODEL 1
REMARK VINA RESULT:      -6.0      0.000      0.000
REMARK  Name = 68614
REMARK  9 active torsions:
REMARK  status: ('A' for Active; 'I' for Inactive)
REMARK    1  A    between atoms: C_1  and  O_2
REMARK    2  A    between atoms: C_1  and  C_4
REMARK    3  A    between atoms: C_1  and  C_11
REMARK    4  A    between atoms: C_4  and  C_6
REMARK    5  A    between atoms: C_4  and  O_9
REMARK    6  A    between atoms: C_6  and  C_8
REMARK    7  A    between atoms: C_11  and  O_12
REMARK    8  A    between atoms: C_11  and  C_14
REMARK    9  A    between atoms: C_14  and  O_15
REMARK                            x       y       z     vdW  Elec       q    Type
REMARK                         _______ _______ _______ _____ _____    ______ ____
ROOT
ATOM      1  C   UNL     1      37.222 -25.182 -14.060  0.00  0.00    +0.170 C 
ENDROOT
BRANCH   1   2
ATOM      2  O   UNL     1      35.897 -25.644 -14.310  0.00  0.00    -0.379 OA
ATOM      3  H   UNL     1      35.363 -25.545 -13.508  0.00  0.00    +0.211 HD
ENDBRANCH   1   2
BRANCH   1   4
ATOM      4  C   UNL     1      37.517 -25.345 -12.558  0.00  0.00    +0.180 C 
BRANCH   4   6
ATOM      5  F   UNL     1      37.226 -23.024 -12.452  0.00  0.00    -0.226 F 
ATOM      6  C   UNL     1      37.088 -24.153 -11.696  0.00  0.00    +0.254 C 
BRANCH   6   8
ATOM      7  O   UNL     1      35.338 -25.008 -10.274  0.00  0.00    -0.285 OA
ATOM      8  C   UNL     1      35.670 -24.269 -11.196  0.00  0.00    +0.245 C 
ENDBRANCH   6   8
ENDBRANCH   4   6
BRANCH   4   9
ATOM      9  O   UNL     1      36.868 -26.525 -12.085  0.00  0.00    -0.379 OA
ATOM     10  H   UNL     1      37.529 -27.128 -11.708  0.00  0.00    +0.211 HD
ENDBRANCH   4   9
ENDBRANCH   1   4
BRANCH   1  11
ATOM     11  C   UNL     1      38.226 -25.938 -14.953  0.00  0.00    +0.169 C 
BRANCH  11  12
ATOM     12  O   UNL     1      38.202 -27.325 -14.611  0.00  0.00    -0.379 OA
ATOM     13  H   UNL     1      38.671 -27.460 -13.772  0.00  0.00    +0.211 HD
ENDBRANCH  11  12
BRANCH  11  14
ATOM     14  C   UNL     1      39.657 -25.428 -14.800  0.00  0.00    +0.169 C 
BRANCH  14  15
ATOM     15  O   UNL     1      40.410 -25.828 -15.941  0.00  0.00    -0.379 OA
ATOM     16  H   UNL     1      41.156 -25.220 -16.066  0.00  0.00    +0.211 HD
ENDBRANCH  14  15
ENDBRANCH  11  14
ENDBRANCH   1  11
TORSDOF 9
ENDMDL
MODEL 2
REMARK VINA RESULT:      -5.8      1.696      4.504
REMARK  Name = 68614
REMARK  9 active torsions:
REMARK  status: ('A' for Active; 'I' for Inactive)
REMARK    1  A    between atoms: C_1  and  O_2
REMARK    2  A    between atoms: C_1  and  C_4
REMARK    3  A    between atoms: C_1  and  C_11
REMARK    4  A    between atoms: C_4  and  C_6
REMARK    5  A    between atoms: C_4  and  O_9
REMARK    6  A    between atoms: C_6  and  C_8
REMARK    7  A    between atoms: C_11  and  O_12
REMARK    8  A    between atoms: C_11  and  C_14
REMARK    9  A    between atoms: C_14  and  O_15
REMARK                            x       y       z     vdW  Elec       q    Type
REMARK                         _______ _______ _______ _____ _____    ______ ____
ROOT
ATOM      1  C   UNL     1      37.923 -25.392 -12.550  0.00  0.00    +0.170 C 
ENDROOT
BRANCH   1   2
ATOM      2  O   UNL     1      37.144 -26.309 -11.786  0.00  0.00    -0.379 OA
ATOM      3  H   UNL     1      36.236 -25.978 -11.710  0.00  0.00    +0.211 HD
ENDBRANCH   1   2
BRANCH   1   4
ATOM      4  C   UNL     1      37.814 -25.782 -14.035  0.00  0.00    +0.180 C 
BRANCH   4   6
ATOM      5  F   UNL     1      38.760 -23.981 -15.193  0.00  0.00    -0.226 F 
ATOM      6  C   UNL     1      38.978 -25.298 -14.903  0.00  0.00    +0.254 C 
BRANCH   6   8
ATOM      7  O   UNL     1      40.962 -26.509 -14.261  0.00  0.00    -0.285 OA
ATOM      8  C   UNL     1      40.321 -25.463 -14.235  0.00  0.00    +0.245 C 
ENDBRANCH   6   8
ENDBRANCH   4   6
BRANCH   4   9
ATOM      9  O   UNL     1      37.713 -27.203 -14.133  0.00  0.00    -0.379 OA
ATOM     10  H   UNL     1      36.881 -27.497 -13.731  0.00  0.00    +0.211 HD
ENDBRANCH   4   9
ENDBRANCH   1   4
BRANCH   1  11
ATOM     11  C   UNL     1      37.463 -23.947 -12.275  0.00  0.00    +0.169 C 
BRANCH  11  12
ATOM     12  O   UNL     1      38.504 -23.249 -11.588  0.00  0.00    -0.379 OA
ATOM     13  H   UNL     1      38.731 -23.727 -10.775  0.00  0.00    +0.211 HD
ENDBRANCH  11  12
BRANCH  11  14
ATOM     14  C   UNL     1      36.195 -23.879 -11.426  0.00  0.00    +0.169 C 
BRANCH  14  15
ATOM     15  O   UNL     1      36.561 -23.943 -10.051  0.00  0.00    -0.379 OA
ATOM     16  H   UNL     1      37.188 -24.671  -9.917  0.00  0.00    +0.211 HD
ENDBRANCH  14  15
ENDBRANCH  11  14
ENDBRANCH   1  11
TORSDOF 9
ENDMDL
MODEL 3
REMARK VINA RESULT:      -5.8      1.437      1.612
REMARK  Name = 68614
REMARK  9 active torsions:
REMARK  status: ('A' for Active; 'I' for Inactive)
REMARK    1  A    between atoms: C_1  and  O_2
REMARK    2  A    between atoms: C_1  and  C_4
REMARK    3  A    between atoms: C_1  and  C_11
REMARK    4  A    between atoms: C_4  and  C_6
REMARK    5  A    between atoms: C_4  and  O_9
REMARK    6  A    between atoms: C_6  and  C_8
REMARK    7  A    between atoms: C_11  and  O_12
REMARK    8  A    between atoms: C_11  and  C_14
REMARK    9  A    between atoms: C_14  and  O_15
REMARK                            x       y       z     vdW  Elec       q    Type
REMARK                         _______ _______ _______ _____ _____    ______ ____
ROOT
ATOM      1  C   UNL     1      38.642 -25.549 -12.940  0.00  0.00    +0.170 C 
ENDROOT
BRANCH   1   2
ATOM      2  O   UNL     1      39.020 -24.216 -12.607  0.00  0.00    -0.379 OA
ATOM      3  H   UNL     1      38.917 -23.646 -13.385  0.00  0.00    +0.211 HD
ENDBRANCH   1   2
BRANCH   1   4
ATOM      4  C   UNL     1      37.210 -25.790 -12.430  0.00  0.00    +0.180 C 
BRANCH   4   6
ATOM      5  F   UNL     1      35.544 -24.889 -13.807  0.00  0.00    -0.226 F 
ATOM      6  C   UNL     1      36.249 -24.621 -12.668  0.00  0.00    +0.254 C 
BRANCH   6   8
ATOM      7  O   UNL     1      35.345 -25.032 -10.470  0.00  0.00    -0.285 OA
ATOM      8  C   UNL     1      35.301 -24.392 -11.517  0.00  0.00    +0.245 C 
ENDBRANCH   6   8
ENDBRANCH   4   6
BRANCH   4   9
ATOM      9  O   UNL     1      36.687 -26.962 -13.054  0.00  0.00    -0.379 OA
ATOM     10  H   UNL     1      36.580 -26.801 -14.005  0.00  0.00    +0.211 HD
ENDBRANCH   4   9
ENDBRANCH   1   4
BRANCH   1  11
ATOM     11  C   UNL     1      38.783 -25.779 -14.458  0.00  0.00    +0.169 C 
BRANCH  11  12
ATOM     12  O   UNL     1      38.808 -27.184 -14.717  0.00  0.00    -0.379 OA
ATOM     13  H   UNL     1      37.917 -27.550 -14.599  0.00  0.00    +0.211 HD
ENDBRANCH  11  12
BRANCH  11  14
ATOM     14  C   UNL     1      40.054 -25.160 -15.036  0.00  0.00    +0.169 C 
BRANCH  14  15
ATOM     15  O   UNL     1      40.493 -25.954 -16.133  0.00  0.00    -0.379 OA
ATOM     16  H   UNL     1      41.171 -25.472 -16.631  0.00  0.00    +0.211 HD
ENDBRANCH  14  15
ENDBRANCH  11  14
ENDBRANCH   1  11
TORSDOF 9
ENDMDL
MODEL 4
REMARK VINA RESULT:      -5.8      1.161      1.607
REMARK  Name = 68614
REMARK  9 active torsions:
REMARK  status: ('A' for Active; 'I' for Inactive)
REMARK    1  A    between atoms: C_1  and  O_2
REMARK    2  A    between atoms: C_1  and  C_4
REMARK    3  A    between atoms: C_1  and  C_11
REMARK    4  A    between atoms: C_4  and  C_6
REMARK    5  A    between atoms: C_4  and  O_9
REMARK    6  A    between atoms: C_6  and  C_8
REMARK    7  A    between atoms: C_11  and  O_12
REMARK    8  A    between atoms: C_11  and  C_14
REMARK    9  A    between atoms: C_14  and  O_15
REMARK                            x       y       z     vdW  Elec       q    Type
REMARK                         _______ _______ _______ _____ _____    ______ ____
ROOT
ATOM      1  C   UNL     1      38.002 -25.694 -14.133  0.00  0.00    +0.170 C 
ENDROOT
BRANCH   1   2
ATOM      2  O   UNL     1      38.103 -27.084 -14.432  0.00  0.00    -0.379 OA
ATOM      3  H   UNL     1      37.235 -27.502 -14.324  0.00  0.00    +0.211 HD
ENDBRANCH   1   2
BRANCH   1   4
ATOM      4  C   UNL     1      37.653 -25.542 -12.642  0.00  0.00    +0.180 C 
BRANCH   4   6
ATOM      5  F   UNL     1      36.689 -23.572 -13.461  0.00  0.00    -0.226 F 
ATOM      6  C   UNL     1      36.861 -24.276 -12.303  0.00  0.00    +0.254 C 
BRANCH   6   8
ATOM      7  O   UNL     1      35.393 -25.039 -10.548  0.00  0.00    -0.285 OA
ATOM      8  C   UNL     1      35.521 -24.569 -11.675  0.00  0.00    +0.245 C 
ENDBRANCH   6   8
ENDBRANCH   4   6
BRANCH   4   9
ATOM      9  O   UNL     1      36.910 -26.687 -12.222  0.00  0.00    -0.379 OA
ATOM     10  H   UNL     1      36.684 -26.599 -11.283  0.00  0.00    +0.211 HD
ENDBRANCH   4   9
ENDBRANCH   1   4
BRANCH   1  11
ATOM     11  C   UNL     1      39.308 -24.971 -14.519  0.00  0.00    +0.169 C 
BRANCH  11  12
ATOM     12  O   UNL     1      39.027 -24.014 -15.542  0.00  0.00    -0.379 OA
ATOM     13  H   UNL     1      39.478 -23.180 -15.337  0.00  0.00    +0.211 HD
ENDBRANCH  11  12
BRANCH  11  14
ATOM     14  C   UNL     1      40.384 -25.926 -15.034  0.00  0.00    +0.169 C 
BRANCH  14  15
ATOM     15  O   UNL     1      41.030 -26.533 -13.920  0.00  0.00    -0.379 OA
ATOM     16  H   UNL     1      40.723 -27.449 -13.827  0.00  0.00    +0.211 HD
ENDBRANCH  14  15
ENDBRANCH  11  14
ENDBRANCH   1  11
TORSDOF 9
ENDMDL
MODEL 5
REMARK VINA RESULT:      -5.7      1.758      4.445
REMARK  Name = 68614
REMARK  9 active torsions:
REMARK  status: ('A' for Active; 'I' for Inactive)
REMARK    1  A    between atoms: C_1  and  O_2
REMARK    2  A    between atoms: C_1  and  C_4
REMARK    3  A    between atoms: C_1  and  C_11
REMARK    4  A    between atoms: C_4  and  C_6
REMARK    5  A    between atoms: C_4  and  O_9
REMARK    6  A    between atoms: C_6  and  C_8
REMARK    7  A    between atoms: C_11  and  O_12
REMARK    8  A    between atoms: C_11  and  C_14
REMARK    9  A    between atoms: C_14  and  O_15
REMARK                            x       y       z     vdW  Elec       q    Type
REMARK                         _______ _______ _______ _____ _____    ______ ____
ROOT
ATOM      1  C   UNL     1      37.117 -25.815 -12.350  0.00  0.00    +0.170 C 
ENDROOT
BRANCH   1   2
ATOM      2  O   UNL     1      36.463 -26.529 -13.396  0.00  0.00    -0.379 OA
ATOM      3  H   UNL     1      35.982 -27.283 -13.023  0.00  0.00    +0.211 HD
ENDBRANCH   1   2
BRANCH   1   4
ATOM      4  C   UNL     1      38.485 -25.338 -12.869  0.00  0.00    +0.180 C 
BRANCH   4   6
ATOM      5  F   UNL     1      38.034 -24.192 -14.861  0.00  0.00    -0.226 F 
ATOM      6  C   UNL     1      38.617 -25.336 -14.395  0.00  0.00    +0.254 C 
BRANCH   6   8
ATOM      7  O   UNL     1      40.956 -24.749 -14.371  0.00  0.00    -0.285 OA
ATOM      8  C   UNL     1      40.049 -25.414 -14.863  0.00  0.00    +0.245 C 
ENDBRANCH   6   8
ENDBRANCH   4   6
BRANCH   4   9
ATOM      9  O   UNL     1      38.733 -24.021 -12.375  0.00  0.00    -0.379 OA
ATOM     10  H   UNL     1      39.651 -23.772 -12.567  0.00  0.00    +0.211 HD
ENDBRANCH   4   9
ENDBRANCH   1   4
BRANCH   1  11
ATOM     11  C   UNL     1      36.226 -24.658 -11.858  0.00  0.00    +0.169 C 
BRANCH  11  12
ATOM     12  O   UNL     1      35.467 -25.100 -10.730  0.00  0.00    -0.379 OA
ATOM     13  H   UNL     1      35.937 -24.867  -9.914  0.00  0.00    +0.211 HD
ENDBRANCH  11  12
BRANCH  11  14
ATOM     14  C   UNL     1      35.255 -24.161 -12.927  0.00  0.00    +0.169 C 
BRANCH  14  15
ATOM     15  O   UNL     1      33.993 -24.790 -12.727  0.00  0.00    -0.379 OA
ATOM     16  H   UNL     1      33.338 -24.401 -13.329  0.00  0.00    +0.211 HD
ENDBRANCH  14  15
ENDBRANCH  11  14
ENDBRANCH   1  11
TORSDOF 9
ENDMDL
MODEL 6
REMARK VINA RESULT:      -5.7      1.914      4.627
REMARK  Name = 68614
REMARK  9 active torsions:
REMARK  status: ('A' for Active; 'I' for Inactive)
REMARK    1  A    between atoms: C_1  and  O_2
REMARK    2  A    between atoms: C_1  and  C_4
REMARK    3  A    between atoms: C_1  and  C_11
REMARK    4  A    between atoms: C_4  and  C_6
REMARK    5  A    between atoms: C_4  and  O_9
REMARK    6  A    between atoms: C_6  and  C_8
REMARK    7  A    between atoms: C_11  and  O_12
REMARK    8  A    between atoms: C_11  and  C_14
REMARK    9  A    between atoms: C_14  and  O_15
REMARK                            x       y       z     vdW  Elec       q    Type
REMARK                         _______ _______ _______ _____ _____    ______ ____
ROOT
ATOM      1  C   UNL     1      37.919 -24.251 -12.504  0.00  0.00    +0.170 C 
ENDROOT
BRANCH   1   2
ATOM      2  O   UNL     1      37.852 -25.553 -11.928  0.00  0.00    -0.379 OA
ATOM      3  H   UNL     1      38.467 -25.609 -11.181  0.00  0.00    +0.211 HD
ENDBRANCH   1   2
BRANCH   1   4
ATOM      4  C   UNL     1      37.868 -24.395 -14.036  0.00  0.00    +0.180 C 
BRANCH   4   6
ATOM      5  F   UNL     1      36.065 -24.575 -15.519  0.00  0.00    -0.226 F 
ATOM      6  C   UNL     1      36.726 -25.276 -14.550  0.00  0.00    +0.254 C 
BRANCH   6   8
ATOM      7  O   UNL     1      38.113 -27.248 -14.601  0.00  0.00    -0.285 OA
ATOM      8  C   UNL     1      37.203 -26.595 -15.104  0.00  0.00    +0.245 C 
ENDBRANCH   6   8
ENDBRANCH   4   6
BRANCH   4   9
ATOM      9  O   UNL     1      37.759 -23.096 -14.618  0.00  0.00    -0.379 OA
ATOM     10  H   UNL     1      38.418 -23.002 -15.324  0.00  0.00    +0.211 HD
ENDBRANCH   4   9
ENDBRANCH   1   4
BRANCH   1  11
ATOM     11  C   UNL     1      36.786 -23.365 -11.947  0.00  0.00    +0.169 C 
BRANCH  11  12
ATOM     12  O   UNL     1      37.354 -22.346 -11.122  0.00  0.00    -0.379 OA
ATOM     13  H   UNL     1      38.322 -22.413 -11.146  0.00  0.00    +0.211 HD
ENDBRANCH  11  12
BRANCH  11  14
ATOM     14  C   UNL     1      35.773 -24.150 -11.117  0.00  0.00    +0.169 C 
BRANCH  14  15
ATOM     15  O   UNL     1      36.211 -24.172  -9.762  0.00  0.00    -0.379 OA
ATOM     16  H   UNL     1      36.192 -25.084  -9.431  0.00  0.00    +0.211 HD
ENDBRANCH  14  15
ENDBRANCH  11  14
ENDBRANCH   1  11
TORSDOF 9
ENDMDL
MODEL 7
REMARK VINA RESULT:      -5.6      2.135      4.387
REMARK  Name = 68614
REMARK  9 active torsions:
REMARK  status: ('A' for Active; 'I' for Inactive)
REMARK    1  A    between atoms: C_1  and  O_2
REMARK    2  A    between atoms: C_1  and  C_4
REMARK    3  A    between atoms: C_1  and  C_11
REMARK    4  A    between atoms: C_4  and  C_6
REMARK    5  A    between atoms: C_4  and  O_9
REMARK    6  A    between atoms: C_6  and  C_8
REMARK    7  A    between atoms: C_11  and  O_12
REMARK    8  A    between atoms: C_11  and  C_14
REMARK    9  A    between atoms: C_14  and  O_15
REMARK                            x       y       z     vdW  Elec       q    Type
REMARK                         _______ _______ _______ _____ _____    ______ ____
ROOT
ATOM      1  C   UNL     1      36.996 -25.551 -14.657  0.00  0.00    +0.170 C 
ENDROOT
BRANCH   1   2
ATOM      2  O   UNL     1      37.408 -26.332 -15.776  0.00  0.00    -0.379 OA
ATOM      3  H   UNL     1      38.252 -25.995 -16.113  0.00  0.00    +0.211 HD
ENDBRANCH   1   2
BRANCH   1   4
ATOM      4  C   UNL     1      38.101 -24.525 -14.348  0.00  0.00    +0.180 C 
BRANCH   4   6
ATOM      5  F   UNL     1      38.799 -26.170 -12.835  0.00  0.00    -0.226 F 
ATOM      6  C   UNL     1      39.259 -25.076 -13.511  0.00  0.00    +0.254 C 
BRANCH   6   8
ATOM      7  O   UNL     1      40.405 -26.207 -15.307  0.00  0.00    -0.285 OA
ATOM      8  C   UNL     1      40.461 -25.451 -14.341  0.00  0.00    +0.245 C 
ENDBRANCH   6   8
ENDBRANCH   4   6
BRANCH   4   9
ATOM      9  O   UNL     1      38.613 -24.012 -15.578  0.00  0.00    -0.379 OA
ATOM     10  H   UNL     1      38.613 -24.716 -16.246  0.00  0.00    +0.211 HD
ENDBRANCH   4   9
ENDBRANCH   1   4
BRANCH   1  11
ATOM     11  C   UNL     1      35.631 -24.893 -14.943  0.00  0.00    +0.169 C 
BRANCH  11  12
ATOM     12  O   UNL     1      35.757 -24.030 -16.075  0.00  0.00    -0.379 OA
ATOM     13  H   UNL     1      35.508 -23.127 -15.823  0.00  0.00    +0.211 HD
ENDBRANCH  11  12
BRANCH  11  14
ATOM     14  C   UNL     1      35.111 -24.070 -13.766  0.00  0.00    +0.169 C 
BRANCH  14  15
ATOM     15  O   UNL     1      34.976 -24.925 -12.635  0.00  0.00    -0.379 OA
ATOM     16  H   UNL     1      34.352 -24.532 -12.004  0.00  0.00    +0.211 HD
ENDBRANCH  14  15
ENDBRANCH  11  14
ENDBRANCH   1  11
TORSDOF 9
ENDMDL
MODEL 8
REMARK VINA RESULT:      -5.5      1.980      3.334
REMARK  Name = 68614
REMARK  9 active torsions:
REMARK  status: ('A' for Active; 'I' for Inactive)
REMARK    1  A    between atoms: C_1  and  O_2
REMARK    2  A    between atoms: C_1  and  C_4
REMARK    3  A    between atoms: C_1  and  C_11
REMARK    4  A    between atoms: C_4  and  C_6
REMARK    5  A    between atoms: C_4  and  O_9
REMARK    6  A    between atoms: C_6  and  C_8
REMARK    7  A    between atoms: C_11  and  O_12
REMARK    8  A    between atoms: C_11  and  C_14
REMARK    9  A    between atoms: C_14  and  O_15
REMARK                            x       y       z     vdW  Elec       q    Type
REMARK                         _______ _______ _______ _____ _____    ______ ____
ROOT
ATOM      1  C   UNL     1      37.735 -25.807 -14.140  0.00  0.00    +0.170 C 
ENDROOT
BRANCH   1   2
ATOM      2  O   UNL     1      38.374 -26.937 -14.729  0.00  0.00    -0.379 OA
ATOM      3  H   UNL     1      38.393 -26.833 -15.692  0.00  0.00    +0.211 HD
ENDBRANCH   1   2
BRANCH   1   4
ATOM      4  C   UNL     1      36.244 -25.840 -14.521  0.00  0.00    +0.180 C 
BRANCH   4   6
ATOM      5  F   UNL     1      35.074 -24.327 -15.871  0.00  0.00    -0.226 F 
ATOM      6  C   UNL     1      35.585 -24.460 -14.611  0.00  0.00    +0.254 C 
BRANCH   6   8
ATOM      7  O   UNL     1      34.644 -24.478 -12.391  0.00  0.00    -0.285 OA
ATOM      8  C   UNL     1      34.493 -24.260 -13.589  0.00  0.00    +0.245 C 
ENDBRANCH   6   8
ENDBRANCH   4   6
BRANCH   4   9
ATOM      9  O   UNL     1      36.101 -26.512 -15.772  0.00  0.00    -0.379 OA
ATOM     10  H   UNL     1      36.978 -26.727 -16.125  0.00  0.00    +0.211 HD
ENDBRANCH   4   9
ENDBRANCH   1   4
BRANCH   1  11
ATOM     11  C   UNL     1      37.964 -25.803 -12.615  0.00  0.00    +0.169 C 
BRANCH  11  12
ATOM     12  O   UNL     1      36.842 -26.413 -11.973  0.00  0.00    -0.379 OA
ATOM     13  H   UNL     1      36.278 -25.726 -11.586  0.00  0.00    +0.211 HD
ENDBRANCH  11  12
BRANCH  11  14
ATOM     14  C   UNL     1      38.139 -24.396 -12.046  0.00  0.00    +0.169 C 
BRANCH  14  15
ATOM     15  O   UNL     1      37.223 -24.221 -10.970  0.00  0.00    -0.379 OA
ATOM     16  H   UNL     1      36.429 -24.755 -11.130  0.00  0.00    +0.211 HD
ENDBRANCH  14  15
ENDBRANCH  11  14
ENDBRANCH   1  11
TORSDOF 9
ENDMDL
MODEL 9
REMARK VINA RESULT:      -5.5      2.320      4.168
REMARK  Name = 68614
REMARK  9 active torsions:
REMARK  status: ('A' for Active; 'I' for Inactive)
REMARK    1  A    between atoms: C_1  and  O_2
REMARK    2  A    between atoms: C_1  and  C_4
REMARK    3  A    between atoms: C_1  and  C_11
REMARK    4  A    between atoms: C_4  and  C_6
REMARK    5  A    between atoms: C_4  and  O_9
REMARK    6  A    between atoms: C_6  and  C_8
REMARK    7  A    between atoms: C_11  and  O_12
REMARK    8  A    between atoms: C_11  and  C_14
REMARK    9  A    between atoms: C_14  and  O_15
REMARK                            x       y       z     vdW  Elec       q    Type
REMARK                         _______ _______ _______ _____ _____    ______ ____
ROOT
ATOM      1  C   UNL     1      36.440 -23.733 -13.904  0.00  0.00    +0.170 C 
ENDROOT
BRANCH   1   2
ATOM      2  O   UNL     1      37.493 -22.830 -14.231  0.00  0.00    -0.379 OA
ATOM      3  H   UNL     1      37.824 -23.028 -15.121  0.00  0.00    +0.211 HD
ENDBRANCH   1   2
BRANCH   1   4
ATOM      4  C   UNL     1      36.744 -25.092 -14.559  0.00  0.00    +0.180 C 
BRANCH   4   6
ATOM      5  F   UNL     1      37.275 -27.295 -13.971  0.00  0.00    -0.226 F 
ATOM      6  C   UNL     1      37.652 -26.005 -13.730  0.00  0.00    +0.254 C 
BRANCH   6   8
ATOM      7  O   UNL     1      39.755 -24.825 -13.746  0.00  0.00    -0.285 OA
ATOM      8  C   UNL     1      39.116 -25.828 -14.049  0.00  0.00    +0.245 C 
ENDBRANCH   6   8
ENDBRANCH   4   6
BRANCH   4   9
ATOM      9  O   UNL     1      35.512 -25.766 -14.820  0.00  0.00    -0.379 OA
ATOM     10  H   UNL     1      34.781 -25.267 -14.422  0.00  0.00    +0.211 HD
ENDBRANCH   4   9
ENDBRANCH   1   4
BRANCH   1  11
ATOM     11  C   UNL     1      36.279 -23.829 -12.373  0.00  0.00    +0.169 C 
BRANCH  11  12
ATOM     12  O   UNL     1      34.912 -23.591 -12.032  0.00  0.00    -0.379 OA
ATOM     13  H   UNL     1      34.348 -24.234 -12.490  0.00  0.00    +0.211 HD
ENDBRANCH  11  12
BRANCH  11  14
ATOM     14  C   UNL     1      37.146 -22.821 -11.621  0.00  0.00    +0.169 C 
BRANCH  14  15
ATOM     15  O   UNL     1      38.495 -23.277 -11.635  0.00  0.00    -0.379 OA
ATOM     16  H   UNL     1      38.992 -22.798 -12.317  0.00  0.00    +0.211 HD
ENDBRANCH  14  15
ENDBRANCH  11  14
ENDBRANCH   1  11
TORSDOF 9
ENDMDL
