MODEL 1
REMARK VINA RESULT:     -12.3      0.000      0.000
REMARK  Name = 9969613
REMARK  5 active torsions:
REMARK  status: ('A' for Active; 'I' for Inactive)
REMARK    1  A    between atoms: C_3  and  O_7
REMARK    2  A    between atoms: C_4  and  O_17
REMARK    3  A    between atoms: O_7  and  C_13
REMARK    4  A    between atoms: O_17  and  C_21
REMARK    5  A    between atoms: C_18  and  N_24
REMARK                            x       y       z     vdW  Elec       q    Type
REMARK                         _______ _______ _______ _____ _____    ______ ____
ROOT
ATOM      1  N   UNL     1      34.869 -22.947 -17.116  0.00  0.00    -0.283 NA
ATOM      2  N   UNL     1      32.622 -23.025 -17.985  0.00  0.00    -0.151 NA
ATOM      3  C   UNL     1      34.342 -23.054 -15.885  0.00  0.00    +0.296 C 
ATOM      4  C   UNL     1      33.960 -22.939 -18.110  0.00  0.00    +0.260 C 
ATOM      5  C   UNL     1      33.001 -23.150 -15.611  0.00  0.00    +0.094 C 
ATOM      6  C   UNL     1      32.175 -23.130 -16.715  0.00  0.00    +0.119 C 
ENDROOT
BRANCH   3   7
ATOM      7  O   UNL     1      35.239 -23.066 -14.829  0.00  0.00    -0.427 OA
BRANCH   7  13
ATOM      8  O   UNL     1      39.826 -24.542 -14.646  0.00  0.00    -0.435 OA
ATOM      9  O   UNL     1      39.177 -26.857 -14.793  0.00  0.00    -0.435 OA
ATOM     10  C   UNL     1      38.477 -24.696 -14.728  0.00  0.00    +0.179 C 
ATOM     11  C   UNL     1      38.105 -26.019 -14.811  0.00  0.00    +0.177 C 
ATOM     12  C   UNL     1      37.544 -23.679 -14.731  0.00  0.00    +0.078 C 
ATOM     13  C   UNL     1      36.195 -24.035 -14.823  0.00  0.00    +0.151 C 
ATOM     14  C   UNL     1      36.781 -26.397 -14.903  0.00  0.00    +0.043 C 
ATOM     15  C   UNL     1      40.263 -25.915 -14.687  0.00  0.00    +0.429 C 
ATOM     16  C   UNL     1      35.817 -25.386 -14.909  0.00  0.00    +0.041 C 
ENDBRANCH   7  13
ENDBRANCH   3   7
BRANCH   4  17
ATOM     17  O   UNL     1      34.452 -22.831 -19.390  0.00  0.00    -0.383 OA
BRANCH  17  21
ATOM     18  C   UNL     1      34.707 -19.016 -21.007  0.00  0.00    +0.057 C 
ATOM     19  C   UNL     1      33.458 -19.583 -20.751  0.00  0.00    +0.018 C 
ATOM     20  C   UNL     1      35.870 -19.731 -20.719  0.00  0.00    +0.018 C 
ATOM     21  C   UNL     1      34.537 -21.564 -19.927  0.00  0.00    +0.160 C 
ATOM     22  C   UNL     1      33.373 -20.865 -20.207  0.00  0.00    +0.040 C 
ATOM     23  C   UNL     1      35.784 -21.013 -20.176  0.00  0.00    +0.040 C 
BRANCH  18  24
ATOM     24  N   UNL     1      34.792 -17.745 -21.545  0.00  0.00    -0.246 N 
ATOM     25  N   UNL     1      35.282 -16.113 -22.981  0.00  0.00    -0.224 NA
ATOM     26  C   UNL     1      34.323 -16.586 -20.982  0.00  0.00    +0.092 C 
ATOM     27  C   UNL     1      35.359 -17.404 -22.747  0.00  0.00    +0.172 C 
ATOM     28  C   UNL     1      34.638 -15.597 -21.885  0.00  0.00    +0.117 C 
ENDBRANCH  18  24
ENDBRANCH  17  21
ENDBRANCH   4  17
TORSDOF 5
ENDMDL
MODEL 2
REMARK VINA RESULT:     -11.8      2.756      5.464
REMARK  Name = 9969613
REMARK  5 active torsions:
REMARK  status: ('A' for Active; 'I' for Inactive)
REMARK    1  A    between atoms: C_3  and  O_7
REMARK    2  A    between atoms: C_4  and  O_17
REMARK    3  A    between atoms: O_7  and  C_13
REMARK    4  A    between atoms: O_17  and  C_21
REMARK    5  A    between atoms: C_18  and  N_24
REMARK                            x       y       z     vdW  Elec       q    Type
REMARK                         _______ _______ _______ _____ _____    ______ ____
ROOT
ATOM      1  N   UNL     1      33.482 -23.437 -16.507  0.00  0.00    -0.283 NA
ATOM      2  N   UNL     1      35.767 -22.745 -16.839  0.00  0.00    -0.151 NA
ATOM      3  C   UNL     1      33.696 -23.333 -15.186  0.00  0.00    +0.296 C 
ATOM      4  C   UNL     1      34.550 -23.131 -17.269  0.00  0.00    +0.260 C 
ATOM      5  C   UNL     1      34.882 -22.952 -14.610  0.00  0.00    +0.094 C 
ATOM      6  C   UNL     1      35.898 -22.665 -15.498  0.00  0.00    +0.119 C 
ENDROOT
BRANCH   3   7
ATOM      7  O   UNL     1      32.625 -23.638 -14.361  0.00  0.00    -0.427 OA
BRANCH   7  13
ATOM      8  O   UNL     1      28.907 -22.019 -16.971  0.00  0.00    -0.435 OA
ATOM      9  O   UNL     1      27.725 -24.106 -16.739  0.00  0.00    -0.435 OA
ATOM     10  C   UNL     1      29.603 -22.928 -16.235  0.00  0.00    +0.179 C 
ATOM     11  C   UNL     1      28.928 -24.121 -16.103  0.00  0.00    +0.177 C 
ATOM     12  C   UNL     1      30.844 -22.730 -15.665  0.00  0.00    +0.078 C 
ATOM     13  C   UNL     1      31.402 -23.787 -14.941  0.00  0.00    +0.151 C 
ATOM     14  C   UNL     1      29.457 -25.180 -15.393  0.00  0.00    +0.043 C 
ATOM     15  C   UNL     1      27.719 -22.772 -17.287  0.00  0.00    +0.429 C 
ATOM     16  C   UNL     1      30.712 -25.004 -14.805  0.00  0.00    +0.041 C 
ENDBRANCH   7  13
ENDBRANCH   3   7
BRANCH   4  17
ATOM     17  O   UNL     1      34.380 -23.222 -18.631  0.00  0.00    -0.383 OA
BRANCH  17  21
ATOM     18  C   UNL     1      34.702 -19.710 -20.820  0.00  0.00    +0.057 C 
ATOM     19  C   UNL     1      33.453 -20.143 -20.375  0.00  0.00    +0.018 C 
ATOM     20  C   UNL     1      35.844 -20.458 -20.529  0.00  0.00    +0.018 C 
ATOM     21  C   UNL     1      34.487 -22.056 -19.358  0.00  0.00    +0.160 C 
ATOM     22  C   UNL     1      33.345 -21.323 -19.639  0.00  0.00    +0.040 C 
ATOM     23  C   UNL     1      35.735 -21.638 -19.793  0.00  0.00    +0.040 C 
BRANCH  18  24
ATOM     24  N   UNL     1      34.811 -18.540 -21.549  0.00  0.00    -0.246 N 
ATOM     25  N   UNL     1      34.956 -16.361 -21.994  0.00  0.00    -0.224 NA
ATOM     26  C   UNL     1      34.907 -18.433 -22.913  0.00  0.00    +0.092 C 
ATOM     27  C   UNL     1      34.846 -17.265 -21.045  0.00  0.00    +0.172 C 
ATOM     28  C   UNL     1      34.994 -17.083 -23.161  0.00  0.00    +0.117 C 
ENDBRANCH  18  24
ENDBRANCH  17  21
ENDBRANCH   4  17
TORSDOF 5
ENDMDL
MODEL 3
REMARK VINA RESULT:     -11.6      3.626     10.119
REMARK  Name = 9969613
REMARK  5 active torsions:
REMARK  status: ('A' for Active; 'I' for Inactive)
REMARK    1  A    between atoms: C_3  and  O_7
REMARK    2  A    between atoms: C_4  and  O_17
REMARK    3  A    between atoms: O_7  and  C_13
REMARK    4  A    between atoms: O_17  and  C_21
REMARK    5  A    between atoms: C_18  and  N_24
REMARK                            x       y       z     vdW  Elec       q    Type
REMARK                         _______ _______ _______ _____ _____    ______ ____
ROOT
ATOM      1  N   UNL     1      35.702 -19.493 -20.603  0.00  0.00    -0.283 NA
ATOM      2  N   UNL     1      33.867 -20.959 -20.063  0.00  0.00    -0.151 NA
ATOM      3  C   UNL     1      34.798 -18.614 -21.065  0.00  0.00    +0.296 C 
ATOM      4  C   UNL     1      35.173 -20.634 -20.121  0.00  0.00    +0.260 C 
ATOM      5  C   UNL     1      33.440 -18.814 -21.067  0.00  0.00    +0.094 C 
ATOM      6  C   UNL     1      33.024 -20.022 -20.547  0.00  0.00    +0.119 C 
ENDROOT
BRANCH   3   7
ATOM      7  O   UNL     1      35.295 -17.425 -21.571  0.00  0.00    -0.427 OA
BRANCH   7  13
ATOM      8  O   UNL     1      33.179 -14.291 -24.563  0.00  0.00    -0.435 OA
ATOM      9  O   UNL     1      33.526 -15.736 -26.460  0.00  0.00    -0.435 OA
ATOM     10  C   UNL     1      33.812 -15.446 -24.224  0.00  0.00    +0.179 C 
ATOM     11  C   UNL     1      34.012 -16.272 -25.307  0.00  0.00    +0.177 C 
ATOM     12  C   UNL     1      34.229 -15.799 -22.957  0.00  0.00    +0.078 C 
ATOM     13  C   UNL     1      34.866 -17.034 -22.803  0.00  0.00    +0.151 C 
ATOM     14  C   UNL     1      34.637 -17.495 -25.183  0.00  0.00    +0.043 C 
ATOM     15  C   UNL     1      33.001 -14.481 -25.981  0.00  0.00    +0.429 C 
ATOM     16  C   UNL     1      35.068 -17.877 -23.909  0.00  0.00    +0.041 C 
ENDBRANCH   7  13
ENDBRANCH   3   7
BRANCH   4  17
ATOM     17  O   UNL     1      36.060 -21.566 -19.636  0.00  0.00    -0.383 OA
BRANCH  17  21
ATOM     18  C   UNL     1      35.470 -22.897 -15.748  0.00  0.00    +0.057 C 
ATOM     19  C   UNL     1      34.490 -23.115 -16.716  0.00  0.00    +0.018 C 
ATOM     20  C   UNL     1      36.649 -22.232 -16.086  0.00  0.00    +0.018 C 
ATOM     21  C   UNL     1      35.865 -22.008 -18.345  0.00  0.00    +0.160 C 
ATOM     22  C   UNL     1      34.689 -22.668 -18.023  0.00  0.00    +0.040 C 
ATOM     23  C   UNL     1      36.847 -21.785 -17.393  0.00  0.00    +0.040 C 
BRANCH  18  24
ATOM     24  N   UNL     1      35.274 -23.341 -14.453  0.00  0.00    -0.246 N 
ATOM     25  N   UNL     1      34.242 -24.187 -12.668  0.00  0.00    -0.224 NA
ATOM     26  C   UNL     1      36.204 -23.360 -13.446  0.00  0.00    +0.092 C 
ATOM     27  C   UNL     1      34.111 -23.850 -13.932  0.00  0.00    +0.172 C 
ATOM     28  C   UNL     1      35.545 -23.884 -12.359  0.00  0.00    +0.117 C 
ENDBRANCH  18  24
ENDBRANCH  17  21
ENDBRANCH   4  17
TORSDOF 5
ENDMDL
MODEL 4
REMARK VINA RESULT:     -11.4      2.750      5.107
REMARK  Name = 9969613
REMARK  5 active torsions:
REMARK  status: ('A' for Active; 'I' for Inactive)
REMARK    1  A    between atoms: C_3  and  O_7
REMARK    2  A    between atoms: C_4  and  O_17
REMARK    3  A    between atoms: O_7  and  C_13
REMARK    4  A    between atoms: O_17  and  C_21
REMARK    5  A    between atoms: C_18  and  N_24
REMARK                            x       y       z     vdW  Elec       q    Type
REMARK                         _______ _______ _______ _____ _____    ______ ____
ROOT
ATOM      1  N   UNL     1      35.083 -22.711 -18.357  0.00  0.00    -0.283 NA
ATOM      2  N   UNL     1      36.822 -21.047 -18.232  0.00  0.00    -0.151 NA
ATOM      3  C   UNL     1      35.274 -22.936 -17.048  0.00  0.00    +0.296 C 
ATOM      4  C   UNL     1      35.884 -21.763 -18.881  0.00  0.00    +0.260 C 
ATOM      5  C   UNL     1      36.193 -22.282 -16.265  0.00  0.00    +0.094 C 
ATOM      6  C   UNL     1      36.951 -21.334 -16.919  0.00  0.00    +0.119 C 
ENDROOT
BRANCH   3   7
ATOM      7  O   UNL     1      34.474 -23.904 -16.464  0.00  0.00    -0.427 OA
BRANCH   7  13
ATOM      8  O   UNL     1      29.884 -22.611 -17.181  0.00  0.00    -0.435 OA
ATOM      9  O   UNL     1      29.491 -22.375 -14.816  0.00  0.00    -0.435 OA
ATOM     10  C   UNL     1      30.991 -22.894 -16.443  0.00  0.00    +0.179 C 
ATOM     11  C   UNL     1      30.767 -22.760 -15.091  0.00  0.00    +0.177 C 
ATOM     12  C   UNL     1      32.221 -23.275 -16.940  0.00  0.00    +0.078 C 
ATOM     13  C   UNL     1      33.244 -23.525 -16.021  0.00  0.00    +0.151 C 
ATOM     14  C   UNL     1      31.760 -22.999 -14.163  0.00  0.00    +0.043 C 
ATOM     15  C   UNL     1      28.938 -22.284 -16.144  0.00  0.00    +0.429 C 
ATOM     16  C   UNL     1      33.015 -23.387 -14.641  0.00  0.00    +0.041 C 
ENDBRANCH   7  13
ENDBRANCH   3   7
BRANCH   4  17
ATOM     17  O   UNL     1      35.725 -21.496 -20.221  0.00  0.00    -0.383 OA
BRANCH  17  21
ATOM     18  C   UNL     1      34.271 -17.745 -21.246  0.00  0.00    +0.057 C 
ATOM     19  C   UNL     1      35.641 -17.999 -21.295  0.00  0.00    +0.018 C 
ATOM     20  C   UNL     1      33.388 -18.752 -20.852  0.00  0.00    +0.018 C 
ATOM     21  C   UNL     1      35.242 -20.250 -20.561  0.00  0.00    +0.160 C 
ATOM     22  C   UNL     1      36.129 -19.260 -20.950  0.00  0.00    +0.040 C 
ATOM     23  C   UNL     1      33.877 -20.012 -20.508  0.00  0.00    +0.040 C 
BRANCH  18  24
ATOM     24  N   UNL     1      33.786 -16.496 -21.587  0.00  0.00    -0.246 N 
ATOM     25  N   UNL     1      32.475 -14.694 -21.594  0.00  0.00    -0.224 NA
ATOM     26  C   UNL     1      34.325 -15.633 -22.507  0.00  0.00    +0.092 C 
ATOM     27  C   UNL     1      32.675 -15.881 -21.068  0.00  0.00    +0.172 C 
ATOM     28  C   UNL     1      33.500 -14.533 -22.493  0.00  0.00    +0.117 C 
ENDBRANCH  18  24
ENDBRANCH  17  21
ENDBRANCH   4  17
TORSDOF 5
ENDMDL
MODEL 5
REMARK VINA RESULT:     -11.1      3.553     10.161
REMARK  Name = 9969613
REMARK  5 active torsions:
REMARK  status: ('A' for Active; 'I' for Inactive)
REMARK    1  A    between atoms: C_3  and  O_7
REMARK    2  A    between atoms: C_4  and  O_17
REMARK    3  A    between atoms: O_7  and  C_13
REMARK    4  A    between atoms: O_17  and  C_21
REMARK    5  A    between atoms: C_18  and  N_24
REMARK                            x       y       z     vdW  Elec       q    Type
REMARK                         _______ _______ _______ _____ _____    ______ ____
ROOT
ATOM      1  N   UNL     1      35.672 -19.443 -20.626  0.00  0.00    -0.283 NA
ATOM      2  N   UNL     1      33.694 -20.769 -20.253  0.00  0.00    -0.151 NA
ATOM      3  C   UNL     1      34.866 -18.441 -21.009  0.00  0.00    +0.296 C 
ATOM      4  C   UNL     1      35.026 -20.569 -20.264  0.00  0.00    +0.260 C 
ATOM      5  C   UNL     1      33.496 -18.506 -21.047  0.00  0.00    +0.094 C 
ATOM      6  C   UNL     1      32.956 -19.712 -20.653  0.00  0.00    +0.119 C 
ENDROOT
BRANCH   3   7
ATOM      7  O   UNL     1      35.486 -17.262 -21.391  0.00  0.00    -0.427 OA
BRANCH   7  13
ATOM      8  O   UNL     1      34.102 -16.168 -25.879  0.00  0.00    -0.435 OA
ATOM      9  O   UNL     1      32.948 -14.188 -25.132  0.00  0.00    -0.435 OA
ATOM     10  C   UNL     1      34.195 -15.993 -24.533  0.00  0.00    +0.179 C 
ATOM     11  C   UNL     1      33.535 -14.862 -24.106  0.00  0.00    +0.177 C 
ATOM     12  C   UNL     1      34.859 -16.821 -23.652  0.00  0.00    +0.078 C 
ATOM     13  C   UNL     1      34.844 -16.475 -22.298  0.00  0.00    +0.151 C 
ATOM     14  C   UNL     1      33.505 -14.498 -22.775  0.00  0.00    +0.043 C 
ATOM     15  C   UNL     1      33.311 -15.022 -26.252  0.00  0.00    +0.429 C 
ATOM     16  C   UNL     1      34.172 -15.320 -21.863  0.00  0.00    +0.041 C 
ENDBRANCH   7  13
ENDBRANCH   3   7
BRANCH   4  17
ATOM     17  O   UNL     1      35.810 -21.625 -19.862  0.00  0.00    -0.383 OA
BRANCH  17  21
ATOM     18  C   UNL     1      35.417 -22.886 -15.926  0.00  0.00    +0.057 C 
ATOM     19  C   UNL     1      36.574 -22.222 -16.334  0.00  0.00    +0.018 C 
ATOM     20  C   UNL     1      34.391 -23.126 -16.841  0.00  0.00    +0.018 C 
ATOM     21  C   UNL     1      35.679 -22.044 -18.555  0.00  0.00    +0.160 C 
ATOM     22  C   UNL     1      36.705 -21.798 -17.656  0.00  0.00    +0.040 C 
ATOM     23  C   UNL     1      34.523 -22.702 -18.164  0.00  0.00    +0.040 C 
BRANCH  18  24
ATOM     24  N   UNL     1      35.285 -23.306 -14.616  0.00  0.00    -0.246 N 
ATOM     25  N   UNL     1      34.364 -24.179 -12.783  0.00  0.00    -0.224 NA
ATOM     26  C   UNL     1      36.236 -23.222 -13.631  0.00  0.00    +0.092 C 
ATOM     27  C   UNL     1      34.179 -23.890 -14.052  0.00  0.00    +0.172 C 
ATOM     28  C   UNL     1      35.645 -23.765 -12.514  0.00  0.00    +0.117 C 
ENDBRANCH  18  24
ENDBRANCH  17  21
ENDBRANCH   4  17
TORSDOF 5
ENDMDL
MODEL 6
REMARK VINA RESULT:     -11.1      4.340      7.925
REMARK  Name = 9969613
REMARK  5 active torsions:
REMARK  status: ('A' for Active; 'I' for Inactive)
REMARK    1  A    between atoms: C_3  and  O_7
REMARK    2  A    between atoms: C_4  and  O_17
REMARK    3  A    between atoms: O_7  and  C_13
REMARK    4  A    between atoms: O_17  and  C_21
REMARK    5  A    between atoms: C_18  and  N_24
REMARK                            x       y       z     vdW  Elec       q    Type
REMARK                         _______ _______ _______ _____ _____    ______ ____
ROOT
ATOM      1  N   UNL     1      35.170 -17.106 -23.307  0.00  0.00    -0.283 NA
ATOM      2  N   UNL     1      34.240 -17.639 -25.466  0.00  0.00    -0.151 NA
ATOM      3  C   UNL     1      35.210 -18.424 -23.055  0.00  0.00    +0.296 C 
ATOM      4  C   UNL     1      34.679 -16.786 -24.520  0.00  0.00    +0.260 C 
ATOM      5  C   UNL     1      34.797 -19.402 -23.924  0.00  0.00    +0.094 C 
ATOM      6  C   UNL     1      34.314 -18.945 -25.133  0.00  0.00    +0.119 C 
ENDROOT
BRANCH   3   7
ATOM      7  O   UNL     1      35.707 -18.801 -21.818  0.00  0.00    -0.427 OA
BRANCH   7  13
ATOM      8  O   UNL     1      35.114 -22.526 -18.814  0.00  0.00    -0.435 OA
ATOM      9  O   UNL     1      32.735 -22.165 -18.700  0.00  0.00    -0.435 OA
ATOM     10  C   UNL     1      34.715 -21.469 -19.572  0.00  0.00    +0.179 C 
ATOM     11  C   UNL     1      33.355 -21.262 -19.506  0.00  0.00    +0.177 C 
ATOM     12  C   UNL     1      35.535 -20.665 -20.337  0.00  0.00    +0.078 C 
ATOM     13  C   UNL     1      34.938 -19.622 -21.051  0.00  0.00    +0.151 C 
ATOM     14  C   UNL     1      32.742 -20.240 -20.202  0.00  0.00    +0.043 C 
ATOM     15  C   UNL     1      33.855 -22.962 -18.264  0.00  0.00    +0.429 C 
ATOM     16  C   UNL     1      33.550 -19.411 -20.984  0.00  0.00    +0.041 C 
ENDBRANCH   7  13
ENDBRANCH   3   7
BRANCH   4  17
ATOM     17  O   UNL     1      34.619 -15.446 -24.825  0.00  0.00    -0.383 OA
BRANCH  17  21
ATOM     18  C   UNL     1      32.533 -12.997 -22.202  0.00  0.00    +0.057 C 
ATOM     19  C   UNL     1      33.125 -12.454 -23.342  0.00  0.00    +0.018 C 
ATOM     20  C   UNL     1      32.641 -14.364 -21.944  0.00  0.00    +0.018 C 
ATOM     21  C   UNL     1      33.926 -14.633 -23.954  0.00  0.00    +0.160 C 
ATOM     22  C   UNL     1      33.826 -13.277 -24.223  0.00  0.00    +0.040 C 
ATOM     23  C   UNL     1      33.342 -15.187 -22.825  0.00  0.00    +0.040 C 
BRANCH  18  24
ATOM     24  N   UNL     1      31.837 -12.182 -21.328  0.00  0.00    -0.246 N 
ATOM     25  N   UNL     1      31.171 -11.261 -19.411  0.00  0.00    -0.224 NA
ATOM     26  C   UNL     1      30.886 -11.251 -21.660  0.00  0.00    +0.092 C 
ATOM     27  C   UNL     1      31.970 -12.146 -19.963  0.00  0.00    +0.172 C 
ATOM     28  C   UNL     1      30.491 -10.700 -20.463  0.00  0.00    +0.117 C 
ENDBRANCH  18  24
ENDBRANCH  17  21
ENDBRANCH   4  17
TORSDOF 5
ENDMDL
MODEL 7
REMARK VINA RESULT:     -10.9      5.227      9.191
REMARK  Name = 9969613
REMARK  5 active torsions:
REMARK  status: ('A' for Active; 'I' for Inactive)
REMARK    1  A    between atoms: C_3  and  O_7
REMARK    2  A    between atoms: C_4  and  O_17
REMARK    3  A    between atoms: O_7  and  C_13
REMARK    4  A    between atoms: O_17  and  C_21
REMARK    5  A    between atoms: C_18  and  N_24
REMARK                            x       y       z     vdW  Elec       q    Type
REMARK                         _______ _______ _______ _____ _____    ______ ____
ROOT
ATOM      1  N   UNL     1      33.897 -15.807 -23.536  0.00  0.00    -0.283 NA
ATOM      2  N   UNL     1      34.079 -16.542 -25.825  0.00  0.00    -0.151 NA
ATOM      3  C   UNL     1      34.758 -16.784 -23.207  0.00  0.00    +0.296 C 
ATOM      4  C   UNL     1      33.604 -15.743 -24.849  0.00  0.00    +0.260 C 
ATOM      5  C   UNL     1      35.319 -17.667 -24.096  0.00  0.00    +0.094 C 
ATOM      6  C   UNL     1      34.938 -17.497 -25.410  0.00  0.00    +0.119 C 
ENDROOT
BRANCH   3   7
ATOM      7  O   UNL     1      35.090 -16.889 -21.867  0.00  0.00    -0.427 OA
BRANCH   7  13
ATOM      8  O   UNL     1      32.835 -20.767 -20.098  0.00  0.00    -0.435 OA
ATOM      9  O   UNL     1      34.923 -21.873 -19.628  0.00  0.00    -0.435 OA
ATOM     10  C   UNL     1      33.910 -20.012 -20.450  0.00  0.00    +0.179 C 
ATOM     11  C   UNL     1      35.104 -20.644 -20.183  0.00  0.00    +0.177 C 
ATOM     12  C   UNL     1      33.867 -18.753 -21.014  0.00  0.00    +0.078 C 
ATOM     13  C   UNL     1      35.083 -18.131 -21.309  0.00  0.00    +0.151 C 
ATOM     14  C   UNL     1      36.318 -20.051 -20.463  0.00  0.00    +0.043 C 
ATOM     15  C   UNL     1      33.484 -21.945 -19.578  0.00  0.00    +0.429 C 
ATOM     16  C   UNL     1      36.301 -18.776 -21.034  0.00  0.00    +0.041 C 
ENDBRANCH   7  13
ENDBRANCH   3   7
BRANCH   4  17
ATOM     17  O   UNL     1      32.726 -14.758 -25.235  0.00  0.00    -0.383 OA
BRANCH  17  21
ATOM     18  C   UNL     1      33.577 -10.881 -24.018  0.00  0.00    +0.057 C 
ATOM     19  C   UNL     1      33.997 -11.327 -25.271  0.00  0.00    +0.018 C 
ATOM     20  C   UNL     1      32.870 -11.738 -23.174  0.00  0.00    +0.018 C 
ATOM     21  C   UNL     1      33.008 -13.470 -24.831  0.00  0.00    +0.160 C 
ATOM     22  C   UNL     1      33.710 -12.630 -25.680  0.00  0.00    +0.040 C 
ATOM     23  C   UNL     1      32.584 -13.041 -23.583  0.00  0.00    +0.040 C 
BRANCH  18  24
ATOM     24  N   UNL     1      33.860  -9.590 -23.612  0.00  0.00    -0.246 N 
ATOM     25  N   UNL     1      34.904  -7.626 -23.469  0.00  0.00    -0.224 NA
ATOM     26  C   UNL     1      33.147  -8.842 -22.711  0.00  0.00    +0.092 C 
ATOM     27  C   UNL     1      34.906  -8.811 -24.038  0.00  0.00    +0.172 C 
ATOM     28  C   UNL     1      33.810  -7.639 -22.640  0.00  0.00    +0.117 C 
ENDBRANCH  18  24
ENDBRANCH  17  21
ENDBRANCH   4  17
TORSDOF 5
ENDMDL
MODEL 8
REMARK VINA RESULT:     -10.9      4.848      9.011
REMARK  Name = 9969613
REMARK  5 active torsions:
REMARK  status: ('A' for Active; 'I' for Inactive)
REMARK    1  A    between atoms: C_3  and  O_7
REMARK    2  A    between atoms: C_4  and  O_17
REMARK    3  A    between atoms: O_7  and  C_13
REMARK    4  A    between atoms: O_17  and  C_21
REMARK    5  A    between atoms: C_18  and  N_24
REMARK                            x       y       z     vdW  Elec       q    Type
REMARK                         _______ _______ _______ _____ _____    ______ ____
ROOT
ATOM      1  N   UNL     1      34.523 -16.164 -23.040  0.00  0.00    -0.283 NA
ATOM      2  N   UNL     1      34.191 -14.286 -21.565  0.00  0.00    -0.151 NA
ATOM      3  C   UNL     1      34.884 -16.880 -21.964  0.00  0.00    +0.296 C 
ATOM      4  C   UNL     1      34.192 -14.886 -22.771  0.00  0.00    +0.260 C 
ATOM      5  C   UNL     1      34.929 -16.399 -20.679  0.00  0.00    +0.094 C 
ATOM      6  C   UNL     1      34.566 -15.076 -20.536  0.00  0.00    +0.119 C 
ENDROOT
BRANCH   3   7
ATOM      7  O   UNL     1      35.234 -18.201 -22.191  0.00  0.00    -0.427 OA
BRANCH   7  13
ATOM      8  O   UNL     1      35.424 -21.922 -19.129  0.00  0.00    -0.435 OA
ATOM      9  O   UNL     1      33.021 -22.067 -19.022  0.00  0.00    -0.435 OA
ATOM     10  C   UNL     1      34.815 -20.984 -19.904  0.00  0.00    +0.179 C 
ATOM     11  C   UNL     1      33.442 -21.065 -19.842  0.00  0.00    +0.177 C 
ATOM     12  C   UNL     1      35.450 -20.037 -20.680  0.00  0.00    +0.078 C 
ATOM     13  C   UNL     1      34.651 -19.153 -21.411  0.00  0.00    +0.151 C 
ATOM     14  C   UNL     1      32.630 -20.206 -20.554  0.00  0.00    +0.043 C 
ATOM     15  C   UNL     1      34.282 -22.604 -18.573  0.00  0.00    +0.429 C 
ATOM     16  C   UNL     1      33.250 -19.238 -21.349  0.00  0.00    +0.041 C 
ENDBRANCH   7  13
ENDBRANCH   3   7
BRANCH   4  17
ATOM     17  O   UNL     1      33.813 -14.111 -23.843  0.00  0.00    -0.383 OA
BRANCH  17  21
ATOM     18  C   UNL     1      32.493 -10.262 -23.023  0.00  0.00    +0.057 C 
ATOM     19  C   UNL     1      33.566 -10.461 -23.891  0.00  0.00    +0.018 C 
ATOM     20  C   UNL     1      31.862 -11.357 -22.431  0.00  0.00    +0.018 C 
ATOM     21  C   UNL     1      33.374 -12.833 -23.571  0.00  0.00    +0.160 C 
ATOM     22  C   UNL     1      34.010 -11.755 -24.166  0.00  0.00    +0.040 C 
ATOM     23  C   UNL     1      32.306 -12.650 -22.707  0.00  0.00    +0.040 C 
BRANCH  18  24
ATOM     24  N   UNL     1      32.052  -8.980 -22.750  0.00  0.00    -0.246 N 
ATOM     25  N   UNL     1      31.783  -7.048 -21.671  0.00  0.00    -0.224 NA
ATOM     26  C   UNL     1      31.234  -8.211 -23.538  0.00  0.00    +0.092 C 
ATOM     27  C   UNL     1      32.353  -8.232 -21.640  0.00  0.00    +0.172 C 
ATOM     28  C   UNL     1      31.084  -7.029 -22.852  0.00  0.00    +0.117 C 
ENDBRANCH  18  24
ENDBRANCH  17  21
ENDBRANCH   4  17
TORSDOF 5
ENDMDL
MODEL 9
REMARK VINA RESULT:     -10.8      4.774      8.220
REMARK  Name = 9969613
REMARK  5 active torsions:
REMARK  status: ('A' for Active; 'I' for Inactive)
REMARK    1  A    between atoms: C_3  and  O_7
REMARK    2  A    between atoms: C_4  and  O_17
REMARK    3  A    between atoms: O_7  and  C_13
REMARK    4  A    between atoms: O_17  and  C_21
REMARK    5  A    between atoms: C_18  and  N_24
REMARK                            x       y       z     vdW  Elec       q    Type
REMARK                         _______ _______ _______ _____ _____    ______ ____
ROOT
ATOM      1  N   UNL     1      34.807 -16.466 -23.451  0.00  0.00    -0.283 NA
ATOM      2  N   UNL     1      34.010 -17.484 -25.486  0.00  0.00    -0.151 NA
ATOM      3  C   UNL     1      35.151 -17.694 -23.031  0.00  0.00    +0.296 C 
ATOM      4  C   UNL     1      34.247 -16.434 -24.676  0.00  0.00    +0.260 C 
ATOM      5  C   UNL     1      34.969 -18.849 -23.750  0.00  0.00    +0.094 C 
ATOM      6  C   UNL     1      34.385 -18.682 -24.989  0.00  0.00    +0.119 C 
ENDROOT
BRANCH   3   7
ATOM      7  O   UNL     1      35.731 -17.777 -21.776  0.00  0.00    -0.427 OA
BRANCH   7  13
ATOM      8  O   UNL     1      33.021 -21.193 -19.718  0.00  0.00    -0.435 OA
ATOM      9  O   UNL     1      34.964 -22.425 -19.002  0.00  0.00    -0.435 OA
ATOM     10  C   UNL     1      34.181 -20.588 -20.088  0.00  0.00    +0.179 C 
ATOM     11  C   UNL     1      35.292 -21.291 -19.680  0.00  0.00    +0.177 C 
ATOM     12  C   UNL     1      34.290 -19.406 -20.793  0.00  0.00    +0.078 C 
ATOM     13  C   UNL     1      35.574 -18.939 -21.083  0.00  0.00    +0.151 C 
ATOM     14  C   UNL     1      36.571 -20.851 -19.953  0.00  0.00    +0.043 C 
ATOM     15  C   UNL     1      33.524 -22.356 -19.030  0.00  0.00    +0.429 C 
ATOM     16  C   UNL     1      36.708 -19.657 -20.665  0.00  0.00    +0.041 C 
ENDBRANCH   7  13
ENDBRANCH   3   7
BRANCH   4  17
ATOM     17  O   UNL     1      33.878 -15.197 -25.150  0.00  0.00    -0.383 OA
BRANCH  17  21
ATOM     18  C   UNL     1      32.511 -12.433 -22.371  0.00  0.00    +0.057 C 
ATOM     19  C   UNL     1      32.327 -13.797 -22.147  0.00  0.00    +0.018 C 
ATOM     20  C   UNL     1      33.156 -11.997 -23.529  0.00  0.00    +0.018 C 
ATOM     21  C   UNL     1      33.425 -14.279 -24.227  0.00  0.00    +0.160 C 
ATOM     22  C   UNL     1      32.787 -14.725 -23.081  0.00  0.00    +0.040 C 
ATOM     23  C   UNL     1      33.615 -12.926 -24.463  0.00  0.00    +0.040 C 
BRANCH  18  24
ATOM     24  N   UNL     1      32.056 -11.512 -21.445  0.00  0.00    -0.246 N 
ATOM     25  N   UNL     1      31.492  -9.548 -20.555  0.00  0.00    -0.224 NA
ATOM     26  C   UNL     1      31.606 -11.781 -20.178  0.00  0.00    +0.092 C 
ATOM     27  C   UNL     1      31.966 -10.154 -21.621  0.00  0.00    +0.172 C 
ATOM     28  C   UNL     1      31.265 -10.556 -19.652  0.00  0.00    +0.117 C 
ENDBRANCH  18  24
ENDBRANCH  17  21
ENDBRANCH   4  17
TORSDOF 5
ENDMDL
