MODEL 1
REMARK VINA RESULT:      -6.7      0.000      0.000
REMARK  Name = 6852189
REMARK  9 active torsions:
REMARK  status: ('A' for Active; 'I' for Inactive)
REMARK    1  A    between atoms: N_2  and  CA_5
REMARK    2  A    between atoms: C_3  and  C_13
REMARK    3  A    between atoms: CA_5  and  C_7
REMARK    4  A    between atoms: CA_5  and  C_10
REMARK    5  A    between atoms: C_7  and  O_8
REMARK    6  A    between atoms: C_10  and  C_11
REMARK    7  A    between atoms: C_13  and  C_14
REMARK    8  A    between atoms: C_14  and  C_16
REMARK    9  A    between atoms: C_16  and  O_17
REMARK                            x       y       z     vdW  Elec       q    Type
REMARK                         _______ _______ _______ _____ _____    ______ ____
ROOT
ATOM      1  O   UNL     1      36.301 -26.681 -15.912  0.00  0.00    -0.275 OA
ATOM      2  N   UNL     1      35.866 -25.189 -14.182  0.00  0.00    -0.297 N 
ATOM      3  C   UNL     1      36.616 -26.151 -14.849  0.00  0.00    +0.223 C 
ATOM      4  H   UNL     1      36.214 -24.830 -13.334  0.00  0.00    +0.150 HD
ENDROOT
BRANCH   2   5
ATOM      5  CA  UNL     1      34.606 -24.691 -14.671  0.00  0.00    +0.171 C 
BRANCH   5   7
ATOM      6  OXT UNL     1      34.614 -23.597 -16.830  0.00  0.00    -0.248 OA
ATOM      7  C   UNL     1      34.808 -23.520 -15.621  0.00  0.00    +0.332 C 
BRANCH   7   8
ATOM      8  O   UNL     1      35.216 -22.371 -15.028  0.00  0.00    -0.479 OA
ATOM      9  H   UNL     1      34.585 -21.772 -14.681  0.00  0.00    +0.295 HD
ENDBRANCH   7   8
ENDBRANCH   5   7
BRANCH   5  10
ATOM     10  C   UNL     1      33.687 -24.280 -13.516  0.00  0.00    +0.031 C 
BRANCH  10  11
ATOM     11  C   UNL     1      32.279 -23.907 -13.990  0.00  0.00    +0.002 C 
ATOM     12  C   UNL     1      31.341 -25.103 -13.940  0.00  0.00    +0.000 C 
ENDBRANCH  10  11
ENDBRANCH   5  10
ENDBRANCH   2   5
BRANCH   3  13
ATOM     13  C   UNL     1      37.894 -26.485 -14.102  0.00  0.00    +0.097 C 
BRANCH  13  14
ATOM     14  C   UNL     1      38.974 -25.423 -14.288  0.00  0.00    +0.119 C 
BRANCH  14  16
ATOM     15  O   UNL     1      41.126 -26.540 -14.092  0.00  0.00    -0.250 OA
ATOM     16  C   UNL     1      40.269 -26.017 -14.789  0.00  0.00    +0.314 C 
BRANCH  16  17
ATOM     17  O   UNL     1      40.377 -25.904 -16.139  0.00  0.00    -0.480 OA
ATOM     18  H   UNL     1      40.733 -26.609 -16.642  0.00  0.00    +0.295 HD
ENDBRANCH  16  17
ENDBRANCH  14  16
ENDBRANCH  13  14
ENDBRANCH   3  13
TORSDOF 9
ENDMDL
MODEL 2
REMARK VINA RESULT:      -6.7      9.511     11.950
REMARK  Name = 6852189
REMARK  9 active torsions:
REMARK  status: ('A' for Active; 'I' for Inactive)
REMARK    1  A    between atoms: N_2  and  CA_5
REMARK    2  A    between atoms: C_3  and  C_13
REMARK    3  A    between atoms: CA_5  and  C_7
REMARK    4  A    between atoms: CA_5  and  C_10
REMARK    5  A    between atoms: C_7  and  O_8
REMARK    6  A    between atoms: C_10  and  C_11
REMARK    7  A    between atoms: C_13  and  C_14
REMARK    8  A    between atoms: C_14  and  C_16
REMARK    9  A    between atoms: C_16  and  O_17
REMARK                            x       y       z     vdW  Elec       q    Type
REMARK                         _______ _______ _______ _____ _____    ______ ____
ROOT
ATOM      1  O   UNL     1      34.170 -15.556 -20.955  0.00  0.00    -0.275 OA
ATOM      2  N   UNL     1      34.967 -17.242 -22.342  0.00  0.00    -0.297 N 
ATOM      3  C   UNL     1      34.559 -15.946 -22.052  0.00  0.00    +0.223 C 
ATOM      4  H   UNL     1      35.262 -17.446 -23.259  0.00  0.00    +0.150 HD
ENDROOT
BRANCH   2   5
ATOM      5  CA  UNL     1      34.982 -18.302 -21.366  0.00  0.00    +0.171 C 
BRANCH   5   7
ATOM      6  OXT UNL     1      36.702 -19.549 -20.208  0.00  0.00    -0.248 OA
ATOM      7  C   UNL     1      36.390 -18.840 -21.159  0.00  0.00    +0.332 C 
BRANCH   7   8
ATOM      8  O   UNL     1      37.282 -18.479 -22.113  0.00  0.00    -0.479 OA
ATOM      9  H   UNL     1      38.102 -18.099 -21.869  0.00  0.00    +0.295 HD
ENDBRANCH   7   8
ENDBRANCH   5   7
BRANCH   5  10
ATOM     10  C   UNL     1      34.037 -19.440 -21.770  0.00  0.00    +0.031 C 
BRANCH  10  11
ATOM     11  C   UNL     1      32.989 -19.742 -20.695  0.00  0.00    +0.002 C 
ATOM     12  C   UNL     1      33.369 -20.966 -19.877  0.00  0.00    +0.000 C 
ENDBRANCH  10  11
ENDBRANCH   5  10
ENDBRANCH   2   5
BRANCH   3  13
ATOM     13  C   UNL     1      34.646 -15.044 -23.270  0.00  0.00    +0.097 C 
BRANCH  13  14
ATOM     14  C   UNL     1      33.489 -15.261 -24.241  0.00  0.00    +0.119 C 
BRANCH  14  16
ATOM     15  O   UNL     1      34.564 -17.047 -25.498  0.00  0.00    -0.250 OA
ATOM     16  C   UNL     1      33.926 -16.004 -25.482  0.00  0.00    +0.314 C 
BRANCH  16  17
ATOM     17  O   UNL     1      33.516 -15.367 -26.611  0.00  0.00    -0.480 OA
ATOM     18  H   UNL     1      32.776 -14.793 -26.583  0.00  0.00    +0.295 HD
ENDBRANCH  16  17
ENDBRANCH  14  16
ENDBRANCH  13  14
ENDBRANCH   3  13
TORSDOF 9
ENDMDL
MODEL 3
REMARK VINA RESULT:      -6.6      9.590     12.141
REMARK  Name = 6852189
REMARK  9 active torsions:
REMARK  status: ('A' for Active; 'I' for Inactive)
REMARK    1  A    between atoms: N_2  and  CA_5
REMARK    2  A    between atoms: C_3  and  C_13
REMARK    3  A    between atoms: CA_5  and  C_7
REMARK    4  A    between atoms: CA_5  and  C_10
REMARK    5  A    between atoms: C_7  and  O_8
REMARK    6  A    between atoms: C_10  and  C_11
REMARK    7  A    between atoms: C_13  and  C_14
REMARK    8  A    between atoms: C_14  and  C_16
REMARK    9  A    between atoms: C_16  and  O_17
REMARK                            x       y       z     vdW  Elec       q    Type
REMARK                         _______ _______ _______ _____ _____    ______ ____
ROOT
ATOM      1  O   UNL     1      34.971 -15.308 -20.294  0.00  0.00    -0.275 OA
ATOM      2  N   UNL     1      33.921 -17.024 -21.459  0.00  0.00    -0.297 N 
ATOM      3  C   UNL     1      33.967 -15.801 -20.802  0.00  0.00    +0.223 C 
ATOM      4  H   UNL     1      33.060 -17.324 -21.830  0.00  0.00    +0.150 HD
ENDROOT
BRANCH   2   5
ATOM      5  CA  UNL     1      35.071 -17.876 -21.625  0.00  0.00    +0.171 C 
BRANCH   5   7
ATOM      6  OXT UNL     1      35.527 -19.068 -23.680  0.00  0.00    -0.248 OA
ATOM      7  C   UNL     1      35.461 -17.995 -23.091  0.00  0.00    +0.332 C 
BRANCH   7   8
ATOM      8  O   UNL     1      35.726 -16.816 -23.705  0.00  0.00    -0.479 OA
ATOM      9  H   UNL     1      36.022 -16.807 -24.594  0.00  0.00    +0.295 HD
ENDBRANCH   7   8
ENDBRANCH   5   7
BRANCH   5  10
ATOM     10  C   UNL     1      34.821 -19.266 -21.031  0.00  0.00    +0.031 C 
BRANCH  10  11
ATOM     11  C   UNL     1      33.330 -19.570 -20.855  0.00  0.00    +0.002 C 
ATOM     12  C   UNL     1      33.112 -20.776 -19.955  0.00  0.00    +0.000 C 
ENDBRANCH  10  11
ENDBRANCH   5  10
ENDBRANCH   2   5
BRANCH   3  13
ATOM     13  C   UNL     1      32.608 -15.125 -20.777  0.00  0.00    +0.097 C 
BRANCH  13  14
ATOM     14  C   UNL     1      32.535 -13.926 -21.719  0.00  0.00    +0.119 C 
BRANCH  14  16
ATOM     15  O   UNL     1      33.191 -15.106 -23.743  0.00  0.00    -0.250 OA
ATOM     16  C   UNL     1      33.325 -14.155 -22.986  0.00  0.00    +0.314 C 
BRANCH  16  17
ATOM     17  O   UNL     1      34.223 -13.157 -23.197  0.00  0.00    -0.480 OA
ATOM     18  H   UNL     1      34.759 -13.163 -23.966  0.00  0.00    +0.295 HD
ENDBRANCH  16  17
ENDBRANCH  14  16
ENDBRANCH  13  14
ENDBRANCH   3  13
TORSDOF 9
ENDMDL
MODEL 4
REMARK VINA RESULT:      -6.6      7.510      9.630
REMARK  Name = 6852189
REMARK  9 active torsions:
REMARK  status: ('A' for Active; 'I' for Inactive)
REMARK    1  A    between atoms: N_2  and  CA_5
REMARK    2  A    between atoms: C_3  and  C_13
REMARK    3  A    between atoms: CA_5  and  C_7
REMARK    4  A    between atoms: CA_5  and  C_10
REMARK    5  A    between atoms: C_7  and  O_8
REMARK    6  A    between atoms: C_10  and  C_11
REMARK    7  A    between atoms: C_13  and  C_14
REMARK    8  A    between atoms: C_14  and  C_16
REMARK    9  A    between atoms: C_16  and  O_17
REMARK                            x       y       z     vdW  Elec       q    Type
REMARK                         _______ _______ _______ _____ _____    ______ ____
ROOT
ATOM      1  O   UNL     1      35.567 -20.122 -20.018  0.00  0.00    -0.275 OA
ATOM      2  N   UNL     1      34.194 -18.729 -21.276  0.00  0.00    -0.297 N 
ATOM      3  C   UNL     1      34.481 -19.869 -20.534  0.00  0.00    +0.223 C 
ATOM      4  H   UNL     1      33.287 -18.628 -21.645  0.00  0.00    +0.150 HD
ENDROOT
BRANCH   2   5
ATOM      5  CA  UNL     1      35.158 -17.690 -21.533  0.00  0.00    +0.171 C 
BRANCH   5   7
ATOM      6  OXT UNL     1      33.746 -15.839 -22.191  0.00  0.00    -0.248 OA
ATOM      7  C   UNL     1      34.534 -16.311 -21.379  0.00  0.00    +0.332 C 
BRANCH   7   8
ATOM      8  O   UNL     1      34.911 -15.638 -20.264  0.00  0.00    -0.479 OA
ATOM      9  H   UNL     1      35.730 -15.185 -20.244  0.00  0.00    +0.295 HD
ENDBRANCH   7   8
ENDBRANCH   5   7
BRANCH   5  10
ATOM     10  C   UNL     1      35.774 -17.837 -22.928  0.00  0.00    +0.031 C 
BRANCH  10  11
ATOM     11  C   UNL     1      34.941 -18.737 -23.846  0.00  0.00    +0.002 C 
ATOM     12  C   UNL     1      34.445 -17.979 -25.067  0.00  0.00    +0.000 C 
ENDBRANCH  10  11
ENDBRANCH   5  10
ENDBRANCH   2   5
BRANCH   3  13
ATOM     13  C   UNL     1      33.279 -20.789 -20.430  0.00  0.00    +0.097 C 
BRANCH  13  14
ATOM     14  C   UNL     1      33.210 -21.510 -19.087  0.00  0.00    +0.119 C 
BRANCH  14  16
ATOM     15  O   UNL     1      33.901 -23.778 -19.635  0.00  0.00    -0.250 OA
ATOM     16  C   UNL     1      34.109 -22.724 -19.051  0.00  0.00    +0.314 C 
BRANCH  16  17
ATOM     17  O   UNL     1      35.205 -22.507 -18.278  0.00  0.00    -0.480 OA
ATOM     18  H   UNL     1      35.298 -21.699 -17.812  0.00  0.00    +0.295 HD
ENDBRANCH  16  17
ENDBRANCH  14  16
ENDBRANCH  13  14
ENDBRANCH   3  13
TORSDOF 9
ENDMDL
MODEL 5
REMARK VINA RESULT:      -6.6      1.688      2.098
REMARK  Name = 6852189
REMARK  9 active torsions:
REMARK  status: ('A' for Active; 'I' for Inactive)
REMARK    1  A    between atoms: N_2  and  CA_5
REMARK    2  A    between atoms: C_3  and  C_13
REMARK    3  A    between atoms: CA_5  and  C_7
REMARK    4  A    between atoms: CA_5  and  C_10
REMARK    5  A    between atoms: C_7  and  O_8
REMARK    6  A    between atoms: C_10  and  C_11
REMARK    7  A    between atoms: C_13  and  C_14
REMARK    8  A    between atoms: C_14  and  C_16
REMARK    9  A    between atoms: C_16  and  O_17
REMARK                            x       y       z     vdW  Elec       q    Type
REMARK                         _______ _______ _______ _____ _____    ______ ____
ROOT
ATOM      1  O   UNL     1      36.152 -26.430 -15.726  0.00  0.00    -0.275 OA
ATOM      2  N   UNL     1      37.030 -24.451 -14.879  0.00  0.00    -0.297 N 
ATOM      3  C   UNL     1      36.887 -25.831 -14.944  0.00  0.00    +0.223 C 
ATOM      4  H   UNL     1      37.649 -24.075 -14.212  0.00  0.00    +0.150 HD
ENDROOT
BRANCH   2   5
ATOM      5  CA  UNL     1      36.316 -23.541 -15.738  0.00  0.00    +0.171 C 
BRANCH   5   7
ATOM      6  OXT UNL     1      36.866 -21.452 -16.827  0.00  0.00    -0.248 OA
ATOM      7  C   UNL     1      37.255 -22.513 -16.352  0.00  0.00    +0.332 C 
BRANCH   7   8
ATOM      8  O   UNL     1      38.566 -22.856 -16.328  0.00  0.00    -0.479 OA
ATOM      9  H   UNL     1      38.901 -23.381 -15.628  0.00  0.00    +0.295 HD
ENDBRANCH   7   8
ENDBRANCH   5   7
BRANCH   5  10
ATOM     10  C   UNL     1      35.184 -22.837 -14.983  0.00  0.00    +0.031 C 
BRANCH  10  11
ATOM     11  C   UNL     1      33.811 -23.448 -15.279  0.00  0.00    +0.002 C 
ATOM     12  C   UNL     1      33.441 -23.298 -16.746  0.00  0.00    +0.000 C 
ENDBRANCH  10  11
ENDBRANCH   5  10
ENDBRANCH   2   5
BRANCH   3  13
ATOM     13  C   UNL     1      37.757 -26.535 -13.919  0.00  0.00    +0.097 C 
BRANCH  13  14
ATOM     14  C   UNL     1      38.991 -25.721 -13.542  0.00  0.00    +0.119 C 
BRANCH  14  16
ATOM     15  O   UNL     1      41.175 -26.624 -14.123  0.00  0.00    -0.250 OA
ATOM     16  C   UNL     1      40.163 -26.020 -14.448  0.00  0.00    +0.314 C 
BRANCH  16  17
ATOM     17  O   UNL     1      39.960 -25.531 -15.699  0.00  0.00    -0.480 OA
ATOM     18  H   UNL     1      39.203 -25.790 -16.187  0.00  0.00    +0.295 HD
ENDBRANCH  16  17
ENDBRANCH  14  16
ENDBRANCH  13  14
ENDBRANCH   3  13
TORSDOF 9
ENDMDL
MODEL 6
REMARK VINA RESULT:      -6.6      2.066      3.274
REMARK  Name = 6852189
REMARK  9 active torsions:
REMARK  status: ('A' for Active; 'I' for Inactive)
REMARK    1  A    between atoms: N_2  and  CA_5
REMARK    2  A    between atoms: C_3  and  C_13
REMARK    3  A    between atoms: CA_5  and  C_7
REMARK    4  A    between atoms: CA_5  and  C_10
REMARK    5  A    between atoms: C_7  and  O_8
REMARK    6  A    between atoms: C_10  and  C_11
REMARK    7  A    between atoms: C_13  and  C_14
REMARK    8  A    between atoms: C_14  and  C_16
REMARK    9  A    between atoms: C_16  and  O_17
REMARK                            x       y       z     vdW  Elec       q    Type
REMARK                         _______ _______ _______ _____ _____    ______ ____
ROOT
ATOM      1  O   UNL     1      37.882 -23.085 -12.588  0.00  0.00    -0.275 OA
ATOM      2  N   UNL     1      36.547 -24.432 -13.933  0.00  0.00    -0.297 N 
ATOM      3  C   UNL     1      37.646 -24.164 -13.126  0.00  0.00    +0.223 C 
ATOM      4  H   UNL     1      36.456 -25.335 -14.315  0.00  0.00    +0.150 HD
ENDROOT
BRANCH   2   5
ATOM      5  CA  UNL     1      35.534 -23.455 -14.238  0.00  0.00    +0.171 C 
BRANCH   5   7
ATOM      6  OXT UNL     1      33.156 -23.754 -14.572  0.00  0.00    -0.248 OA
ATOM      7  C   UNL     1      34.147 -23.971 -13.883  0.00  0.00    +0.332 C 
BRANCH   7   8
ATOM      8  O   UNL     1      34.087 -24.700 -12.742  0.00  0.00    -0.479 OA
ATOM      9  H   UNL     1      33.403 -24.545 -12.121  0.00  0.00    +0.295 HD
ENDBRANCH   7   8
ENDBRANCH   5   7
BRANCH   5  10
ATOM     10  C   UNL     1      35.583 -23.047 -15.714  0.00  0.00    +0.031 C 
BRANCH  10  11
ATOM     11  C   UNL     1      36.973 -22.571 -16.146  0.00  0.00    +0.002 C 
ATOM     12  C   UNL     1      36.899 -21.686 -17.381  0.00  0.00    +0.000 C 
ENDBRANCH  10  11
ENDBRANCH   5  10
ENDBRANCH   2   5
BRANCH   3  13
ATOM     13  C   UNL     1      38.547 -25.377 -12.982  0.00  0.00    +0.097 C 
BRANCH  13  14
ATOM     14  C   UNL     1      38.907 -26.000 -14.328  0.00  0.00    +0.119 C 
BRANCH  14  16
ATOM     15  O   UNL     1      40.967 -24.705 -14.272  0.00  0.00    -0.250 OA
ATOM     16  C   UNL     1      40.220 -25.474 -14.859  0.00  0.00    +0.314 C 
BRANCH  16  17
ATOM     17  O   UNL     1      40.487 -25.969 -16.097  0.00  0.00    -0.480 OA
ATOM     18  H   UNL     1      40.892 -25.424 -16.742  0.00  0.00    +0.295 HD
ENDBRANCH  16  17
ENDBRANCH  14  16
ENDBRANCH  13  14
ENDBRANCH   3  13
TORSDOF 9
ENDMDL
MODEL 7
REMARK VINA RESULT:      -6.5      7.004      8.771
REMARK  Name = 6852189
REMARK  9 active torsions:
REMARK  status: ('A' for Active; 'I' for Inactive)
REMARK    1  A    between atoms: N_2  and  CA_5
REMARK    2  A    between atoms: C_3  and  C_13
REMARK    3  A    between atoms: CA_5  and  C_7
REMARK    4  A    between atoms: CA_5  and  C_10
REMARK    5  A    between atoms: C_7  and  O_8
REMARK    6  A    between atoms: C_10  and  C_11
REMARK    7  A    between atoms: C_13  and  C_14
REMARK    8  A    between atoms: C_14  and  C_16
REMARK    9  A    between atoms: C_16  and  O_17
REMARK                            x       y       z     vdW  Elec       q    Type
REMARK                         _______ _______ _______ _____ _____    ______ ____
ROOT
ATOM      1  O   UNL     1      32.743 -20.483 -20.529  0.00  0.00    -0.275 OA
ATOM      2  N   UNL     1      34.865 -19.545 -20.690  0.00  0.00    -0.297 N 
ATOM      3  C   UNL     1      33.942 -20.491 -20.260  0.00  0.00    +0.223 C 
ATOM      4  H   UNL     1      35.804 -19.649 -20.414  0.00  0.00    +0.150 HD
ENDROOT
BRANCH   2   5
ATOM      5  CA  UNL     1      34.515 -18.420 -21.519  0.00  0.00    +0.171 C 
BRANCH   5   7
ATOM      6  OXT UNL     1      34.406 -18.966 -23.874  0.00  0.00    -0.248 OA
ATOM      7  C   UNL     1      35.077 -18.577 -22.924  0.00  0.00    +0.332 C 
BRANCH   7   8
ATOM      8  O   UNL     1      36.385 -18.244 -23.053  0.00  0.00    -0.479 OA
ATOM      9  H   UNL     1      37.009 -18.541 -22.422  0.00  0.00    +0.295 HD
ENDBRANCH   7   8
ENDBRANCH   5   7
BRANCH   5  10
ATOM     10  C   UNL     1      35.000 -17.104 -20.901  0.00  0.00    +0.031 C 
BRANCH  10  11
ATOM     11  C   UNL     1      34.334 -15.879 -21.533  0.00  0.00    +0.002 C 
ATOM     12  C   UNL     1      33.293 -15.271 -20.605  0.00  0.00    +0.000 C 
ENDBRANCH  10  11
ENDBRANCH   5  10
ENDBRANCH   2   5
BRANCH   3  13
ATOM     13  C   UNL     1      34.592 -21.559 -19.400  0.00  0.00    +0.097 C 
BRANCH  13  14
ATOM     14  C   UNL     1      36.082 -21.311 -19.186  0.00  0.00    +0.119 C 
BRANCH  14  16
ATOM     15  O   UNL     1      36.228 -22.655 -17.163  0.00  0.00    -0.250 OA
ATOM     16  C   UNL     1      36.512 -21.635 -17.774  0.00  0.00    +0.314 C 
BRANCH  16  17
ATOM     17  O   UNL     1      37.272 -20.640 -17.247  0.00  0.00    -0.480 OA
ATOM     18  H   UNL     1      38.187 -20.776 -17.102  0.00  0.00    +0.295 HD
ENDBRANCH  16  17
ENDBRANCH  14  16
ENDBRANCH  13  14
ENDBRANCH   3  13
TORSDOF 9
ENDMDL
MODEL 8
REMARK VINA RESULT:      -6.5      7.539      9.530
REMARK  Name = 6852189
REMARK  9 active torsions:
REMARK  status: ('A' for Active; 'I' for Inactive)
REMARK    1  A    between atoms: N_2  and  CA_5
REMARK    2  A    between atoms: C_3  and  C_13
REMARK    3  A    between atoms: CA_5  and  C_7
REMARK    4  A    between atoms: CA_5  and  C_10
REMARK    5  A    between atoms: C_7  and  O_8
REMARK    6  A    between atoms: C_10  and  C_11
REMARK    7  A    between atoms: C_13  and  C_14
REMARK    8  A    between atoms: C_14  and  C_16
REMARK    9  A    between atoms: C_16  and  O_17
REMARK                            x       y       z     vdW  Elec       q    Type
REMARK                         _______ _______ _______ _____ _____    ______ ____
ROOT
ATOM      1  O   UNL     1      33.489 -20.229 -21.130  0.00  0.00    -0.275 OA
ATOM      2  N   UNL     1      35.156 -18.622 -20.909  0.00  0.00    -0.297 N 
ATOM      3  C   UNL     1      34.571 -19.861 -20.678  0.00  0.00    +0.223 C 
ATOM      4  H   UNL     1      36.029 -18.432 -20.497  0.00  0.00    +0.150 HD
ENDROOT
BRANCH   2   5
ATOM      5  CA  UNL     1      34.547 -17.601 -21.724  0.00  0.00    +0.171 C 
BRANCH   5   7
ATOM      6  OXT UNL     1      35.548 -18.387 -23.782  0.00  0.00    -0.248 OA
ATOM      7  C   UNL     1      35.282 -17.442 -23.047  0.00  0.00    +0.332 C 
BRANCH   7   8
ATOM      8  O   UNL     1      35.618 -16.167 -23.359  0.00  0.00    -0.479 OA
ATOM      9  H   UNL     1      35.238 -15.752 -24.109  0.00  0.00    +0.295 HD
ENDBRANCH   7   8
ENDBRANCH   5   7
BRANCH   5  10
ATOM     10  C   UNL     1      34.495 -16.260 -20.985  0.00  0.00    +0.031 C 
BRANCH  10  11
ATOM     11  C   UNL     1      33.066 -15.737 -20.816  0.00  0.00    +0.002 C 
ATOM     12  C   UNL     1      33.028 -14.217 -20.804  0.00  0.00    +0.000 C 
ENDBRANCH  10  11
ENDBRANCH   5  10
ENDBRANCH   2   5
BRANCH   3  13
ATOM     13  C   UNL     1      35.435 -20.732 -19.783  0.00  0.00    +0.097 C 
BRANCH  13  14
ATOM     14  C   UNL     1      34.983 -22.189 -19.774  0.00  0.00    +0.119 C 
BRANCH  14  16
ATOM     15  O   UNL     1      34.505 -22.937 -17.508  0.00  0.00    -0.250 OA
ATOM     16  C   UNL     1      34.111 -22.502 -18.580  0.00  0.00    +0.314 C 
BRANCH  16  17
ATOM     17  O   UNL     1      32.803 -22.236 -18.839  0.00  0.00    -0.480 OA
ATOM     18  H   UNL     1      32.572 -21.515 -19.391  0.00  0.00    +0.295 HD
ENDBRANCH  16  17
ENDBRANCH  14  16
ENDBRANCH  13  14
ENDBRANCH   3  13
TORSDOF 9
ENDMDL
MODEL 9
REMARK VINA RESULT:      -6.4      2.237      5.805
REMARK  Name = 6852189
REMARK  9 active torsions:
REMARK  status: ('A' for Active; 'I' for Inactive)
REMARK    1  A    between atoms: N_2  and  CA_5
REMARK    2  A    between atoms: C_3  and  C_13
REMARK    3  A    between atoms: CA_5  and  C_7
REMARK    4  A    between atoms: CA_5  and  C_10
REMARK    5  A    between atoms: C_7  and  O_8
REMARK    6  A    between atoms: C_10  and  C_11
REMARK    7  A    between atoms: C_13  and  C_14
REMARK    8  A    between atoms: C_14  and  C_16
REMARK    9  A    between atoms: C_16  and  O_17
REMARK                            x       y       z     vdW  Elec       q    Type
REMARK                         _______ _______ _______ _____ _____    ______ ____
ROOT
ATOM      1  O   UNL     1      35.663 -22.648 -14.934  0.00  0.00    -0.275 OA
ATOM      2  N   UNL     1      35.484 -24.965 -15.006  0.00  0.00    -0.297 N 
ATOM      3  C   UNL     1      35.026 -23.666 -15.192  0.00  0.00    +0.223 C 
ATOM      4  H   UNL     1      34.888 -25.710 -15.247  0.00  0.00    +0.150 HD
ENDROOT
BRANCH   2   5
ATOM      5  CA  UNL     1      36.788 -25.275 -14.478  0.00  0.00    +0.171 C 
BRANCH   5   7
ATOM      6  OXT UNL     1      38.254 -27.198 -14.554  0.00  0.00    -0.248 OA
ATOM      7  C   UNL     1      37.317 -26.582 -15.049  0.00  0.00    +0.332 C 
BRANCH   7   8
ATOM      8  O   UNL     1      36.666 -27.024 -16.153  0.00  0.00    -0.479 OA
ATOM      9  H   UNL     1      35.989 -27.667 -16.073  0.00  0.00    +0.295 HD
ENDBRANCH   7   8
ENDBRANCH   5   7
BRANCH   5  10
ATOM     10  C   UNL     1      36.766 -25.339 -12.947  0.00  0.00    +0.031 C 
BRANCH  10  11
ATOM     11  C   UNL     1      37.813 -24.424 -12.306  0.00  0.00    +0.002 C 
ATOM     12  C   UNL     1      37.179 -23.157 -11.752  0.00  0.00    +0.000 C 
ENDBRANCH  10  11
ENDBRANCH   5  10
ENDBRANCH   2   5
BRANCH   3  13
ATOM     13  C   UNL     1      33.618 -23.643 -15.758  0.00  0.00    +0.097 C 
BRANCH  13  14
ATOM     14  C   UNL     1      32.564 -23.365 -14.691  0.00  0.00    +0.119 C 
BRANCH  14  16
ATOM     15  O   UNL     1      31.065 -25.250 -14.343  0.00  0.00    -0.250 OA
ATOM     16  C   UNL     1      32.076 -24.636 -14.035  0.00  0.00    +0.314 C 
BRANCH  16  17
ATOM     17  O   UNL     1      32.912 -25.032 -13.040  0.00  0.00    -0.480 OA
ATOM     18  H   UNL     1      33.704 -24.559 -12.877  0.00  0.00    +0.295 HD
ENDBRANCH  16  17
ENDBRANCH  14  16
ENDBRANCH  13  14
ENDBRANCH   3  13
TORSDOF 9
ENDMDL
