MODEL 1
REMARK VINA RESULT:     -10.9      0.000      0.000
REMARK  Name = 24963047
REMARK  4 active torsions:
REMARK  status: ('A' for Active; 'I' for Inactive)
REMARK    1  A    between atoms: C_1  and  S_20
REMARK    2  A    between atoms: C_2  and  C_10
REMARK    3  A    between atoms: S_20  and  N_23
REMARK    4  A    between atoms: N_23  and  C_25
REMARK                            x       y       z     vdW  Elec       q    Type
REMARK                         _______ _______ _______ _____ _____    ______ ____
ROOT
ATOM      1  C   UNL     1      33.822 -22.017 -18.826  0.00  0.00    +0.122 C 
ATOM      2  C   UNL     1      34.266 -20.001 -20.702  0.00  0.00    +0.000 C 
ATOM      3  C   UNL     1      32.746 -21.296 -19.342  0.00  0.00    +0.020 C 
ATOM      4  C   UNL     1      35.120 -21.731 -19.248  0.00  0.00    +0.020 C 
ATOM      5  C   UNL     1      32.968 -20.287 -20.280  0.00  0.00    +0.001 C 
ATOM      6  C   UNL     1      35.342 -20.724 -20.186  0.00  0.00    +0.001 C 
ENDROOT
BRANCH   2  10
ATOM      7  N   UNL     1      35.077 -15.810 -24.236  0.00  0.00    -0.275 N 
ATOM      8  N   UNL     1      34.797 -14.714 -23.512  0.00  0.00    -0.158 NA
ATOM      9  N   UNL     1      34.103 -14.478 -21.232  0.00  0.00    -0.341 N 
ATOM     10  C   UNL     1      34.497 -18.957 -21.676  0.00  0.00    +0.000 C 
ATOM     11  C   UNL     1      34.538 -16.621 -22.271  0.00  0.00    +0.050 A 
ATOM     12  C   UNL     1      34.309 -17.618 -21.309  0.00  0.00    +0.004 C 
ATOM     13  C   UNL     1      34.941 -16.987 -23.551  0.00  0.00    +0.077 A 
ATOM     14  C   UNL     1      34.902 -19.297 -22.968  0.00  0.00    +0.002 C 
ATOM     15  C   UNL     1      35.133 -18.315 -23.937  0.00  0.00    +0.019 C 
ATOM     16  C   UNL     1      34.469 -15.212 -22.316  0.00  0.00    +0.146 A 
ATOM     17  H   UNL     1      35.356 -15.770 -25.179  0.00  0.00    +0.189 HD
ATOM     18  H   UNL     1      34.064 -13.496 -21.293  0.00  0.00    +0.144 HD
ATOM     19  H   UNL     1      33.877 -14.929 -20.386  0.00  0.00    +0.144 HD
ENDBRANCH   2  10
BRANCH   1  20
ATOM     20  S   UNL     1      33.540 -23.296 -17.638  0.00  0.00    +0.060 S 
ATOM     21  O   UNL     1      32.358 -22.945 -16.875  0.00  0.00    -0.153 OA
ATOM     22  O   UNL     1      33.600 -24.556 -18.352  0.00  0.00    -0.153 OA
BRANCH  20  23
ATOM     23  N   UNL     1      34.911 -23.168 -16.650  0.00  0.00    -0.182 NA
ATOM     24  H   UNL     1      35.103 -22.173 -16.536  0.00  0.00    +0.149 HD
BRANCH  23  25
ATOM     25  C   UNL     1      34.893 -23.765 -15.285  0.00  0.00    +0.062 C 
ATOM     26  C   UNL     1      33.487 -23.607 -14.706  0.00  0.00    +0.017 C 
ATOM     27  C   UNL     1      35.919 -23.024 -14.426  0.00  0.00    +0.017 C 
ATOM     28  C   UNL     1      35.265 -25.245 -15.405  0.00  0.00    +0.017 C 
ENDBRANCH  23  25
ENDBRANCH  20  23
ENDBRANCH   1  20
TORSDOF 4
ENDMDL
MODEL 2
REMARK VINA RESULT:     -10.9      1.174      2.113
REMARK  Name = 24963047
REMARK  4 active torsions:
REMARK  status: ('A' for Active; 'I' for Inactive)
REMARK    1  A    between atoms: C_1  and  S_20
REMARK    2  A    between atoms: C_2  and  C_10
REMARK    3  A    between atoms: S_20  and  N_23
REMARK    4  A    between atoms: N_23  and  C_25
REMARK                            x       y       z     vdW  Elec       q    Type
REMARK                         _______ _______ _______ _____ _____    ______ ____
ROOT
ATOM      1  C   UNL     1      33.966 -22.063 -18.775  0.00  0.00    +0.122 C 
ATOM      2  C   UNL     1      34.349 -20.053 -20.671  0.00  0.00    +0.000 C 
ATOM      3  C   UNL     1      35.252 -21.769 -19.229  0.00  0.00    +0.020 C 
ATOM      4  C   UNL     1      32.872 -21.353 -19.268  0.00  0.00    +0.020 C 
ATOM      5  C   UNL     1      35.443 -20.763 -20.178  0.00  0.00    +0.001 C 
ATOM      6  C   UNL     1      33.063 -20.347 -20.215  0.00  0.00    +0.001 C 
ENDROOT
BRANCH   2  10
ATOM      7  N   UNL     1      35.039 -15.860 -24.229  0.00  0.00    -0.275 N 
ATOM      8  N   UNL     1      34.788 -14.765 -23.494  0.00  0.00    -0.158 NA
ATOM      9  N   UNL     1      34.179 -14.529 -21.191  0.00  0.00    -0.341 N 
ATOM     10  C   UNL     1      34.546 -19.009 -21.652  0.00  0.00    +0.000 C 
ATOM     11  C   UNL     1      34.571 -16.672 -22.246  0.00  0.00    +0.050 A 
ATOM     12  C   UNL     1      34.375 -17.670 -21.277  0.00  0.00    +0.004 C 
ATOM     13  C   UNL     1      34.926 -17.038 -23.541  0.00  0.00    +0.077 A 
ATOM     14  C   UNL     1      34.903 -19.349 -22.959  0.00  0.00    +0.002 C 
ATOM     15  C   UNL     1      35.101 -18.366 -23.935  0.00  0.00    +0.019 C 
ATOM     16  C   UNL     1      34.504 -15.263 -22.288  0.00  0.00    +0.146 A 
ATOM     17  H   UNL     1      35.284 -15.820 -25.182  0.00  0.00    +0.189 HD
ATOM     18  H   UNL     1      34.140 -13.547 -21.249  0.00  0.00    +0.144 HD
ATOM     19  H   UNL     1      33.983 -14.980 -20.337  0.00  0.00    +0.144 HD
ENDBRANCH   2  10
BRANCH   1  20
ATOM     20  S   UNL     1      33.724 -23.336 -17.573  0.00  0.00    +0.060 S 
ATOM     21  O   UNL     1      33.452 -24.573 -18.279  0.00  0.00    -0.153 OA
ATOM     22  O   UNL     1      34.834 -23.256 -16.643  0.00  0.00    -0.153 OA
BRANCH  20  23
ATOM     23  N   UNL     1      32.319 -22.814 -16.783  0.00  0.00    -0.182 NA
ATOM     24  H   UNL     1      31.556 -22.884 -17.456  0.00  0.00    +0.149 HD
BRANCH  23  25
ATOM     25  C   UNL     1      31.868 -23.508 -15.544  0.00  0.00    +0.062 C 
ATOM     26  C   UNL     1      33.069 -24.225 -14.927  0.00  0.00    +0.017 C 
ATOM     27  C   UNL     1      30.778 -24.511 -15.929  0.00  0.00    +0.017 C 
ATOM     28  C   UNL     1      31.313 -22.457 -14.581  0.00  0.00    +0.017 C 
ENDBRANCH  23  25
ENDBRANCH  20  23
ENDBRANCH   1  20
TORSDOF 4
ENDMDL
MODEL 3
REMARK VINA RESULT:     -10.4      2.823      3.926
REMARK  Name = 24963047
REMARK  4 active torsions:
REMARK  status: ('A' for Active; 'I' for Inactive)
REMARK    1  A    between atoms: C_1  and  S_20
REMARK    2  A    between atoms: C_2  and  C_10
REMARK    3  A    between atoms: S_20  and  N_23
REMARK    4  A    between atoms: N_23  and  C_25
REMARK                            x       y       z     vdW  Elec       q    Type
REMARK                         _______ _______ _______ _____ _____    ______ ____
ROOT
ATOM      1  C   UNL     1      35.930 -23.152 -16.217  0.00  0.00    +0.122 C 
ATOM      2  C   UNL     1      35.283 -21.644 -18.473  0.00  0.00    +0.000 C 
ATOM      3  C   UNL     1      36.898 -22.348 -16.819  0.00  0.00    +0.020 C 
ATOM      4  C   UNL     1      34.640 -23.202 -16.742  0.00  0.00    +0.020 C 
ATOM      5  C   UNL     1      36.574 -21.594 -17.948  0.00  0.00    +0.001 C 
ATOM      6  C   UNL     1      34.315 -22.448 -17.869  0.00  0.00    +0.001 C 
ENDROOT
BRANCH   2  10
ATOM      7  N   UNL     1      34.268 -18.573 -22.973  0.00  0.00    -0.275 N 
ATOM      8  N   UNL     1      35.475 -18.101 -23.324  0.00  0.00    -0.158 NA
ATOM      9  N   UNL     1      37.633 -18.427 -22.339  0.00  0.00    -0.341 N 
ATOM     10  C   UNL     1      34.946 -20.861 -19.641  0.00  0.00    +0.000 C 
ATOM     11  C   UNL     1      35.609 -19.425 -21.461  0.00  0.00    +0.050 A 
ATOM     12  C   UNL     1      35.959 -20.181 -20.330  0.00  0.00    +0.004 C 
ATOM     13  C   UNL     1      34.278 -19.374 -21.863  0.00  0.00    +0.077 A 
ATOM     14  C   UNL     1      33.618 -20.792 -20.066  0.00  0.00    +0.002 C 
ATOM     15  C   UNL     1      33.254 -20.043 -21.190  0.00  0.00    +0.019 C 
ATOM     16  C   UNL     1      36.289 -18.622 -22.402  0.00  0.00    +0.146 A 
ATOM     17  H   UNL     1      33.445 -18.361 -23.471  0.00  0.00    +0.189 HD
ATOM     18  H   UNL     1      38.080 -17.862 -23.009  0.00  0.00    +0.144 HD
ATOM     19  H   UNL     1      38.158 -18.851 -21.622  0.00  0.00    +0.144 HD
ENDBRANCH   2  10
BRANCH   1  20
ATOM     20  S   UNL     1      36.341 -24.106 -14.786  0.00  0.00    +0.060 S 
ATOM     21  O   UNL     1      36.260 -23.235 -13.630  0.00  0.00    -0.153 OA
ATOM     22  O   UNL     1      35.547 -25.317 -14.844  0.00  0.00    -0.153 OA
BRANCH  20  23
ATOM     23  N   UNL     1      37.960 -24.507 -15.082  0.00  0.00    -0.182 NA
ATOM     24  H   UNL     1      38.515 -23.678 -14.867  0.00  0.00    +0.149 HD
BRANCH  23  25
ATOM     25  C   UNL     1      38.583 -25.646 -14.351  0.00  0.00    +0.062 C 
ATOM     26  C   UNL     1      38.440 -25.395 -12.850  0.00  0.00    +0.017 C 
ATOM     27  C   UNL     1      40.057 -25.722 -14.750  0.00  0.00    +0.017 C 
ATOM     28  C   UNL     1      37.853 -26.929 -14.756  0.00  0.00    +0.017 C 
ENDBRANCH  23  25
ENDBRANCH  20  23
ENDBRANCH   1  20
TORSDOF 4
ENDMDL
MODEL 4
REMARK VINA RESULT:     -10.4      4.990      9.668
REMARK  Name = 24963047
REMARK  4 active torsions:
REMARK  status: ('A' for Active; 'I' for Inactive)
REMARK    1  A    between atoms: C_1  and  S_20
REMARK    2  A    between atoms: C_2  and  C_10
REMARK    3  A    between atoms: S_20  and  N_23
REMARK    4  A    between atoms: N_23  and  C_25
REMARK                            x       y       z     vdW  Elec       q    Type
REMARK                         _______ _______ _______ _____ _____    ______ ____
ROOT
ATOM      1  C   UNL     1      33.451 -14.895 -23.021  0.00  0.00    +0.122 C 
ATOM      2  C   UNL     1      34.472 -17.213 -21.852  0.00  0.00    +0.000 C 
ATOM      3  C   UNL     1      33.113 -15.220 -21.707  0.00  0.00    +0.020 C 
ATOM      4  C   UNL     1      34.299 -15.728 -23.750  0.00  0.00    +0.020 C 
ATOM      5  C   UNL     1      33.624 -16.380 -21.123  0.00  0.00    +0.001 C 
ATOM      6  C   UNL     1      34.810 -16.887 -23.166  0.00  0.00    +0.001 C 
ENDROOT
BRANCH   2  10
ATOM      7  N   UNL     1      36.240 -21.897 -19.474  0.00  0.00    -0.275 N 
ATOM      8  N   UNL     1      35.110 -22.524 -19.110  0.00  0.00    -0.158 NA
ATOM      9  N   UNL     1      32.814 -21.890 -19.364  0.00  0.00    -0.341 N 
ATOM     10  C   UNL     1      35.003 -18.414 -21.246  0.00  0.00    +0.000 C 
ATOM     11  C   UNL     1      34.660 -20.527 -20.135  0.00  0.00    +0.050 A 
ATOM     12  C   UNL     1      34.122 -19.368 -20.720  0.00  0.00    +0.004 C 
ATOM     13  C   UNL     1      36.040 -20.693 -20.094  0.00  0.00    +0.077 A 
ATOM     14  C   UNL     1      36.385 -18.606 -21.192  0.00  0.00    +0.002 C 
ATOM     15  C   UNL     1      36.935 -19.754 -20.612  0.00  0.00    +0.019 C 
ATOM     16  C   UNL     1      34.150 -21.687 -19.514  0.00  0.00    +0.146 A 
ATOM     17  H   UNL     1      37.135 -22.271 -19.310  0.00  0.00    +0.189 HD
ATOM     18  H   UNL     1      32.487 -22.709 -18.927  0.00  0.00    +0.144 HD
ATOM     19  H   UNL     1      32.174 -21.218 -19.692  0.00  0.00    +0.144 HD
ENDBRANCH   2  10
BRANCH   1  20
ATOM     20  S   UNL     1      32.805 -13.425 -23.761  0.00  0.00    +0.060 S 
ATOM     21  O   UNL     1      32.327 -13.765 -25.087  0.00  0.00    -0.153 OA
ATOM     22  O   UNL     1      31.908 -12.825 -22.794  0.00  0.00    -0.153 OA
BRANCH  20  23
ATOM     23  N   UNL     1      34.189 -12.456 -23.888  0.00  0.00    -0.182 NA
ATOM     24  H   UNL     1      34.914 -13.029 -24.321  0.00  0.00    +0.149 HD
BRANCH  23  25
ATOM     25  C   UNL     1      34.128 -11.182 -24.657  0.00  0.00    +0.062 C 
ATOM     26  C   UNL     1      33.990 -11.518 -26.142  0.00  0.00    +0.017 C 
ATOM     27  C   UNL     1      35.419 -10.404 -24.396  0.00  0.00    +0.017 C 
ATOM     28  C   UNL     1      32.916 -10.386 -24.168  0.00  0.00    +0.017 C 
ENDBRANCH  23  25
ENDBRANCH  20  23
ENDBRANCH   1  20
TORSDOF 4
ENDMDL
MODEL 5
REMARK VINA RESULT:     -10.1      7.098     11.414
REMARK  Name = 24963047
REMARK  4 active torsions:
REMARK  status: ('A' for Active; 'I' for Inactive)
REMARK    1  A    between atoms: C_1  and  S_20
REMARK    2  A    between atoms: C_2  and  C_10
REMARK    3  A    between atoms: S_20  and  N_23
REMARK    4  A    between atoms: N_23  and  C_25
REMARK                            x       y       z     vdW  Elec       q    Type
REMARK                         _______ _______ _______ _____ _____    ______ ____
ROOT
ATOM      1  C   UNL     1      32.453 -11.068 -22.757  0.00  0.00    +0.122 C 
ATOM      2  C   UNL     1      33.334 -13.658 -23.297  0.00  0.00    +0.000 C 
ATOM      3  C   UNL     1      31.959 -12.140 -22.015  0.00  0.00    +0.020 C 
ATOM      4  C   UNL     1      33.387 -11.289 -23.768  0.00  0.00    +0.020 C 
ATOM      5  C   UNL     1      32.399 -13.437 -22.286  0.00  0.00    +0.001 C 
ATOM      6  C   UNL     1      33.829 -12.585 -24.038  0.00  0.00    +0.001 C 
ENDROOT
BRANCH   2  10
ATOM      7  N   UNL     1      35.159 -18.831 -24.090  0.00  0.00    -0.275 N 
ATOM      8  N   UNL     1      35.539 -19.233 -22.866  0.00  0.00    -0.158 NA
ATOM      9  N   UNL     1      35.496 -18.097 -20.759  0.00  0.00    -0.341 N 
ATOM     10  C   UNL     1      33.793 -15.001 -23.576  0.00  0.00    +0.000 C 
ATOM     11  C   UNL     1      34.730 -17.092 -22.824  0.00  0.00    +0.050 A 
ATOM     12  C   UNL     1      34.288 -15.791 -22.531  0.00  0.00    +0.004 C 
ATOM     13  C   UNL     1      34.664 -17.556 -24.134  0.00  0.00    +0.077 A 
ATOM     14  C   UNL     1      33.738 -15.491 -24.883  0.00  0.00    +0.002 C 
ATOM     15  C   UNL     1      34.175 -16.784 -25.190  0.00  0.00    +0.019 C 
ATOM     16  C   UNL     1      35.276 -18.172 -22.098  0.00  0.00    +0.146 A 
ATOM     17  H   UNL     1      35.229 -19.404 -24.887  0.00  0.00    +0.189 HD
ATOM     18  H   UNL     1      35.878 -18.866 -20.278  0.00  0.00    +0.144 HD
ATOM     19  H   UNL     1      35.271 -17.272 -20.269  0.00  0.00    +0.144 HD
ENDBRANCH   2  10
BRANCH   1  20
ATOM     20  S   UNL     1      31.895  -9.425 -22.413  0.00  0.00    +0.060 S 
ATOM     21  O   UNL     1      30.525  -9.312 -22.875  0.00  0.00    -0.153 OA
ATOM     22  O   UNL     1      32.224  -9.148 -21.029  0.00  0.00    -0.153 OA
BRANCH  20  23
ATOM     23  N   UNL     1      32.906  -8.494 -23.405  0.00  0.00    -0.182 NA
ATOM     24  H   UNL     1      32.936  -8.956 -24.315  0.00  0.00    +0.149 HD
BRANCH  23  25
ATOM     25  C   UNL     1      32.576  -7.063 -23.656  0.00  0.00    +0.062 C 
ATOM     26  C   UNL     1      31.241  -6.997 -24.397  0.00  0.00    +0.017 C 
ATOM     27  C   UNL     1      33.696  -6.457 -24.503  0.00  0.00    +0.017 C 
ATOM     28  C   UNL     1      32.481  -6.351 -22.306  0.00  0.00    +0.017 C 
ENDBRANCH  23  25
ENDBRANCH  20  23
ENDBRANCH   1  20
TORSDOF 4
ENDMDL
MODEL 6
REMARK VINA RESULT:     -10.0      3.128      8.630
REMARK  Name = 24963047
REMARK  4 active torsions:
REMARK  status: ('A' for Active; 'I' for Inactive)
REMARK    1  A    between atoms: C_1  and  S_20
REMARK    2  A    between atoms: C_2  and  C_10
REMARK    3  A    between atoms: S_20  and  N_23
REMARK    4  A    between atoms: N_23  and  C_25
REMARK                            x       y       z     vdW  Elec       q    Type
REMARK                         _______ _______ _______ _____ _____    ______ ____
ROOT
ATOM      1  C   UNL     1      34.835 -19.770 -21.186  0.00  0.00    +0.122 C 
ATOM      2  C   UNL     1      34.597 -21.482 -18.998  0.00  0.00    +0.000 C 
ATOM      3  C   UNL     1      33.572 -20.140 -20.726  0.00  0.00    +0.020 C 
ATOM      4  C   UNL     1      35.979 -20.255 -20.553  0.00  0.00    +0.020 C 
ATOM      5  C   UNL     1      33.453 -20.997 -19.631  0.00  0.00    +0.001 C 
ATOM      6  C   UNL     1      35.860 -21.110 -19.458  0.00  0.00    +0.001 C 
ENDROOT
BRANCH   2  10
ATOM      7  N   UNL     1      34.407 -24.835 -14.589  0.00  0.00    -0.275 N 
ATOM      8  N   UNL     1      35.658 -24.802 -14.101  0.00  0.00    -0.158 NA
ATOM      9  N   UNL     1      37.603 -23.624 -14.851  0.00  0.00    -0.341 N 
ATOM     10  C   UNL     1      34.475 -22.368 -17.861  0.00  0.00    +0.000 C 
ATOM     11  C   UNL     1      35.455 -23.479 -15.958  0.00  0.00    +0.050 A 
ATOM     12  C   UNL     1      35.595 -22.614 -17.056  0.00  0.00    +0.004 C 
ATOM     13  C   UNL     1      34.218 -24.063 -15.703  0.00  0.00    +0.077 A 
ATOM     14  C   UNL     1      33.245 -22.968 -17.583  0.00  0.00    +0.002 C 
ATOM     15  C   UNL     1      33.090 -23.831 -16.493  0.00  0.00    +0.019 C 
ATOM     16  C   UNL     1      36.293 -23.976 -14.936  0.00  0.00    +0.146 A 
ATOM     17  H   UNL     1      33.688 -25.368 -14.180  0.00  0.00    +0.189 HD
ATOM     18  H   UNL     1      38.163 -23.985 -14.127  0.00  0.00    +0.144 HD
ATOM     19  H   UNL     1      37.990 -23.006 -15.512  0.00  0.00    +0.144 HD
ENDBRANCH   2  10
BRANCH   1  20
ATOM     20  S   UNL     1      34.985 -18.683 -22.573  0.00  0.00    +0.060 S 
ATOM     21  O   UNL     1      36.272 -18.021 -22.485  0.00  0.00    -0.153 OA
ATOM     22  O   UNL     1      34.639 -19.453 -23.752  0.00  0.00    -0.153 OA
BRANCH  20  23
ATOM     23  N   UNL     1      33.750 -17.562 -22.278  0.00  0.00    -0.182 NA
ATOM     24  H   UNL     1      33.234 -17.895 -21.464  0.00  0.00    +0.149 HD
BRANCH  23  25
ATOM     25  C   UNL     1      34.095 -16.136 -22.018  0.00  0.00    +0.062 C 
ATOM     26  C   UNL     1      34.937 -15.621 -23.186  0.00  0.00    +0.017 C 
ATOM     27  C   UNL     1      34.886 -16.067 -20.710  0.00  0.00    +0.017 C 
ATOM     28  C   UNL     1      32.793 -15.342 -21.899  0.00  0.00    +0.017 C 
ENDBRANCH  23  25
ENDBRANCH  20  23
ENDBRANCH   1  20
TORSDOF 4
ENDMDL
MODEL 7
REMARK VINA RESULT:     -10.0      7.877     12.152
REMARK  Name = 24963047
REMARK  4 active torsions:
REMARK  status: ('A' for Active; 'I' for Inactive)
REMARK    1  A    between atoms: C_1  and  S_20
REMARK    2  A    between atoms: C_2  and  C_10
REMARK    3  A    between atoms: S_20  and  N_23
REMARK    4  A    between atoms: N_23  and  C_25
REMARK                            x       y       z     vdW  Elec       q    Type
REMARK                         _______ _______ _______ _____ _____    ______ ____
ROOT
ATOM      1  C   UNL     1      32.785 -10.000 -22.791  0.00  0.00    +0.122 C 
ATOM      2  C   UNL     1      33.265 -12.582 -23.731  0.00  0.00    +0.000 C 
ATOM      3  C   UNL     1      32.127 -11.085 -22.213  0.00  0.00    +0.020 C 
ATOM      4  C   UNL     1      33.683 -10.205 -23.838  0.00  0.00    +0.020 C 
ATOM      5  C   UNL     1      32.367 -12.377 -22.684  0.00  0.00    +0.001 C 
ATOM      6  C   UNL     1      33.924 -11.496 -24.308  0.00  0.00    +0.001 C 
ENDROOT
BRANCH   2  10
ATOM      7  N   UNL     1      34.348 -17.773 -25.341  0.00  0.00    -0.275 N 
ATOM      8  N   UNL     1      34.930 -18.332 -24.268  0.00  0.00    -0.158 NA
ATOM      9  N   UNL     1      35.442 -17.425 -22.112  0.00  0.00    -0.341 N 
ATOM     10  C   UNL     1      33.516 -13.921 -24.217  0.00  0.00    +0.000 C 
ATOM     11  C   UNL     1      34.371 -16.149 -23.868  0.00  0.00    +0.050 A 
ATOM     12  C   UNL     1      34.135 -14.855 -23.375  0.00  0.00    +0.004 C 
ATOM     13  C   UNL     1      33.987 -16.464 -25.168  0.00  0.00    +0.077 A 
ATOM     14  C   UNL     1      33.142 -14.264 -25.518  0.00  0.00    +0.002 C 
ATOM     15  C   UNL     1      33.371 -15.548 -26.023  0.00  0.00    +0.019 C 
ATOM     16  C   UNL     1      34.943 -17.340 -23.373  0.00  0.00    +0.146 A 
ATOM     17  H   UNL     1      34.192 -18.263 -26.181  0.00  0.00    +0.189 HD
ATOM     18  H   UNL     1      35.835 -18.269 -21.794  0.00  0.00    +0.144 HD
ATOM     19  H   UNL     1      35.410 -16.641 -21.517  0.00  0.00    +0.144 HD
ENDBRANCH   2  10
BRANCH   1  20
ATOM     20  S   UNL     1      32.481  -8.363 -22.195  0.00  0.00    +0.060 S 
ATOM     21  O   UNL     1      31.624  -8.464 -21.029  0.00  0.00    -0.153 OA
ATOM     22  O   UNL     1      33.768  -7.703 -22.099  0.00  0.00    -0.153 OA
BRANCH  20  23
ATOM     23  N   UNL     1      31.614  -7.675 -23.478  0.00  0.00    -0.182 NA
ATOM     24  H   UNL     1      30.624  -7.756 -23.245  0.00  0.00    +0.149 HD
BRANCH  23  25
ATOM     25  C   UNL     1      31.856  -6.253 -23.851  0.00  0.00    +0.062 C 
ATOM     26  C   UNL     1      33.193  -6.167 -24.587  0.00  0.00    +0.017 C 
ATOM     27  C   UNL     1      31.890  -5.421 -22.568  0.00  0.00    +0.017 C 
ATOM     28  C   UNL     1      30.710  -5.795 -24.755  0.00  0.00    +0.017 C 
ENDBRANCH  23  25
ENDBRANCH  20  23
ENDBRANCH   1  20
TORSDOF 4
ENDMDL
MODEL 8
REMARK VINA RESULT:      -9.8      1.042      1.979
REMARK  Name = 24963047
REMARK  4 active torsions:
REMARK  status: ('A' for Active; 'I' for Inactive)
REMARK    1  A    between atoms: C_1  and  S_20
REMARK    2  A    between atoms: C_2  and  C_10
REMARK    3  A    between atoms: S_20  and  N_23
REMARK    4  A    between atoms: N_23  and  C_25
REMARK                            x       y       z     vdW  Elec       q    Type
REMARK                         _______ _______ _______ _____ _____    ______ ____
ROOT
ATOM      1  C   UNL     1      33.947 -22.143 -18.565  0.00  0.00    +0.122 C 
ATOM      2  C   UNL     1      34.407 -20.126 -20.436  0.00  0.00    +0.000 C 
ATOM      3  C   UNL     1      32.871 -21.468 -19.141  0.00  0.00    +0.020 C 
ATOM      4  C   UNL     1      35.252 -21.811 -18.925  0.00  0.00    +0.020 C 
ATOM      5  C   UNL     1      33.101 -20.459 -20.077  0.00  0.00    +0.001 C 
ATOM      6  C   UNL     1      35.483 -20.803 -19.861  0.00  0.00    +0.001 C 
ENDROOT
BRANCH   2  10
ATOM      7  N   UNL     1      35.245 -16.309 -24.365  0.00  0.00    -0.275 N 
ATOM      8  N   UNL     1      34.908 -16.935 -25.505  0.00  0.00    -0.158 NA
ATOM      9  N   UNL     1      34.119 -19.161 -25.895  0.00  0.00    -0.341 N 
ATOM     10  C   UNL     1      34.646 -19.082 -21.408  0.00  0.00    +0.000 C 
ATOM     11  C   UNL     1      34.650 -18.310 -23.693  0.00  0.00    +0.050 A 
ATOM     12  C   UNL     1      34.410 -19.337 -22.765  0.00  0.00    +0.004 C 
ATOM     13  C   UNL     1      35.113 -17.078 -23.241  0.00  0.00    +0.077 A 
ATOM     14  C   UNL     1      35.112 -17.836 -20.982  0.00  0.00    +0.002 C 
ATOM     15  C   UNL     1      35.356 -16.804 -21.893  0.00  0.00    +0.019 C 
ATOM     16  C   UNL     1      34.546 -18.152 -25.091  0.00  0.00    +0.146 A 
ATOM     17  H   UNL     1      35.559 -15.376 -24.341  0.00  0.00    +0.189 HD
ATOM     18  H   UNL     1      34.056 -19.023 -26.867  0.00  0.00    +0.144 HD
ATOM     19  H   UNL     1      33.871 -20.031 -25.504  0.00  0.00    +0.144 HD
ENDBRANCH   2  10
BRANCH   1  20
ATOM     20  S   UNL     1      33.654 -23.422 -17.380  0.00  0.00    +0.060 S 
ATOM     21  O   UNL     1      32.487 -23.054 -16.603  0.00  0.00    -0.153 OA
ATOM     22  O   UNL     1      33.685 -24.680 -18.100  0.00  0.00    -0.153 OA
BRANCH  20  23
ATOM     23  N   UNL     1      35.037 -23.324 -16.406  0.00  0.00    -0.182 NA
ATOM     24  H   UNL     1      35.190 -22.335 -16.207  0.00  0.00    +0.149 HD
BRANCH  23  25
ATOM     25  C   UNL     1      35.070 -24.039 -15.099  0.00  0.00    +0.062 C 
ATOM     26  C   UNL     1      33.638 -24.170 -14.583  0.00  0.00    +0.017 C 
ATOM     27  C   UNL     1      35.923 -23.221 -14.128  0.00  0.00    +0.017 C 
ATOM     28  C   UNL     1      35.692 -25.419 -15.325  0.00  0.00    +0.017 C 
ENDBRANCH  23  25
ENDBRANCH  20  23
ENDBRANCH   1  20
TORSDOF 4
ENDMDL
MODEL 9
REMARK VINA RESULT:      -9.6      3.348      8.484
REMARK  Name = 24963047
REMARK  4 active torsions:
REMARK  status: ('A' for Active; 'I' for Inactive)
REMARK    1  A    between atoms: C_1  and  S_20
REMARK    2  A    between atoms: C_2  and  C_10
REMARK    3  A    between atoms: S_20  and  N_23
REMARK    4  A    between atoms: N_23  and  C_25
REMARK                            x       y       z     vdW  Elec       q    Type
REMARK                         _______ _______ _______ _____ _____    ______ ____
ROOT
ATOM      1  C   UNL     1      34.662 -19.831 -21.340  0.00  0.00    +0.122 C 
ATOM      2  C   UNL     1      34.026 -21.419 -19.138  0.00  0.00    +0.000 C 
ATOM      3  C   UNL     1      33.333 -19.968 -20.940  0.00  0.00    +0.020 C 
ATOM      4  C   UNL     1      35.673 -20.488 -20.640  0.00  0.00    +0.020 C 
ATOM      5  C   UNL     1      33.015 -20.763 -19.838  0.00  0.00    +0.001 C 
ATOM      6  C   UNL     1      35.356 -21.281 -19.538  0.00  0.00    +0.001 C 
ENDROOT
BRANCH   2  10
ATOM      7  N   UNL     1      32.490 -24.518 -14.807  0.00  0.00    -0.275 N 
ATOM      8  N   UNL     1      31.149 -24.462 -14.826  0.00  0.00    -0.158 NA
ATOM      9  N   UNL     1      29.648 -23.335 -16.313  0.00  0.00    -0.341 N 
ATOM     10  C   UNL     1      33.698 -22.241 -17.994  0.00  0.00    +0.000 C 
ATOM     11  C   UNL     1      32.056 -23.246 -16.540  0.00  0.00    +0.050 A 
ATOM     12  C   UNL     1      32.353 -22.445 -17.655  0.00  0.00    +0.004 C 
ATOM     13  C   UNL     1      33.097 -23.809 -15.808  0.00  0.00    +0.077 A 
ATOM     14  C   UNL     1      34.723 -22.819 -17.242  0.00  0.00    +0.002 C 
ATOM     15  C   UNL     1      34.443 -23.618 -16.129  0.00  0.00    +0.019 C 
ATOM     16  C   UNL     1      30.888 -23.687 -15.882  0.00  0.00    +0.146 A 
ATOM     17  H   UNL     1      32.994 -25.025 -14.131  0.00  0.00    +0.189 HD
ATOM     18  H   UNL     1      28.851 -23.658 -15.835  0.00  0.00    +0.144 HD
ATOM     19  H   UNL     1      29.548 -22.757 -17.105  0.00  0.00    +0.144 HD
ENDBRANCH   2  10
BRANCH   1  20
ATOM     20  S   UNL     1      35.065 -18.823 -22.736  0.00  0.00    +0.060 S 
ATOM     21  O   UNL     1      36.361 -18.220 -22.493  0.00  0.00    -0.153 OA
ATOM     22  O   UNL     1      34.848 -19.633 -23.919  0.00  0.00    -0.153 OA
BRANCH  20  23
ATOM     23  N   UNL     1      33.863 -17.630 -22.669  0.00  0.00    -0.182 NA
ATOM     24  H   UNL     1      33.079 -18.028 -22.153  0.00  0.00    +0.149 HD
BRANCH  23  25
ATOM     25  C   UNL     1      34.168 -16.312 -22.045  0.00  0.00    +0.062 C 
ATOM     26  C   UNL     1      35.005 -16.553 -20.789  0.00  0.00    +0.017 C 
ATOM     27  C   UNL     1      32.844 -15.633 -21.692  0.00  0.00    +0.017 C 
ATOM     28  C   UNL     1      34.946 -15.472 -23.060  0.00  0.00    +0.017 C 
ENDBRANCH  23  25
ENDBRANCH  20  23
ENDBRANCH   1  20
TORSDOF 4
ENDMDL
