MODEL 1
REMARK VINA RESULT:      -5.8      0.000      0.000
REMARK  Name = 441481
REMARK  4 active torsions:
REMARK  status: ('A' for Active; 'I' for Inactive)
REMARK    1  A    between atoms: C_2  and  O_7
REMARK    2  A    between atoms: C_3  and  O_9
REMARK    3  A    between atoms: C_4  and  O_11
REMARK    4  A    between atoms: C_5  and  O_13
REMARK                            x       y       z     vdW  Elec       q    Type
REMARK                         _______ _______ _______ _____ _____    ______ ____
ROOT
ATOM      1  O   UNL     1      37.880 -24.545 -11.208  0.00  0.00    -0.326 OA
ATOM      2  C   UNL     1      36.012 -24.369 -13.372  0.00  0.00    +0.172 C 
ATOM      3  C   UNL     1      35.614 -23.997 -11.941  0.00  0.00    +0.196 C 
ATOM      4  C   UNL     1      37.176 -25.360 -13.402  0.00  0.00    +0.169 C 
ATOM      5  C   UNL     1      36.843 -23.559 -11.140  0.00  0.00    +0.262 C 
ATOM      6  C   UNL     1      38.322 -24.841 -12.537  0.00  0.00    +0.176 C 
ENDROOT
BRANCH   2   7
ATOM      7  O   UNL     1      34.903 -24.903 -14.086  0.00  0.00    -0.379 OA
ATOM      8  H   UNL     1      35.030 -25.856 -14.215  0.00  0.00    +0.211 HD
ENDBRANCH   2   7
BRANCH   3   9
ATOM      9  O   UNL     1      35.016 -25.122 -11.299  0.00  0.00    -0.378 OA
ATOM     10  H   UNL     1      34.219 -24.836 -10.825  0.00  0.00    +0.211 HD
ENDBRANCH   3   9
BRANCH   4  11
ATOM     11  O   UNL     1      36.753 -26.627 -12.901  0.00  0.00    -0.379 OA
ATOM     12  H   UNL     1      36.452 -27.182 -13.638  0.00  0.00    +0.211 HD
ENDBRANCH   4  11
BRANCH   5  13
ATOM     13  O   UNL     1      37.282 -22.283 -11.597  0.00  0.00    -0.358 OA
ATOM     14  H   UNL     1      36.583 -21.872 -12.131  0.00  0.00    +0.213 HD
ENDBRANCH   5  13
TORSDOF 4
ENDMDL
MODEL 2
REMARK VINA RESULT:      -5.7      2.100      3.381
REMARK  Name = 441481
REMARK  4 active torsions:
REMARK  status: ('A' for Active; 'I' for Inactive)
REMARK    1  A    between atoms: C_2  and  O_7
REMARK    2  A    between atoms: C_3  and  O_9
REMARK    3  A    between atoms: C_4  and  O_11
REMARK    4  A    between atoms: C_5  and  O_13
REMARK                            x       y       z     vdW  Elec       q    Type
REMARK                         _______ _______ _______ _____ _____    ______ ____
ROOT
ATOM      1  O   UNL     1      38.313 -24.022 -13.328  0.00  0.00    -0.326 OA
ATOM      2  C   UNL     1      36.597 -25.893 -14.652  0.00  0.00    +0.172 C 
ATOM      3  C   UNL     1      38.047 -26.244 -14.306  0.00  0.00    +0.196 C 
ATOM      4  C   UNL     1      36.394 -24.385 -14.796  0.00  0.00    +0.169 C 
ATOM      5  C   UNL     1      38.527 -25.421 -13.108  0.00  0.00    +0.262 C 
ATOM      6  C   UNL     1      36.948 -23.667 -13.568  0.00  0.00    +0.176 C 
ENDROOT
BRANCH   2   7
ATOM      7  O   UNL     1      36.184 -26.553 -15.843  0.00  0.00    -0.379 OA
ATOM      8  H   UNL     1      36.778 -26.310 -16.570  0.00  0.00    +0.211 HD
ENDBRANCH   2   7
BRANCH   3   9
ATOM      9  O   UNL     1      38.889 -25.973 -15.426  0.00  0.00    -0.378 OA
ATOM     10  H   UNL     1      38.773 -26.669 -16.093  0.00  0.00    +0.211 HD
ENDBRANCH   3   9
BRANCH   4  11
ATOM     11  O   UNL     1      37.072 -23.908 -15.957  0.00  0.00    -0.379 OA
ATOM     12  H   UNL     1      37.430 -23.024 -15.783  0.00  0.00    +0.211 HD
ENDBRANCH   4  11
BRANCH   5  13
ATOM     13  O   UNL     1      37.888 -25.884 -11.923  0.00  0.00    -0.358 OA
ATOM     14  H   UNL     1      37.178 -26.502 -12.158  0.00  0.00    +0.213 HD
ENDBRANCH   5  13
TORSDOF 4
ENDMDL
MODEL 3
REMARK VINA RESULT:      -5.7      1.285      1.931
REMARK  Name = 441481
REMARK  4 active torsions:
REMARK  status: ('A' for Active; 'I' for Inactive)
REMARK    1  A    between atoms: C_2  and  O_7
REMARK    2  A    between atoms: C_3  and  O_9
REMARK    3  A    between atoms: C_4  and  O_11
REMARK    4  A    between atoms: C_5  and  O_13
REMARK                            x       y       z     vdW  Elec       q    Type
REMARK                         _______ _______ _______ _____ _____    ______ ____
ROOT
ATOM      1  O   UNL     1      38.291 -24.228 -13.590  0.00  0.00    -0.326 OA
ATOM      2  C   UNL     1      35.698 -24.227 -12.373  0.00  0.00    +0.172 C 
ATOM      3  C   UNL     1      36.914 -24.832 -11.664  0.00  0.00    +0.196 C 
ATOM      4  C   UNL     1      35.866 -24.227 -13.892  0.00  0.00    +0.169 C 
ATOM      5  C   UNL     1      38.205 -24.176 -12.161  0.00  0.00    +0.262 C 
ATOM      6  C   UNL     1      37.202 -23.592 -14.267  0.00  0.00    +0.176 C 
ENDROOT
BRANCH   2   7
ATOM      7  O   UNL     1      34.506 -24.919 -12.017  0.00  0.00    -0.379 OA
ATOM      8  H   UNL     1      34.680 -25.872 -11.996  0.00  0.00    +0.211 HD
ENDBRANCH   2   7
BRANCH   3   9
ATOM      9  O   UNL     1      36.974 -26.234 -11.921  0.00  0.00    -0.378 OA
ATOM     10  H   UNL     1      37.341 -26.688 -11.146  0.00  0.00    +0.211 HD
ENDBRANCH   3   9
BRANCH   4  11
ATOM     11  O   UNL     1      35.831 -25.564 -14.389  0.00  0.00    -0.379 OA
ATOM     12  H   UNL     1      36.547 -26.078 -13.984  0.00  0.00    +0.211 HD
ENDBRANCH   4  11
BRANCH   5  13
ATOM     13  O   UNL     1      38.287 -22.844 -11.665  0.00  0.00    -0.358 OA
ATOM     14  H   UNL     1      38.425 -22.864 -10.705  0.00  0.00    +0.213 HD
ENDBRANCH   5  13
TORSDOF 4
ENDMDL
MODEL 4
REMARK VINA RESULT:      -5.7      2.130      2.737
REMARK  Name = 441481
REMARK  4 active torsions:
REMARK  status: ('A' for Active; 'I' for Inactive)
REMARK    1  A    between atoms: C_2  and  O_7
REMARK    2  A    between atoms: C_3  and  O_9
REMARK    3  A    between atoms: C_4  and  O_11
REMARK    4  A    between atoms: C_5  and  O_13
REMARK                            x       y       z     vdW  Elec       q    Type
REMARK                         _______ _______ _______ _____ _____    ______ ____
ROOT
ATOM      1  O   UNL     1      38.072 -23.892 -13.430  0.00  0.00    -0.326 OA
ATOM      2  C   UNL     1      37.019 -26.076 -14.954  0.00  0.00    +0.172 C 
ATOM      3  C   UNL     1      36.457 -24.659 -15.096  0.00  0.00    +0.196 C 
ATOM      4  C   UNL     1      37.673 -26.297 -13.590  0.00  0.00    +0.169 C 
ATOM      5  C   UNL     1      37.520 -23.621 -14.723  0.00  0.00    +0.262 C 
ATOM      6  C   UNL     1      38.677 -25.183 -13.308  0.00  0.00    +0.176 C 
ENDROOT
BRANCH   2   7
ATOM      7  O   UNL     1      36.004 -27.050 -15.168  0.00  0.00    -0.379 OA
ATOM      8  H   UNL     1      36.230 -27.588 -15.943  0.00  0.00    +0.211 HD
ENDBRANCH   2   7
BRANCH   3   9
ATOM      9  O   UNL     1      35.329 -24.499 -14.237  0.00  0.00    -0.378 OA
ATOM     10  H   UNL     1      34.755 -23.799 -14.585  0.00  0.00    +0.211 HD
ENDBRANCH   3   9
BRANCH   4  11
ATOM     11  O   UNL     1      36.679 -26.297 -12.566  0.00  0.00    -0.379 OA
ATOM     12  H   UNL     1      37.024 -26.750 -11.780  0.00  0.00    +0.211 HD
ENDBRANCH   4  11
BRANCH   5  13
ATOM     13  O   UNL     1      38.519 -23.576 -15.737  0.00  0.00    -0.358 OA
ATOM     14  H   UNL     1      39.271 -24.130 -15.476  0.00  0.00    +0.213 HD
ENDBRANCH   5  13
TORSDOF 4
ENDMDL
MODEL 5
REMARK VINA RESULT:      -5.6      1.374      3.039
REMARK  Name = 441481
REMARK  4 active torsions:
REMARK  status: ('A' for Active; 'I' for Inactive)
REMARK    1  A    between atoms: C_2  and  O_7
REMARK    2  A    between atoms: C_3  and  O_9
REMARK    3  A    between atoms: C_4  and  O_11
REMARK    4  A    between atoms: C_5  and  O_13
REMARK                            x       y       z     vdW  Elec       q    Type
REMARK                         _______ _______ _______ _____ _____    ______ ____
ROOT
ATOM      1  O   UNL     1      36.229 -25.039 -14.300  0.00  0.00    -0.326 OA
ATOM      2  C   UNL     1      36.770 -23.917 -11.721  0.00  0.00    +0.172 C 
ATOM      3  C   UNL     1      37.588 -25.089 -12.270  0.00  0.00    +0.196 C 
ATOM      4  C   UNL     1      35.374 -23.856 -12.341  0.00  0.00    +0.169 C 
ATOM      5  C   UNL     1      37.571 -25.084 -13.802  0.00  0.00    +0.262 C 
ATOM      6  C   UNL     1      35.478 -23.902 -13.862  0.00  0.00    +0.176 C 
ENDROOT
BRANCH   2   7
ATOM      7  O   UNL     1      36.668 -23.988 -10.304  0.00  0.00    -0.379 OA
ATOM      8  H   UNL     1      36.298 -23.158  -9.965  0.00  0.00    +0.211 HD
ENDBRANCH   2   7
BRANCH   3   9
ATOM      9  O   UNL     1      37.041 -26.321 -11.802  0.00  0.00    -0.378 OA
ATOM     10  H   UNL     1      37.513 -27.061 -12.215  0.00  0.00    +0.211 HD
ENDBRANCH   3   9
BRANCH   4  11
ATOM     11  O   UNL     1      34.592 -24.963 -11.895  0.00  0.00    -0.379 OA
ATOM     12  H   UNL     1      34.580 -25.648 -12.583  0.00  0.00    +0.211 HD
ENDBRANCH   4  11
BRANCH   5  13
ATOM     13  O   UNL     1      38.363 -24.003 -14.285  0.00  0.00    -0.358 OA
ATOM     14  H   UNL     1      39.303 -24.225 -14.197  0.00  0.00    +0.213 HD
ENDBRANCH   5  13
TORSDOF 4
ENDMDL
MODEL 6
REMARK VINA RESULT:      -5.5      2.081      3.568
REMARK  Name = 441481
REMARK  4 active torsions:
REMARK  status: ('A' for Active; 'I' for Inactive)
REMARK    1  A    between atoms: C_2  and  O_7
REMARK    2  A    between atoms: C_3  and  O_9
REMARK    3  A    between atoms: C_4  and  O_11
REMARK    4  A    between atoms: C_5  and  O_13
REMARK                            x       y       z     vdW  Elec       q    Type
REMARK                         _______ _______ _______ _____ _____    ______ ____
ROOT
ATOM      1  O   UNL     1      36.300 -25.079 -13.778  0.00  0.00    -0.326 OA
ATOM      2  C   UNL     1      39.144 -25.378 -13.609  0.00  0.00    +0.172 C 
ATOM      3  C   UNL     1      38.340 -24.728 -12.479  0.00  0.00    +0.196 C 
ATOM      4  C   UNL     1      38.433 -25.258 -14.957  0.00  0.00    +0.169 C 
ATOM      5  C   UNL     1      36.896 -25.239 -12.485  0.00  0.00    +0.262 C 
ATOM      6  C   UNL     1      36.995 -25.754 -14.832  0.00  0.00    +0.176 C 
ENDROOT
BRANCH   2   7
ATOM      7  O   UNL     1      40.447 -24.813 -13.696  0.00  0.00    -0.379 OA
ATOM      8  H   UNL     1      41.098 -25.451 -13.366  0.00  0.00    +0.211 HD
ENDBRANCH   2   7
BRANCH   3   9
ATOM      9  O   UNL     1      38.333 -23.311 -12.645  0.00  0.00    -0.378 OA
ATOM     10  H   UNL     1      39.151 -23.034 -13.088  0.00  0.00    +0.211 HD
ENDBRANCH   3   9
BRANCH   4  11
ATOM     11  O   UNL     1      38.420 -23.897 -15.384  0.00  0.00    -0.379 OA
ATOM     12  H   UNL     1      38.840 -23.827 -16.256  0.00  0.00    +0.211 HD
ENDBRANCH   4  11
BRANCH   5  13
ATOM     13  O   UNL     1      36.867 -26.592 -12.041  0.00  0.00    -0.358 OA
ATOM     14  H   UNL     1      36.634 -26.619 -11.100  0.00  0.00    +0.213 HD
ENDBRANCH   5  13
TORSDOF 4
ENDMDL
MODEL 7
REMARK VINA RESULT:      -5.4      2.341      3.885
REMARK  Name = 441481
REMARK  4 active torsions:
REMARK  status: ('A' for Active; 'I' for Inactive)
REMARK    1  A    between atoms: C_2  and  O_7
REMARK    2  A    between atoms: C_3  and  O_9
REMARK    3  A    between atoms: C_4  and  O_11
REMARK    4  A    between atoms: C_5  and  O_13
REMARK                            x       y       z     vdW  Elec       q    Type
REMARK                         _______ _______ _______ _____ _____    ______ ____
ROOT
ATOM      1  O   UNL     1      36.195 -26.010 -15.725  0.00  0.00    -0.326 OA
ATOM      2  C   UNL     1      37.923 -24.948 -13.703  0.00  0.00    +0.172 C 
ATOM      3  C   UNL     1      37.052 -24.035 -14.570  0.00  0.00    +0.196 C 
ATOM      4  C   UNL     1      38.231 -26.273 -14.400  0.00  0.00    +0.169 C 
ATOM      5  C   UNL     1      35.819 -24.790 -15.076  0.00  0.00    +0.262 C 
ATOM      6  C   UNL     1      36.938 -26.911 -14.898  0.00  0.00    +0.176 C 
ENDROOT
BRANCH   2   7
ATOM      7  O   UNL     1      39.135 -24.299 -13.338  0.00  0.00    -0.379 OA
ATOM      8  H   UNL     1      39.800 -24.964 -13.102  0.00  0.00    +0.211 HD
ENDBRANCH   2   7
BRANCH   3   9
ATOM      9  O   UNL     1      37.805 -23.571 -15.690  0.00  0.00    -0.378 OA
ATOM     10  H   UNL     1      37.902 -22.607 -15.636  0.00  0.00    +0.211 HD
ENDBRANCH   3   9
BRANCH   4  11
ATOM     11  O   UNL     1      39.097 -26.051 -15.512  0.00  0.00    -0.379 OA
ATOM     12  H   UNL     1      39.983 -25.818 -15.191  0.00  0.00    +0.211 HD
ENDBRANCH   4  11
BRANCH   5  13
ATOM     13  O   UNL     1      34.918 -25.010 -13.995  0.00  0.00    -0.358 OA
ATOM     14  H   UNL     1      34.058 -25.294 -14.343  0.00  0.00    +0.213 HD
ENDBRANCH   5  13
TORSDOF 4
ENDMDL
MODEL 8
REMARK VINA RESULT:      -5.3      1.981      3.440
REMARK  Name = 441481
REMARK  4 active torsions:
REMARK  status: ('A' for Active; 'I' for Inactive)
REMARK    1  A    between atoms: C_2  and  O_7
REMARK    2  A    between atoms: C_3  and  O_9
REMARK    3  A    between atoms: C_4  and  O_11
REMARK    4  A    between atoms: C_5  and  O_13
REMARK                            x       y       z     vdW  Elec       q    Type
REMARK                         _______ _______ _______ _____ _____    ______ ____
ROOT
ATOM      1  O   UNL     1      35.910 -24.441 -14.217  0.00  0.00    -0.326 OA
ATOM      2  C   UNL     1      38.556 -25.280 -13.512  0.00  0.00    +0.172 C 
ATOM      3  C   UNL     1      38.170 -24.991 -14.966  0.00  0.00    +0.196 C 
ATOM      4  C   UNL     1      37.344 -25.669 -12.666  0.00  0.00    +0.169 C 
ATOM      5  C   UNL     1      37.007 -23.997 -15.024  0.00  0.00    +0.262 C 
ATOM      6  C   UNL     1      36.237 -24.633 -12.837  0.00  0.00    +0.176 C 
ENDROOT
BRANCH   2   7
ATOM      7  O   UNL     1      39.545 -26.301 -13.442  0.00  0.00    -0.379 OA
ATOM      8  H   UNL     1      39.982 -26.387 -14.303  0.00  0.00    +0.211 HD
ENDBRANCH   2   7
BRANCH   3   9
ATOM      9  O   UNL     1      37.780 -26.203 -15.611  0.00  0.00    -0.378 OA
ATOM     10  H   UNL     1      36.971 -26.049 -16.124  0.00  0.00    +0.211 HD
ENDBRANCH   3   9
BRANCH   4  11
ATOM     11  O   UNL     1      36.853 -26.945 -13.073  0.00  0.00    -0.379 OA
ATOM     12  H   UNL     1      36.125 -26.826 -13.704  0.00  0.00    +0.211 HD
ENDBRANCH   4  11
BRANCH   5  13
ATOM     13  O   UNL     1      37.465 -22.702 -14.646  0.00  0.00    -0.358 OA
ATOM     14  H   UNL     1      37.162 -22.501 -13.747  0.00  0.00    +0.213 HD
ENDBRANCH   5  13
TORSDOF 4
ENDMDL
MODEL 9
REMARK VINA RESULT:      -5.1     10.508     11.883
REMARK  Name = 441481
REMARK  4 active torsions:
REMARK  status: ('A' for Active; 'I' for Inactive)
REMARK    1  A    between atoms: C_2  and  O_7
REMARK    2  A    between atoms: C_3  and  O_9
REMARK    3  A    between atoms: C_4  and  O_11
REMARK    4  A    between atoms: C_5  and  O_13
REMARK                            x       y       z     vdW  Elec       q    Type
REMARK                         _______ _______ _______ _____ _____    ______ ____
ROOT
ATOM      1  O   UNL     1      41.381 -15.044 -14.293  0.00  0.00    -0.326 OA
ATOM      2  C   UNL     1      41.350 -14.557 -17.115  0.00  0.00    +0.172 C 
ATOM      3  C   UNL     1      41.816 -15.898 -16.540  0.00  0.00    +0.196 C 
ATOM      4  C   UNL     1      41.518 -13.417 -16.111  0.00  0.00    +0.169 C 
ATOM      5  C   UNL     1      41.168 -16.151 -15.176  0.00  0.00    +0.262 C 
ATOM      6  C   UNL     1      40.874 -13.797 -14.781  0.00  0.00    +0.176 C 
ENDROOT
BRANCH   2   7
ATOM      7  O   UNL     1      42.046 -14.250 -18.318  0.00  0.00    -0.379 OA
ATOM      8  H   UNL     1      42.949 -13.967 -18.105  0.00  0.00    +0.211 HD
ENDBRANCH   2   7
BRANCH   3   9
ATOM      9  O   UNL     1      43.235 -15.891 -16.388  0.00  0.00    -0.378 OA
ATOM     10  H   UNL     1      43.470 -15.410 -15.579  0.00  0.00    +0.211 HD
ENDBRANCH   3   9
BRANCH   4  11
ATOM     11  O   UNL     1      42.904 -13.153 -15.897  0.00  0.00    -0.379 OA
ATOM     12  H   UNL     1      43.399 -13.987 -15.920  0.00  0.00    +0.211 HD
ENDBRANCH   4  11
BRANCH   5  13
ATOM     13  O   UNL     1      39.785 -16.443 -15.351  0.00  0.00    -0.358 OA
ATOM     14  H   UNL     1      39.614 -17.365 -15.103  0.00  0.00    +0.213 HD
ENDBRANCH   5  13
TORSDOF 4
ENDMDL
