MODEL 1
REMARK VINA RESULT:      -9.6      0.000      0.000
REMARK  Name = 69249407
REMARK  2 active torsions:
REMARK  status: ('A' for Active; 'I' for Inactive)
REMARK    1  A    between atoms: C_6  and  O_21
REMARK    2  A    between atoms: C_19  and  O_23
REMARK                            x       y       z     vdW  Elec       q    Type
REMARK                         _______ _______ _______ _____ _____    ______ ____
ROOT
ATOM      1  O   UNL     1      39.611 -25.445 -13.578  0.00  0.00    -0.288 OA
ATOM      2  C   UNL     1      31.439 -23.643 -14.696  0.00  0.00    +0.023 C 
ATOM      3  C   UNL     1      32.512 -23.581 -15.805  0.00  0.00    +0.002 C 
ATOM      4  C   UNL     1      33.897 -23.199 -15.272  0.00  0.00    +0.001 C 
ATOM      5  C   UNL     1      34.347 -24.254 -14.221  0.00  0.00    +0.004 C 
ATOM      6  C   UNL     1      30.163 -23.926 -15.549  0.00  0.00    +0.088 C 
ATOM      7  C   UNL     1      31.864 -24.730 -13.695  0.00  0.00    +0.002 C 
ATOM      8  C   UNL     1      31.872 -22.699 -16.872  0.00  0.00    +0.002 C 
ATOM      9  C   UNL     1      33.272 -24.472 -13.127  0.00  0.00    +0.000 C 
ATOM     10  C   UNL     1      30.371 -23.034 -16.802  0.00  0.00    +0.027 C 
ATOM     11  C   UNL     1      35.744 -23.893 -13.626  0.00  0.00    +0.022 C 
ATOM     12  C   UNL     1      34.938 -23.109 -16.394  0.00  0.00    +0.004 C 
ATOM     13  C   UNL     1      31.260 -22.301 -13.928  0.00  0.00    +0.002 C 
ATOM     14  C   UNL     1      36.299 -22.708 -15.836  0.00  0.00    +0.025 C 
ATOM     15  C   UNL     1      36.767 -23.630 -14.731  0.00  0.00    -0.008 C 
ATOM     16  C   UNL     1      29.949 -25.388 -15.963  0.00  0.00    +0.029 C 
ATOM     17  C   UNL     1      36.210 -24.995 -12.655  0.00  0.00    +0.012 C 
ATOM     18  C   UNL     1      37.677 -24.869 -12.295  0.00  0.00    +0.073 C 
ATOM     19  C   UNL     1      38.018 -24.130 -14.725  0.00  0.00    +0.160 C 
ATOM     20  C   UNL     1      38.514 -24.890 -13.545  0.00  0.00    +0.206 C 
ENDROOT
BRANCH   6  21
ATOM     21  O   UNL     1      28.975 -23.515 -14.878  0.00  0.00    -0.387 OA
ATOM     22  H   UNL     1      28.222 -24.035 -15.202  0.00  0.00    +0.210 HD
ENDBRANCH   6  21
BRANCH  19  23
ATOM     23  O   UNL     1      38.907 -23.907 -15.756  0.00  0.00    -0.503 OA
ATOM     24  H   UNL     1      39.277 -24.633 -16.221  0.00  0.00    +0.292 HD
ENDBRANCH  19  23
TORSDOF 2
ENDMDL
MODEL 2
REMARK VINA RESULT:      -9.2      3.255      6.373
REMARK  Name = 69249407
REMARK  2 active torsions:
REMARK  status: ('A' for Active; 'I' for Inactive)
REMARK    1  A    between atoms: C_6  and  O_21
REMARK    2  A    between atoms: C_19  and  O_23
REMARK                            x       y       z     vdW  Elec       q    Type
REMARK                         _______ _______ _______ _____ _____    ______ ____
ROOT
ATOM      1  O   UNL     1      33.470 -19.374 -20.925  0.00  0.00    -0.288 OA
ATOM      2  C   UNL     1      35.677 -24.438 -14.540  0.00  0.00    +0.023 C 
ATOM      3  C   UNL     1      36.539 -23.274 -15.076  0.00  0.00    +0.002 C 
ATOM      4  C   UNL     1      36.347 -23.034 -16.577  0.00  0.00    +0.001 C 
ATOM      5  C   UNL     1      34.853 -22.697 -16.852  0.00  0.00    +0.004 C 
ATOM      6  C   UNL     1      36.175 -24.505 -13.063  0.00  0.00    +0.088 C 
ATOM      7  C   UNL     1      34.202 -24.069 -14.763  0.00  0.00    +0.002 C 
ATOM      8  C   UNL     1      37.937 -23.600 -14.563  0.00  0.00    +0.002 C 
ATOM      9  C   UNL     1      33.902 -23.757 -16.241  0.00  0.00    +0.000 C 
ATOM     10  C   UNL     1      37.703 -24.264 -13.193  0.00  0.00    +0.027 C 
ATOM     11  C   UNL     1      34.600 -22.471 -18.375  0.00  0.00    +0.022 C 
ATOM     12  C   UNL     1      37.237 -21.898 -17.094  0.00  0.00    +0.004 C 
ATOM     13  C   UNL     1      35.962 -25.798 -15.244  0.00  0.00    +0.002 C 
ATOM     14  C   UNL     1      37.038 -21.696 -18.592  0.00  0.00    +0.025 C 
ATOM     15  C   UNL     1      35.588 -21.463 -18.959  0.00  0.00    -0.008 C 
ATOM     16  C   UNL     1      35.552 -23.484 -12.103  0.00  0.00    +0.029 C 
ATOM     17  C   UNL     1      33.135 -22.052 -18.615  0.00  0.00    +0.012 C 
ATOM     18  C   UNL     1      32.908 -21.512 -20.013  0.00  0.00    +0.073 C 
ATOM     19  C   UNL     1      35.232 -20.457 -19.781  0.00  0.00    +0.160 C 
ATOM     20  C   UNL     1      33.829 -20.349 -20.267  0.00  0.00    +0.206 C 
ENDROOT
BRANCH   6  21
ATOM     21  O   UNL     1      35.957 -25.791 -12.487  0.00  0.00    -0.387 OA
ATOM     22  H   UNL     1      35.726 -26.424 -13.185  0.00  0.00    +0.210 HD
ENDBRANCH   6  21
BRANCH  19  23
ATOM     23  O   UNL     1      36.142 -19.538 -20.261  0.00  0.00    -0.503 OA
ATOM     24  H   UNL     1      36.114 -18.650 -19.962  0.00  0.00    +0.292 HD
ENDBRANCH  19  23
TORSDOF 2
ENDMDL
MODEL 3
REMARK VINA RESULT:      -8.9     10.542     12.964
REMARK  Name = 69249407
REMARK  2 active torsions:
REMARK  status: ('A' for Active; 'I' for Inactive)
REMARK    1  A    between atoms: C_6  and  O_21
REMARK    2  A    between atoms: C_19  and  O_23
REMARK                            x       y       z     vdW  Elec       q    Type
REMARK                         _______ _______ _______ _____ _____    ______ ____
ROOT
ATOM      1  O   UNL     1      33.999 -10.889 -25.865  0.00  0.00    -0.288 OA
ATOM      2  C   UNL     1      34.658 -18.093 -21.512  0.00  0.00    +0.023 C 
ATOM      3  C   UNL     1      34.882 -17.963 -23.034  0.00  0.00    +0.002 C 
ATOM      4  C   UNL     1      34.019 -16.869 -23.671  0.00  0.00    +0.001 C 
ATOM      5  C   UNL     1      34.362 -15.502 -23.013  0.00  0.00    +0.004 C 
ATOM      6  C   UNL     1      35.557 -19.328 -21.195  0.00  0.00    +0.088 C 
ATOM      7  C   UNL     1      35.055 -16.757 -20.865  0.00  0.00    +0.002 C 
ATOM      8  C   UNL     1      34.736 -19.394 -23.540  0.00  0.00    +0.002 C 
ATOM      9  C   UNL     1      34.280 -15.570 -21.467  0.00  0.00    +0.000 C 
ATOM     10  C   UNL     1      35.309 -20.266 -22.407  0.00  0.00    +0.027 C 
ATOM     11  C   UNL     1      33.486 -14.356 -23.610  0.00  0.00    +0.022 C 
ATOM     12  C   UNL     1      34.233 -16.781 -25.187  0.00  0.00    +0.004 C 
ATOM     13  C   UNL     1      33.184 -18.414 -21.126  0.00  0.00    +0.002 C 
ATOM     14  C   UNL     1      33.348 -15.699 -25.795  0.00  0.00    +0.025 C 
ATOM     15  C   UNL     1      33.546 -14.350 -25.137  0.00  0.00    -0.008 C 
ATOM     16  C   UNL     1      37.055 -19.039 -21.040  0.00  0.00    +0.029 C 
ATOM     17  C   UNL     1      33.903 -12.999 -23.009  0.00  0.00    +0.012 C 
ATOM     18  C   UNL     1      33.323 -11.824 -23.771  0.00  0.00    +0.073 C 
ATOM     19  C   UNL     1      33.715 -13.235 -25.874  0.00  0.00    +0.160 C 
ATOM     20  C   UNL     1      33.734 -11.900 -25.217  0.00  0.00    +0.206 C 
ENDROOT
BRANCH   6  21
ATOM     21  O   UNL     1      35.145 -19.993 -20.003  0.00  0.00    -0.387 OA
ATOM     22  H   UNL     1      34.594 -20.758 -20.232  0.00  0.00    +0.210 HD
ENDBRANCH   6  21
BRANCH  19  23
ATOM     23  O   UNL     1      33.803 -13.266 -27.250  0.00  0.00    -0.503 OA
ATOM     24  H   UNL     1      34.380 -13.876 -27.669  0.00  0.00    +0.292 HD
ENDBRANCH  19  23
TORSDOF 2
ENDMDL
MODEL 4
REMARK VINA RESULT:      -8.8      1.421      6.678
REMARK  Name = 69249407
REMARK  2 active torsions:
REMARK  status: ('A' for Active; 'I' for Inactive)
REMARK    1  A    between atoms: C_6  and  O_21
REMARK    2  A    between atoms: C_19  and  O_23
REMARK                            x       y       z     vdW  Elec       q    Type
REMARK                         _______ _______ _______ _____ _____    ______ ____
ROOT
ATOM      1  O   UNL     1      27.616 -23.022 -15.342  0.00  0.00    -0.288 OA
ATOM      2  C   UNL     1      35.852 -24.436 -14.136  0.00  0.00    +0.023 C 
ATOM      3  C   UNL     1      35.275 -23.336 -15.054  0.00  0.00    +0.002 C 
ATOM      4  C   UNL     1      33.937 -23.732 -15.687  0.00  0.00    +0.001 C 
ATOM      5  C   UNL     1      32.903 -24.013 -14.559  0.00  0.00    +0.004 C 
ATOM      6  C   UNL     1      37.226 -23.800 -13.758  0.00  0.00    +0.088 C 
ATOM      7  C   UNL     1      34.851 -24.665 -12.993  0.00  0.00    +0.002 C 
ATOM      8  C   UNL     1      36.442 -22.989 -15.972  0.00  0.00    +0.002 C 
ATOM      9  C   UNL     1      33.448 -25.023 -13.518  0.00  0.00    +0.000 C 
ATOM     10  C   UNL     1      37.692 -23.148 -15.087  0.00  0.00    +0.027 C 
ATOM     11  C   UNL     1      31.528 -24.449 -15.155  0.00  0.00    +0.022 C 
ATOM     12  C   UNL     1      33.400 -22.640 -16.621  0.00  0.00    +0.004 C 
ATOM     13  C   UNL     1      36.093 -25.791 -14.865  0.00  0.00    +0.002 C 
ATOM     14  C   UNL     1      32.080 -23.071 -17.250  0.00  0.00    +0.025 C 
ATOM     15  C   UNL     1      31.045 -23.462 -16.217  0.00  0.00    -0.008 C 
ATOM     16  C   UNL     1      37.189 -22.756 -12.634  0.00  0.00    +0.029 C 
ATOM     17  C   UNL     1      30.494 -24.636 -14.026  0.00  0.00    +0.012 C 
ATOM     18  C   UNL     1      29.076 -24.742 -14.549  0.00  0.00    +0.073 C 
ATOM     19  C   UNL     1      29.783 -22.993 -16.283  0.00  0.00    +0.160 C 
ATOM     20  C   UNL     1      28.739 -23.523 -15.364  0.00  0.00    +0.206 C 
ENDROOT
BRANCH   6  21
ATOM     21  O   UNL     1      38.178 -24.786 -13.366  0.00  0.00    -0.387 OA
ATOM     22  H   UNL     1      39.074 -24.457 -13.535  0.00  0.00    +0.210 HD
ENDBRANCH   6  21
BRANCH  19  23
ATOM     23  O   UNL     1      29.387 -22.073 -17.231  0.00  0.00    -0.503 OA
ATOM     24  H   UNL     1      29.668 -21.181 -17.164  0.00  0.00    +0.292 HD
ENDBRANCH  19  23
TORSDOF 2
ENDMDL
MODEL 5
REMARK VINA RESULT:      -7.9      0.998      6.959
REMARK  Name = 69249407
REMARK  2 active torsions:
REMARK  status: ('A' for Active; 'I' for Inactive)
REMARK    1  A    between atoms: C_6  and  O_21
REMARK    2  A    between atoms: C_19  and  O_23
REMARK                            x       y       z     vdW  Elec       q    Type
REMARK                         _______ _______ _______ _____ _____    ______ ____
ROOT
ATOM      1  O   UNL     1      28.567 -23.813 -16.817  0.00  0.00    -0.288 OA
ATOM      2  C   UNL     1      36.607 -24.072 -14.252  0.00  0.00    +0.023 C 
ATOM      3  C   UNL     1      35.453 -24.872 -13.609  0.00  0.00    +0.002 C 
ATOM      4  C   UNL     1      34.107 -24.145 -13.691  0.00  0.00    +0.001 C 
ATOM      5  C   UNL     1      33.751 -23.900 -15.185  0.00  0.00    +0.004 C 
ATOM      6  C   UNL     1      37.820 -24.992 -13.907  0.00  0.00    +0.088 C 
ATOM      7  C   UNL     1      36.274 -23.886 -15.741  0.00  0.00    +0.002 C 
ATOM      8  C   UNL     1      36.000 -25.242 -12.234  0.00  0.00    +0.002 C 
ATOM      9  C   UNL     1      34.908 -23.204 -15.946  0.00  0.00    +0.000 C 
ATOM     10  C   UNL     1      37.506 -25.462 -12.461  0.00  0.00    +0.027 C 
ATOM     11  C   UNL     1      32.398 -23.135 -15.322  0.00  0.00    +0.022 C 
ATOM     12  C   UNL     1      32.984 -24.941 -13.015  0.00  0.00    +0.004 C 
ATOM     13  C   UNL     1      36.824 -22.669 -13.612  0.00  0.00    +0.002 C 
ATOM     14  C   UNL     1      31.663 -24.185 -13.096  0.00  0.00    +0.025 C 
ATOM     15  C   UNL     1      31.292 -23.816 -14.517  0.00  0.00    -0.008 C 
ATOM     16  C   UNL     1      38.022 -26.200 -14.830  0.00  0.00    +0.029 C 
ATOM     17  C   UNL     1      32.021 -22.981 -16.809  0.00  0.00    +0.012 C 
ATOM     18  C   UNL     1      30.583 -22.540 -17.000  0.00  0.00    +0.073 C 
ATOM     19  C   UNL     1      30.052 -24.041 -14.993  0.00  0.00    +0.160 C 
ATOM     20  C   UNL     1      29.656 -23.516 -16.328  0.00  0.00    +0.206 C 
ENDROOT
BRANCH   6  21
ATOM     21  O   UNL     1      39.049 -24.270 -13.904  0.00  0.00    -0.387 OA
ATOM     22  H   UNL     1      39.559 -24.501 -13.112  0.00  0.00    +0.210 HD
ENDBRANCH   6  21
BRANCH  19  23
ATOM     23  O   UNL     1      29.085 -24.694 -14.255  0.00  0.00    -0.503 OA
ATOM     24  H   UNL     1      28.537 -24.209 -13.669  0.00  0.00    +0.292 HD
ENDBRANCH  19  23
TORSDOF 2
ENDMDL
MODEL 6
REMARK VINA RESULT:      -7.9     11.908     14.050
REMARK  Name = 69249407
REMARK  2 active torsions:
REMARK  status: ('A' for Active; 'I' for Inactive)
REMARK    1  A    between atoms: C_6  and  O_21
REMARK    2  A    between atoms: C_19  and  O_23
REMARK                            x       y       z     vdW  Elec       q    Type
REMARK                         _______ _______ _______ _____ _____    ______ ____
ROOT
ATOM      1  O   UNL     1      35.525 -17.855 -23.454  0.00  0.00    -0.288 OA
ATOM      2  C   UNL     1      31.946 -10.326 -22.113  0.00  0.00    +0.023 C 
ATOM      3  C   UNL     1      32.390 -11.299 -20.998  0.00  0.00    +0.002 C 
ATOM      4  C   UNL     1      32.277 -12.770 -21.413  0.00  0.00    +0.001 C 
ATOM      5  C   UNL     1      33.175 -13.018 -22.658  0.00  0.00    +0.004 C 
ATOM      6  C   UNL     1      32.058  -8.962 -21.363  0.00  0.00    +0.088 C 
ATOM      7  C   UNL     1      32.877 -10.539 -23.317  0.00  0.00    +0.002 C 
ATOM      8  C   UNL     1      31.609 -10.823 -19.778  0.00  0.00    +0.002 C 
ATOM      9  C   UNL     1      32.881 -12.004 -23.792  0.00  0.00    +0.000 C 
ATOM     10  C   UNL     1      31.524  -9.295 -19.944  0.00  0.00    +0.027 C 
ATOM     11  C   UNL     1      33.072 -14.500 -23.138  0.00  0.00    +0.022 C 
ATOM     12  C   UNL     1      32.689 -13.717 -20.280  0.00  0.00    +0.004 C 
ATOM     13  C   UNL     1      30.476 -10.542 -22.577  0.00  0.00    +0.002 C 
ATOM     14  C   UNL     1      32.547 -15.171 -20.716  0.00  0.00    +0.025 C 
ATOM     15  C   UNL     1      33.313 -15.474 -21.986  0.00  0.00    -0.008 C 
ATOM     16  C   UNL     1      33.468  -8.364 -21.277  0.00  0.00    +0.029 C 
ATOM     17  C   UNL     1      34.036 -14.747 -24.316  0.00  0.00    +0.012 C 
ATOM     18  C   UNL     1      34.222 -16.221 -24.615  0.00  0.00    +0.073 C 
ATOM     19  C   UNL     1      34.107 -16.559 -22.078  0.00  0.00    +0.160 C 
ATOM     20  C   UNL     1      34.712 -16.935 -23.385  0.00  0.00    +0.206 C 
ENDROOT
BRANCH   6  21
ATOM     21  O   UNL     1      31.227  -7.964 -21.949  0.00  0.00    -0.387 OA
ATOM     22  H   UNL     1      31.780  -7.284 -22.365  0.00  0.00    +0.210 HD
ENDBRANCH   6  21
BRANCH  19  23
ATOM     23  O   UNL     1      34.336 -17.399 -21.008  0.00  0.00    -0.503 OA
ATOM     24  H   UNL     1      33.636 -17.921 -20.663  0.00  0.00    +0.292 HD
ENDBRANCH  19  23
TORSDOF 2
ENDMDL
MODEL 7
REMARK VINA RESULT:      -7.6     12.847     15.016
REMARK  Name = 69249407
REMARK  2 active torsions:
REMARK  status: ('A' for Active; 'I' for Inactive)
REMARK    1  A    between atoms: C_6  and  O_21
REMARK    2  A    between atoms: C_19  and  O_23
REMARK                            x       y       z     vdW  Elec       q    Type
REMARK                         _______ _______ _______ _____ _____    ______ ____
ROOT
ATOM      1  O   UNL     1      34.863 -17.188 -23.698  0.00  0.00    -0.288 OA
ATOM      2  C   UNL     1      32.070  -9.317 -22.463  0.00  0.00    +0.023 C 
ATOM      3  C   UNL     1      32.389 -10.324 -21.336  0.00  0.00    +0.002 C 
ATOM      4  C   UNL     1      32.129 -11.777 -21.745  0.00  0.00    +0.001 C 
ATOM      5  C   UNL     1      33.019 -12.127 -22.972  0.00  0.00    +0.004 C 
ATOM      6  C   UNL     1      32.311  -7.967 -21.718  0.00  0.00    +0.088 C 
ATOM      7  C   UNL     1      32.995  -9.635 -23.649  0.00  0.00    +0.002 C 
ATOM      8  C   UNL     1      31.640  -9.760 -20.133  0.00  0.00    +0.002 C 
ATOM      9  C   UNL     1      32.854 -11.095 -24.116  0.00  0.00    +0.000 C 
ATOM     10  C   UNL     1      31.719  -8.232 -20.308  0.00  0.00    +0.027 C 
ATOM     11  C   UNL     1      32.770 -13.593 -23.446  0.00  0.00    +0.022 C 
ATOM     12  C   UNL     1      32.420 -12.754 -20.599  0.00  0.00    +0.004 C 
ATOM     13  C   UNL     1      30.593  -9.381 -22.954  0.00  0.00    +0.002 C 
ATOM     14  C   UNL     1      32.134 -14.189 -21.030  0.00  0.00    +0.025 C 
ATOM     15  C   UNL     1      32.887 -14.579 -22.284  0.00  0.00    -0.008 C 
ATOM     16  C   UNL     1      33.773  -7.519 -21.610  0.00  0.00    +0.029 C 
ATOM     17  C   UNL     1      33.724 -13.948 -24.604  0.00  0.00    +0.012 C 
ATOM     18  C   UNL     1      33.759 -15.435 -24.892  0.00  0.00    +0.073 C 
ATOM     19  C   UNL     1      33.564 -15.742 -22.356  0.00  0.00    +0.160 C 
ATOM     20  C   UNL     1      34.150 -16.188 -23.649  0.00  0.00    +0.206 C 
ENDROOT
BRANCH   6  21
ATOM     21  O   UNL     1      31.599  -6.892 -22.326  0.00  0.00    -0.387 OA
ATOM     22  H   UNL     1      31.926  -6.048 -21.977  0.00  0.00    +0.210 HD
ENDBRANCH   6  21
BRANCH  19  23
ATOM     23  O   UNL     1      33.684 -16.594 -21.277  0.00  0.00    -0.503 OA
ATOM     24  H   UNL     1      34.476 -16.605 -20.774  0.00  0.00    +0.292 HD
ENDBRANCH  19  23
TORSDOF 2
ENDMDL
MODEL 8
REMARK VINA RESULT:      -7.5      4.243      6.383
REMARK  Name = 69249407
REMARK  2 active torsions:
REMARK  status: ('A' for Active; 'I' for Inactive)
REMARK    1  A    between atoms: C_6  and  O_21
REMARK    2  A    between atoms: C_19  and  O_23
REMARK                            x       y       z     vdW  Elec       q    Type
REMARK                         _______ _______ _______ _____ _____    ______ ____
ROOT
ATOM      1  O   UNL     1      35.025 -24.045 -13.058  0.00  0.00    -0.288 OA
ATOM      2  C   UNL     1      35.504 -20.383 -20.650  0.00  0.00    +0.023 C 
ATOM      3  C   UNL     1      34.197 -20.580 -19.850  0.00  0.00    +0.002 C 
ATOM      4  C   UNL     1      34.218 -21.840 -18.979  0.00  0.00    +0.001 C 
ATOM      5  C   UNL     1      35.394 -21.739 -17.966  0.00  0.00    +0.004 C 
ATOM      6  C   UNL     1      35.132 -19.128 -21.500  0.00  0.00    +0.088 C 
ATOM      7  C   UNL     1      36.651 -20.225 -19.639  0.00  0.00    +0.002 C 
ATOM      8  C   UNL     1      33.108 -20.444 -20.909  0.00  0.00    +0.002 C 
ATOM      9  C   UNL     1      36.736 -21.420 -18.672  0.00  0.00    +0.000 C 
ATOM     10  C   UNL     1      33.654 -19.394 -21.895  0.00  0.00    +0.027 C 
ATOM     11  C   UNL     1      35.476 -23.015 -17.071  0.00  0.00    +0.022 C 
ATOM     12  C   UNL     1      32.899 -22.035 -18.222  0.00  0.00    +0.004 C 
ATOM     13  C   UNL     1      35.838 -21.570 -21.599  0.00  0.00    +0.002 C 
ATOM     14  C   UNL     1      32.943 -23.305 -17.380  0.00  0.00    +0.025 C 
ATOM     15  C   UNL     1      34.124 -23.332 -16.433  0.00  0.00    -0.008 C 
ATOM     16  C   UNL     1      35.259 -17.777 -20.785  0.00  0.00    +0.029 C 
ATOM     17  C   UNL     1      36.590 -22.856 -16.017  0.00  0.00    +0.012 C 
ATOM     18  C   UNL     1      36.510 -23.905 -14.926  0.00  0.00    +0.073 C 
ATOM     19  C   UNL     1      33.968 -23.663 -15.136  0.00  0.00    +0.160 C 
ATOM     20  C   UNL     1      35.160 -23.854 -14.265  0.00  0.00    +0.206 C 
ENDROOT
BRANCH   6  21
ATOM     21  O   UNL     1      35.919 -19.037 -22.685  0.00  0.00    -0.387 OA
ATOM     22  H   UNL     1      35.556 -18.350 -23.264  0.00  0.00    +0.210 HD
ENDBRANCH   6  21
BRANCH  19  23
ATOM     23  O   UNL     1      32.730 -23.907 -14.580  0.00  0.00    -0.503 OA
ATOM     24  H   UNL     1      31.983 -24.033 -15.134  0.00  0.00    +0.292 HD
ENDBRANCH  19  23
TORSDOF 2
ENDMDL
MODEL 9
REMARK VINA RESULT:      -7.5     10.421     12.976
REMARK  Name = 69249407
REMARK  2 active torsions:
REMARK  status: ('A' for Active; 'I' for Inactive)
REMARK    1  A    between atoms: C_6  and  O_21
REMARK    2  A    between atoms: C_19  and  O_23
REMARK                            x       y       z     vdW  Elec       q    Type
REMARK                         _______ _______ _______ _____ _____    ______ ____
ROOT
ATOM      1  O   UNL     1      32.092  -9.622 -21.471  0.00  0.00    -0.288 OA
ATOM      2  C   UNL     1      34.428 -17.720 -21.955  0.00  0.00    +0.023 C 
ATOM      3  C   UNL     1      34.638 -16.677 -23.074  0.00  0.00    +0.002 C 
ATOM      4  C   UNL     1      33.543 -15.606 -23.101  0.00  0.00    +0.001 C 
ATOM      5  C   UNL     1      33.530 -14.857 -21.738  0.00  0.00    +0.004 C 
ATOM      6  C   UNL     1      35.597 -18.707 -22.261  0.00  0.00    +0.088 C 
ATOM      7  C   UNL     1      34.475 -16.979 -20.609  0.00  0.00    +0.002 C 
ATOM      8  C   UNL     1      34.855 -17.530 -24.320  0.00  0.00    +0.002 C 
ATOM      9  C   UNL     1      33.442 -15.839 -20.542  0.00  0.00    +0.000 C 
ATOM     10  C   UNL     1      35.606 -18.774 -23.812  0.00  0.00    +0.027 C 
ATOM     11  C   UNL     1      32.409 -13.770 -21.705  0.00  0.00    +0.022 C 
ATOM     12  C   UNL     1      33.753 -14.602 -24.241  0.00  0.00    +0.004 C 
ATOM     13  C   UNL     1      33.072 -18.478 -22.057  0.00  0.00    +0.002 C 
ATOM     14  C   UNL     1      32.639 -13.561 -24.254  0.00  0.00    +0.025 C 
ATOM     15  C   UNL     1      32.490 -12.853 -22.925  0.00  0.00    -0.008 C 
ATOM     16  C   UNL     1      36.976 -18.289 -21.736  0.00  0.00    +0.029 C 
ATOM     17  C   UNL     1      32.471 -12.981 -20.382  0.00  0.00    +0.012 C 
ATOM     18  C   UNL     1      31.633 -11.719 -20.419  0.00  0.00    +0.073 C 
ATOM     19  C   UNL     1      32.392 -11.511 -22.858  0.00  0.00    +0.160 C 
ATOM     20  C   UNL     1      32.073 -10.847 -21.565  0.00  0.00    +0.206 C 
ENDROOT
BRANCH   6  21
ATOM     21  O   UNL     1      35.342 -20.010 -21.742  0.00  0.00    -0.387 OA
ATOM     22  H   UNL     1      35.079 -19.943 -20.811  0.00  0.00    +0.210 HD
ENDBRANCH   6  21
BRANCH  19  23
ATOM     23  O   UNL     1      32.507 -10.706 -23.972  0.00  0.00    -0.503 OA
ATOM     24  H   UNL     1      33.339 -10.336 -24.199  0.00  0.00    +0.292 HD
ENDBRANCH  19  23
TORSDOF 2
ENDMDL
