MODEL 1
REMARK VINA RESULT:     -11.5      0.000      0.000
REMARK  Name = 5288018
REMARK  3 active torsions:
REMARK  status: ('A' for Active; 'I' for Inactive)
REMARK    1  A    between atoms: C_9  and  N_24
REMARK    2  A    between atoms: C_10  and  C_17
REMARK    3  A    between atoms: N_23  and  N_29
REMARK                            x       y       z     vdW  Elec       q    Type
REMARK                         _______ _______ _______ _____ _____    ______ ____
ROOT
ATOM      1  O   UNL     1      35.720 -23.044 -16.777  0.00  0.00    -0.286 OA
ATOM      2  N   UNL     1      34.576 -24.933 -12.901  0.00  0.00    -0.278 N 
ATOM      3  N   UNL     1      33.267 -24.713 -13.210  0.00  0.00    -0.173 NA
ATOM      4  C   UNL     1      33.292 -23.092 -16.440  0.00  0.00    +0.054 C 
ATOM      5  C   UNL     1      34.690 -23.970 -14.832  0.00  0.00    +0.072 A 
ATOM      6  C   UNL     1      32.482 -23.584 -15.379  0.00  0.00    +0.024 C 
ATOM      7  C   UNL     1      33.368 -24.124 -14.392  0.00  0.00    +0.105 A 
ATOM      8  C   UNL     1      34.742 -23.327 -16.116  0.00  0.00    +0.199 C 
ATOM      9  C   UNL     1      32.732 -22.511 -17.543  0.00  0.00    +0.055 C 
ATOM     10  C   UNL     1      35.474 -24.498 -13.855  0.00  0.00    +0.073 A 
ATOM     11  C   UNL     1      31.110 -23.498 -15.418  0.00  0.00    +0.002 C 
ATOM     12  C   UNL     1      31.349 -22.412 -17.605  0.00  0.00    +0.015 C 
ATOM     13  C   UNL     1      30.545 -22.901 -16.551  0.00  0.00    +0.001 C 
ATOM     14  H   UNL     1      34.859 -25.367 -12.064  0.00  0.00    +0.189 HD
ENDROOT
BRANCH  10  17
ATOM     15  S   UNL     1      37.768 -25.696 -14.741  0.00  0.00    -0.075 S 
ATOM     16  N   UNL     1      39.074 -24.327 -12.978  0.00  0.00    -0.407 NA
ATOM     17  C   UNL     1      36.873 -24.630 -13.733  0.00  0.00    +0.141 C 
ATOM     18  C   UNL     1      37.739 -23.992 -12.863  0.00  0.00    +0.103 C 
ATOM     19  C   UNL     1      39.207 -25.218 -13.936  0.00  0.00    +0.135 C 
ATOM     20  C   UNL     1      37.366 -22.996 -11.836  0.00  0.00    +0.063 C 
ATOM     21  C   UNL     1      40.495 -25.816 -14.350  0.00  0.00    +0.074 C 
ENDBRANCH  10  17
BRANCH   9  24
ATOM     22  O   UNL     1      32.177 -20.328 -19.525  0.00  0.00    -0.251 OA
ATOM     23  N   UNL     1      34.262 -20.807 -20.403  0.00  0.00    -0.231 N 
ATOM     24  N   UNL     1      33.522 -22.017 -18.605  0.00  0.00    -0.267 N 
ATOM     25  C   UNL     1      33.211 -20.991 -19.503  0.00  0.00    +0.318 C 
ATOM     26  H   UNL     1      35.072 -21.365 -20.344  0.00  0.00    +0.171 HD
ATOM     27  H   UNL     1      34.399 -22.448 -18.729  0.00  0.00    +0.156 HD
BRANCH  23  29
ATOM     28  N   UNL     1      35.268 -17.783 -23.077  0.00  0.00    +0.387 N 
ATOM     29  N   UNL     1      34.153 -19.835 -21.379  0.00  0.00    -0.209 NA
ATOM     30  C   UNL     1      34.888 -19.095 -23.616  0.00  0.00    -0.058 C 
ATOM     31  C   UNL     1      34.434 -17.443 -21.917  0.00  0.00    -0.058 C 
ATOM     32  C   UNL     1      34.986 -20.178 -22.535  0.00  0.00    +0.069 C 
ATOM     33  C   UNL     1      34.531 -18.526 -20.838  0.00  0.00    +0.069 C 
ATOM     34  C   UNL     1      35.172 -16.751 -24.106  0.00  0.00    -0.101 C 
ATOM     35  H   UNL     1      36.240 -17.832 -22.769  0.00  0.00    -0.080 HD
ENDBRANCH  23  29
ENDBRANCH   9  24
TORSDOF 3
ENDMDL
MODEL 2
REMARK VINA RESULT:     -11.1      2.855      5.649
REMARK  Name = 5288018
REMARK  3 active torsions:
REMARK  status: ('A' for Active; 'I' for Inactive)
REMARK    1  A    between atoms: C_9  and  N_24
REMARK    2  A    between atoms: C_10  and  C_17
REMARK    3  A    between atoms: N_23  and  N_29
REMARK                            x       y       z     vdW  Elec       q    Type
REMARK                         _______ _______ _______ _____ _____    ______ ____
ROOT
ATOM      1  O   UNL     1      32.443 -22.239 -18.411  0.00  0.00    -0.286 OA
ATOM      2  N   UNL     1      32.401 -23.991 -14.308  0.00  0.00    -0.278 N 
ATOM      3  N   UNL     1      33.759 -23.877 -14.274  0.00  0.00    -0.173 NA
ATOM      4  C   UNL     1      34.692 -22.434 -17.453  0.00  0.00    +0.054 C 
ATOM      5  C   UNL     1      32.863 -23.127 -16.234  0.00  0.00    +0.072 A 
ATOM      6  C   UNL     1      35.161 -22.923 -16.202  0.00  0.00    +0.024 C 
ATOM      7  C   UNL     1      34.011 -23.348 -15.461  0.00  0.00    +0.105 A 
ATOM      8  C   UNL     1      33.193 -22.552 -17.509  0.00  0.00    +0.199 C 
ATOM      9  C   UNL     1      35.560 -21.952 -18.392  0.00  0.00    +0.055 C 
ATOM     10  C   UNL     1      31.816 -23.548 -15.477  0.00  0.00    +0.073 A 
ATOM     11  C   UNL     1      36.500 -22.930 -15.886  0.00  0.00    +0.002 C 
ATOM     12  C   UNL     1      36.916 -21.949 -18.096  0.00  0.00    +0.015 C 
ATOM     13  C   UNL     1      37.381 -22.435 -16.852  0.00  0.00    +0.001 C 
ATOM     14  H   UNL     1      31.879 -24.359 -13.559  0.00  0.00    +0.189 HD
ENDROOT
BRANCH  10  17
ATOM     15  S   UNL     1      29.600 -22.226 -16.385  0.00  0.00    -0.075 S 
ATOM     16  N   UNL     1      28.207 -24.332 -15.829  0.00  0.00    -0.407 NA
ATOM     17  C   UNL     1      30.425 -23.577 -15.717  0.00  0.00    +0.141 C 
ATOM     18  C   UNL     1      29.519 -24.597 -15.491  0.00  0.00    +0.103 C 
ATOM     19  C   UNL     1      28.131 -23.111 -16.311  0.00  0.00    +0.135 C 
ATOM     20  C   UNL     1      29.829 -25.929 -14.926  0.00  0.00    +0.063 C 
ATOM     21  C   UNL     1      26.882 -22.473 -16.781  0.00  0.00    +0.074 C 
ENDBRANCH  10  17
BRANCH   9  24
ATOM     22  O   UNL     1      36.386 -19.516 -19.937  0.00  0.00    -0.251 OA
ATOM     23  N   UNL     1      34.841 -20.188 -21.521  0.00  0.00    -0.231 N 
ATOM     24  N   UNL     1      35.110 -21.464 -19.639  0.00  0.00    -0.267 N 
ATOM     25  C   UNL     1      35.533 -20.315 -20.317  0.00  0.00    +0.318 C 
ATOM     26  H   UNL     1      34.165 -20.856 -21.781  0.00  0.00    +0.171 HD
ATOM     27  H   UNL     1      34.413 -21.997 -20.087  0.00  0.00    +0.156 HD
BRANCH  23  29
ATOM     28  N   UNL     1      34.295 -16.940 -24.062  0.00  0.00    +0.387 N 
ATOM     29  N   UNL     1      35.112 -19.112 -22.345  0.00  0.00    -0.209 NA
ATOM     30  C   UNL     1      34.805 -16.690 -22.709  0.00  0.00    -0.058 C 
ATOM     31  C   UNL     1      34.879 -18.169 -24.614  0.00  0.00    -0.058 C 
ATOM     32  C   UNL     1      34.528 -17.887 -21.792  0.00  0.00    +0.069 C 
ATOM     33  C   UNL     1      34.603 -19.364 -23.697  0.00  0.00    +0.069 C 
ATOM     34  C   UNL     1      34.562 -15.800 -24.937  0.00  0.00    -0.101 C 
ATOM     35  H   UNL     1      33.283 -17.064 -24.006  0.00  0.00    -0.080 HD
ENDBRANCH  23  29
ENDBRANCH   9  24
TORSDOF 3
ENDMDL
MODEL 3
REMARK VINA RESULT:     -10.7     10.165     15.661
REMARK  Name = 5288018
REMARK  3 active torsions:
REMARK  status: ('A' for Active; 'I' for Inactive)
REMARK    1  A    between atoms: C_9  and  N_24
REMARK    2  A    between atoms: C_10  and  C_17
REMARK    3  A    between atoms: N_23  and  N_29
REMARK                            x       y       z     vdW  Elec       q    Type
REMARK                         _______ _______ _______ _____ _____    ______ ____
ROOT
ATOM      1  O   UNL     1      32.610  -9.641 -23.932  0.00  0.00    -0.286 OA
ATOM      2  N   UNL     1      32.058  -5.836 -21.670  0.00  0.00    -0.278 N 
ATOM      3  N   UNL     1      31.789  -6.569 -20.553  0.00  0.00    -0.173 NA
ATOM      4  C   UNL     1      32.041 -10.026 -21.578  0.00  0.00    +0.054 C 
ATOM      5  C   UNL     1      32.231  -7.871 -22.375  0.00  0.00    +0.072 A 
ATOM      6  C   UNL     1      31.779  -9.136 -20.499  0.00  0.00    +0.024 C 
ATOM      7  C   UNL     1      31.901  -7.806 -21.014  0.00  0.00    +0.105 A 
ATOM      8  C   UNL     1      32.340  -9.233 -22.821  0.00  0.00    +0.199 C 
ATOM      9  C   UNL     1      32.000 -11.380 -21.401  0.00  0.00    +0.055 C 
ATOM     10  C   UNL     1      32.331  -6.584 -22.798  0.00  0.00    +0.073 A 
ATOM     11  C   UNL     1      31.476  -9.599 -19.239  0.00  0.00    +0.002 C 
ATOM     12  C   UNL     1      31.697 -11.871 -20.139  0.00  0.00    +0.015 C 
ATOM     13  C   UNL     1      31.436 -10.987 -19.067  0.00  0.00    +0.001 C 
ATOM     14  H   UNL     1      32.057  -4.851 -21.673  0.00  0.00    +0.189 HD
ENDROOT
BRANCH  10  17
ATOM     15  S   UNL     1      31.589  -4.889 -24.813  0.00  0.00    -0.075 S 
ATOM     16  N   UNL     1      33.759  -5.541 -26.059  0.00  0.00    -0.407 NA
ATOM     17  C   UNL     1      32.636  -6.022 -24.056  0.00  0.00    +0.141 C 
ATOM     18  C   UNL     1      33.733  -6.241 -24.869  0.00  0.00    +0.103 C 
ATOM     19  C   UNL     1      32.678  -4.796 -26.137  0.00  0.00    +0.135 C 
ATOM     20  C   UNL     1      34.866  -7.147 -24.579  0.00  0.00    +0.063 C 
ATOM     21  C   UNL     1      32.356  -3.904 -27.272  0.00  0.00    +0.074 C 
ENDBRANCH  10  17
BRANCH   9  24
ATOM     22  O   UNL     1      33.861 -13.729 -21.552  0.00  0.00    -0.251 OA
ATOM     23  N   UNL     1      33.100 -13.995 -23.720  0.00  0.00    -0.231 N 
ATOM     24  N   UNL     1      32.258 -12.276 -22.463  0.00  0.00    -0.267 N 
ATOM     25  C   UNL     1      33.141 -13.361 -22.478  0.00  0.00    +0.318 C 
ATOM     26  H   UNL     1      32.506 -13.660 -24.431  0.00  0.00    +0.171 HD
ATOM     27  H   UNL     1      31.754 -12.118 -23.294  0.00  0.00    +0.156 HD
BRANCH  23  29
ATOM     28  N   UNL     1      34.306 -17.927 -24.342  0.00  0.00    +0.387 N 
ATOM     29  N   UNL     1      33.904 -15.096 -23.943  0.00  0.00    -0.209 NA
ATOM     30  C   UNL     1      34.419 -16.977 -25.456  0.00  0.00    -0.058 C 
ATOM     31  C   UNL     1      34.663 -17.278 -23.074  0.00  0.00    -0.058 C 
ATOM     32  C   UNL     1      33.546 -15.741 -25.209  0.00  0.00    +0.069 C 
ATOM     33  C   UNL     1      33.791 -16.042 -22.828  0.00  0.00    +0.069 C 
ATOM     34  C   UNL     1      35.140 -19.104 -24.576  0.00  0.00    -0.101 C 
ATOM     35  H   UNL     1      33.335 -18.236 -24.281  0.00  0.00    -0.080 HD
ENDBRANCH  23  29
ENDBRANCH   9  24
TORSDOF 3
ENDMDL
MODEL 4
REMARK VINA RESULT:     -10.6      9.874     15.508
REMARK  Name = 5288018
REMARK  3 active torsions:
REMARK  status: ('A' for Active; 'I' for Inactive)
REMARK    1  A    between atoms: C_9  and  N_24
REMARK    2  A    between atoms: C_10  and  C_17
REMARK    3  A    between atoms: N_23  and  N_29
REMARK                            x       y       z     vdW  Elec       q    Type
REMARK                         _______ _______ _______ _____ _____    ______ ____
ROOT
ATOM      1  O   UNL     1      32.821  -9.851 -23.949  0.00  0.00    -0.286 OA
ATOM      2  N   UNL     1      32.277  -6.018 -21.731  0.00  0.00    -0.278 N 
ATOM      3  N   UNL     1      31.930  -6.736 -20.627  0.00  0.00    -0.173 NA
ATOM      4  C   UNL     1      32.123 -10.205 -21.624  0.00  0.00    +0.054 C 
ATOM      5  C   UNL     1      32.421  -8.061 -22.418  0.00  0.00    +0.072 A 
ATOM      6  C   UNL     1      31.836  -9.301 -20.563  0.00  0.00    +0.024 C 
ATOM      7  C   UNL     1      32.026  -7.979 -21.076  0.00  0.00    +0.105 A 
ATOM      8  C   UNL     1      32.509  -9.428 -22.854  0.00  0.00    +0.199 C 
ATOM      9  C   UNL     1      32.031 -11.556 -21.444  0.00  0.00    +0.055 C 
ATOM     10  C   UNL     1      32.583  -6.780 -22.841  0.00  0.00    +0.073 A 
ATOM     11  C   UNL     1      31.456  -9.748 -19.318  0.00  0.00    +0.002 C 
ATOM     12  C   UNL     1      31.649 -12.031 -20.197  0.00  0.00    +0.015 C 
ATOM     13  C   UNL     1      31.363 -11.133 -19.143  0.00  0.00    +0.001 C 
ATOM     14  H   UNL     1      32.308  -5.034 -21.738  0.00  0.00    +0.189 HD
ENDROOT
BRANCH  10  17
ATOM     15  S   UNL     1      34.509  -6.559 -24.771  0.00  0.00    -0.075 S 
ATOM     16  N   UNL     1      32.899  -5.031 -26.097  0.00  0.00    -0.407 NA
ATOM     17  C   UNL     1      32.967  -6.235 -24.085  0.00  0.00    +0.141 C 
ATOM     18  C   UNL     1      32.256  -5.407 -24.934  0.00  0.00    +0.103 C 
ATOM     19  C   UNL     1      34.094  -5.579 -26.118  0.00  0.00    +0.135 C 
ATOM     20  C   UNL     1      30.886  -4.897 -24.710  0.00  0.00    +0.063 C 
ATOM     21  C   UNL     1      35.077  -5.404 -27.209  0.00  0.00    +0.074 C 
ENDBRANCH  10  17
BRANCH   9  24
ATOM     22  O   UNL     1      33.888 -13.912 -21.521  0.00  0.00    -0.251 OA
ATOM     23  N   UNL     1      33.181 -14.201 -23.704  0.00  0.00    -0.231 N 
ATOM     24  N   UNL     1      32.313 -12.466 -22.489  0.00  0.00    -0.267 N 
ATOM     25  C   UNL     1      33.193 -13.553 -22.468  0.00  0.00    +0.318 C 
ATOM     26  H   UNL     1      32.607 -13.874 -24.433  0.00  0.00    +0.171 HD
ATOM     27  H   UNL     1      31.831 -12.316 -23.335  0.00  0.00    +0.156 HD
BRANCH  23  29
ATOM     28  N   UNL     1      34.389 -18.137 -24.300  0.00  0.00    +0.387 N 
ATOM     29  N   UNL     1      33.988 -15.307 -23.893  0.00  0.00    -0.209 NA
ATOM     30  C   UNL     1      34.572 -17.176 -25.395  0.00  0.00    -0.058 C 
ATOM     31  C   UNL     1      34.679 -17.504 -23.007  0.00  0.00    -0.058 C 
ATOM     32  C   UNL     1      33.697 -15.935 -25.185  0.00  0.00    +0.069 C 
ATOM     33  C   UNL     1      33.804 -16.264 -22.797  0.00  0.00    +0.069 C 
ATOM     34  C   UNL     1      35.225 -19.318 -24.500  0.00  0.00    -0.101 C 
ATOM     35  H   UNL     1      33.414 -18.438 -24.297  0.00  0.00    -0.080 HD
ENDBRANCH  23  29
ENDBRANCH   9  24
TORSDOF 3
ENDMDL
MODEL 5
REMARK VINA RESULT:      -9.6      1.512      1.911
REMARK  Name = 5288018
REMARK  3 active torsions:
REMARK  status: ('A' for Active; 'I' for Inactive)
REMARK    1  A    between atoms: C_9  and  N_24
REMARK    2  A    between atoms: C_10  and  C_17
REMARK    3  A    between atoms: N_23  and  N_29
REMARK                            x       y       z     vdW  Elec       q    Type
REMARK                         _______ _______ _______ _____ _____    ______ ____
ROOT
ATOM      1  O   UNL     1      34.866 -23.796 -16.757  0.00  0.00    -0.286 OA
ATOM      2  N   UNL     1      35.390 -24.671 -12.413  0.00  0.00    -0.278 N 
ATOM      3  N   UNL     1      34.057 -24.450 -12.234  0.00  0.00    -0.173 NA
ATOM      4  C   UNL     1      32.764 -23.621 -15.506  0.00  0.00    +0.054 C 
ATOM      5  C   UNL     1      34.709 -24.187 -14.406  0.00  0.00    +0.072 A 
ATOM      6  C   UNL     1      32.450 -23.806 -14.131  0.00  0.00    +0.024 C 
ATOM      7  C   UNL     1      33.669 -24.156 -13.466  0.00  0.00    +0.105 A 
ATOM      8  C   UNL     1      34.233 -23.861 -15.722  0.00  0.00    +0.199 C 
ATOM      9  C   UNL     1      31.799 -23.276 -16.409  0.00  0.00    +0.055 C 
ATOM     10  C   UNL     1      35.829 -24.522 -13.714  0.00  0.00    +0.073 A 
ATOM     11  C   UNL     1      31.168 -23.649 -13.656  0.00  0.00    +0.002 C 
ATOM     12  C   UNL     1      30.498 -23.112 -15.954  0.00  0.00    +0.015 C 
ATOM     13  C   UNL     1      30.186 -23.296 -14.587  0.00  0.00    +0.001 C 
ATOM     14  H   UNL     1      35.992 -24.918 -11.674  0.00  0.00    +0.189 HD
ENDROOT
BRANCH  10  17
ATOM     15  S   UNL     1      38.082 -26.071 -13.607  0.00  0.00    -0.075 S 
ATOM     16  N   UNL     1      39.247 -24.348 -15.142  0.00  0.00    -0.407 NA
ATOM     17  C   UNL     1      37.170 -24.706 -14.115  0.00  0.00    +0.141 C 
ATOM     18  C   UNL     1      37.958 -23.907 -14.923  0.00  0.00    +0.103 C 
ATOM     19  C   UNL     1      39.425 -25.480 -14.497  0.00  0.00    +0.135 C 
ATOM     20  C   UNL     1      37.546 -22.639 -15.564  0.00  0.00    +0.063 C 
ATOM     21  C   UNL     1      40.685 -26.254 -14.495  0.00  0.00    +0.074 C 
ENDBRANCH  10  17
BRANCH   9  24
ATOM     22  O   UNL     1      33.658 -21.337 -17.746  0.00  0.00    -0.251 OA
ATOM     23  N   UNL     1      32.982 -22.300 -19.737  0.00  0.00    -0.231 N 
ATOM     24  N   UNL     1      32.095 -23.087 -17.778  0.00  0.00    -0.267 N 
ATOM     25  C   UNL     1      32.976 -22.162 -18.348  0.00  0.00    +0.318 C 
ATOM     26  H   UNL     1      32.416 -22.977 -20.173  0.00  0.00    +0.171 HD
ATOM     27  H   UNL     1      31.623 -23.679 -18.409  0.00  0.00    +0.156 HD
BRANCH  23  29
ATOM     28  N   UNL     1      35.335 -19.064 -20.875  0.00  0.00    +0.387 N 
ATOM     29  N   UNL     1      33.791 -21.473 -20.493  0.00  0.00    -0.209 NA
ATOM     30  C   UNL     1      35.988 -20.361 -20.659  0.00  0.00    -0.058 C 
ATOM     31  C   UNL     1      34.033 -19.246 -21.528  0.00  0.00    -0.058 C 
ATOM     32  C   UNL     1      35.090 -21.294 -19.839  0.00  0.00    +0.069 C 
ATOM     33  C   UNL     1      33.136 -20.179 -20.708  0.00  0.00    +0.069 C 
ATOM     34  C   UNL     1      36.190 -18.176 -21.659  0.00  0.00    -0.101 C 
ATOM     35  H   UNL     1      35.179 -18.628 -19.965  0.00  0.00    -0.080 HD
ENDBRANCH  23  29
ENDBRANCH   9  24
TORSDOF 3
ENDMDL
MODEL 6
REMARK VINA RESULT:      -8.9      5.550     10.251
REMARK  Name = 5288018
REMARK  3 active torsions:
REMARK  status: ('A' for Active; 'I' for Inactive)
REMARK    1  A    between atoms: C_9  and  N_24
REMARK    2  A    between atoms: C_10  and  C_17
REMARK    3  A    between atoms: N_23  and  N_29
REMARK                            x       y       z     vdW  Elec       q    Type
REMARK                         _______ _______ _______ _____ _____    ______ ____
ROOT
ATOM      1  O   UNL     1      33.629 -16.393 -21.303  0.00  0.00    -0.286 OA
ATOM      2  N   UNL     1      35.252 -19.639 -23.897  0.00  0.00    -0.278 N 
ATOM      3  N   UNL     1      35.018 -18.852 -24.984  0.00  0.00    -0.173 NA
ATOM      4  C   UNL     1      33.596 -15.795 -23.681  0.00  0.00    +0.054 C 
ATOM      5  C   UNL     1      34.410 -17.850 -23.026  0.00  0.00    +0.072 A 
ATOM      6  C   UNL     1      34.003 -16.497 -24.850  0.00  0.00    +0.024 C 
ATOM      7  C   UNL     1      34.504 -17.768 -24.422  0.00  0.00    +0.105 A 
ATOM      8  C   UNL     1      33.847 -16.650 -22.469  0.00  0.00    +0.199 C 
ATOM      9  C   UNL     1      33.069 -14.537 -23.761  0.00  0.00    +0.055 C 
ATOM     10  C   UNL     1      34.898 -19.072 -22.689  0.00  0.00    +0.073 A 
ATOM     11  C   UNL     1      33.884 -15.941 -26.103  0.00  0.00    +0.002 C 
ATOM     12  C   UNL     1      32.939 -13.955 -25.015  0.00  0.00    +0.015 C 
ATOM     13  C   UNL     1      33.343 -14.653 -26.176  0.00  0.00    +0.001 C 
ATOM     14  H   UNL     1      35.642 -20.540 -23.967  0.00  0.00    +0.189 HD
ENDROOT
BRANCH  10  17
ATOM     15  S   UNL     1      36.613 -20.066 -20.804  0.00  0.00    -0.075 S 
ATOM     16  N   UNL     1      34.553 -20.762 -19.405  0.00  0.00    -0.407 NA
ATOM     17  C   UNL     1      35.057 -19.717 -21.444  0.00  0.00    +0.141 C 
ATOM     18  C   UNL     1      34.091 -20.161 -20.559  0.00  0.00    +0.103 C 
ATOM     19  C   UNL     1      35.868 -20.768 -19.426  0.00  0.00    +0.135 C 
ATOM     20  C   UNL     1      32.627 -20.049 -20.738  0.00  0.00    +0.063 C 
ATOM     21  C   UNL     1      36.720 -21.331 -18.356  0.00  0.00    +0.074 C 
ENDBRANCH  10  17
BRANCH   9  24
ATOM     22  O   UNL     1      32.461 -11.622 -23.388  0.00  0.00    -0.251 OA
ATOM     23  N   UNL     1      32.011 -12.158 -21.184  0.00  0.00    -0.231 N 
ATOM     24  N   UNL     1      32.659 -13.828 -22.610  0.00  0.00    -0.267 N 
ATOM     25  C   UNL     1      32.388 -12.460 -22.493  0.00  0.00    +0.318 C 
ATOM     26  H   UNL     1      31.968 -12.865 -20.501  0.00  0.00    +0.171 HD
ATOM     27  H   UNL     1      32.551 -14.361 -21.788  0.00  0.00    +0.156 HD
BRANCH  23  29
ATOM     28  N   UNL     1      32.435  -8.158 -20.122  0.00  0.00    +0.387 N 
ATOM     29  N   UNL     1      31.700 -10.851 -20.857  0.00  0.00    -0.209 NA
ATOM     30  C   UNL     1      31.956  -8.475 -21.473  0.00  0.00    -0.058 C 
ATOM     31  C   UNL     1      31.857  -9.085 -19.140  0.00  0.00    -0.058 C 
ATOM     32  C   UNL     1      32.277  -9.929 -21.838  0.00  0.00    +0.069 C 
ATOM     33  C   UNL     1      32.178 -10.537 -19.506  0.00  0.00    +0.069 C 
ATOM     34  C   UNL     1      32.126  -6.773 -19.773  0.00  0.00    -0.101 C 
ATOM     35  H   UNL     1      33.450  -8.268 -20.107  0.00  0.00    -0.080 HD
ENDBRANCH  23  29
ENDBRANCH   9  24
TORSDOF 3
ENDMDL
MODEL 7
REMARK VINA RESULT:      -8.8     11.871     18.354
REMARK  Name = 5288018
REMARK  3 active torsions:
REMARK  status: ('A' for Active; 'I' for Inactive)
REMARK    1  A    between atoms: C_9  and  N_24
REMARK    2  A    between atoms: C_10  and  C_17
REMARK    3  A    between atoms: N_23  and  N_29
REMARK                            x       y       z     vdW  Elec       q    Type
REMARK                         _______ _______ _______ _____ _____    ______ ____
ROOT
ATOM      1  O   UNL     1      33.024  -7.219 -25.161  0.00  0.00    -0.286 OA
ATOM      2  N   UNL     1      31.466  -3.212 -23.968  0.00  0.00    -0.278 N 
ATOM      3  N   UNL     1      31.335  -3.672 -22.692  0.00  0.00    -0.173 NA
ATOM      4  C   UNL     1      32.464  -7.105 -22.776  0.00  0.00    +0.054 C 
ATOM      5  C   UNL     1      32.159  -5.254 -24.116  0.00  0.00    +0.072 A 
ATOM      6  C   UNL     1      31.947  -6.057 -21.964  0.00  0.00    +0.024 C 
ATOM      7  C   UNL     1      31.765  -4.919 -22.813  0.00  0.00    +0.105 A 
ATOM      8  C   UNL     1      32.616  -6.615 -24.191  0.00  0.00    +0.199 C 
ATOM      9  C   UNL     1      32.746  -8.333 -22.249  0.00  0.00    +0.055 C 
ATOM     10  C   UNL     1      31.962  -4.137 -24.865  0.00  0.00    +0.073 A 
ATOM     11  C   UNL     1      31.712  -6.236 -20.620  0.00  0.00    +0.002 C 
ATOM     12  C   UNL     1      32.517  -8.537 -20.895  0.00  0.00    +0.015 C 
ATOM     13  C   UNL     1      32.003  -7.497 -20.088  0.00  0.00    +0.001 C 
ATOM     14  H   UNL     1      31.227  -2.294 -24.230  0.00  0.00    +0.189 HD
ENDROOT
BRANCH  10  17
ATOM     15  S   UNL     1      33.312  -4.759 -27.162  0.00  0.00    -0.075 S 
ATOM     16  N   UNL     1      31.989  -2.887 -28.357  0.00  0.00    -0.407 NA
ATOM     17  C   UNL     1      32.175  -3.866 -26.234  0.00  0.00    +0.141 C 
ATOM     18  C   UNL     1      31.573  -2.918 -27.041  0.00  0.00    +0.103 C 
ATOM     19  C   UNL     1      32.905  -3.814 -28.535  0.00  0.00    +0.135 C 
ATOM     20  C   UNL     1      30.536  -1.948 -26.624  0.00  0.00    +0.063 C 
ATOM     21  C   UNL     1      33.586  -4.081 -29.820  0.00  0.00    +0.074 C 
ENDBRANCH  10  17
BRANCH   9  24
ATOM     22  O   UNL     1      31.841 -11.180 -22.526  0.00  0.00    -0.251 OA
ATOM     23  N   UNL     1      33.579 -11.423 -24.033  0.00  0.00    -0.231 N 
ATOM     24  N   UNL     1      33.260  -9.383 -23.043  0.00  0.00    -0.267 N 
ATOM     25  C   UNL     1      32.795 -10.699 -23.133  0.00  0.00    +0.318 C 
ATOM     26  H   UNL     1      34.334 -10.992 -24.495  0.00  0.00    +0.171 HD
ATOM     27  H   UNL     1      34.041  -9.162 -23.601  0.00  0.00    +0.156 HD
BRANCH  23  29
ATOM     28  N   UNL     1      34.007 -15.421 -25.099  0.00  0.00    +0.387 N 
ATOM     29  N   UNL     1      33.284 -12.753 -24.266  0.00  0.00    -0.209 NA
ATOM     30  C   UNL     1      33.806 -15.093 -23.682  0.00  0.00    -0.058 C 
ATOM     31  C   UNL     1      33.180 -14.555 -25.949  0.00  0.00    -0.058 C 
ATOM     32  C   UNL     1      34.110 -13.615 -23.416  0.00  0.00    +0.069 C 
ATOM     33  C   UNL     1      33.484 -13.078 -25.682  0.00  0.00    +0.069 C 
ATOM     34  C   UNL     1      33.714 -16.830 -25.352  0.00  0.00    -0.101 C 
ATOM     35  H   UNL     1      34.987 -15.256 -25.331  0.00  0.00    -0.080 HD
ENDBRANCH  23  29
ENDBRANCH   9  24
TORSDOF 3
ENDMDL
