MODEL 1
REMARK VINA RESULT:      -7.5      0.000      0.000
REMARK  Name = 5288102
REMARK  4 active torsions:
REMARK  status: ('A' for Active; 'I' for Inactive)
REMARK    1  A    between atoms: C_1  and  C_2
REMARK    2  A    between atoms: C_1  and  C_8
REMARK    3  A    between atoms: C_8  and  C_11
REMARK    4  A    between atoms: C_11  and  O_12
REMARK                            x       y       z     vdW  Elec       q    Type
REMARK                         _______ _______ _______ _____ _____    ______ ____
ROOT
ATOM      1  C   UNL     1      35.215 -18.224 -22.307  0.00  0.00    +0.037 C 
ENDROOT
BRANCH   1   2
ATOM      2  C   UNL     1      34.731 -19.294 -21.361  0.00  0.00    -0.022 C 
ATOM      3  C   UNL     1      33.374 -19.416 -21.107  0.00  0.00    -0.004 C 
ATOM      4  C   UNL     1      35.653 -20.137 -20.758  0.00  0.00    -0.004 C 
ATOM      5  C   UNL     1      32.927 -20.405 -20.231  0.00  0.00    -0.000 C 
ATOM      6  C   UNL     1      35.206 -21.126 -19.883  0.00  0.00    -0.000 C 
ATOM      7  C   UNL     1      33.843 -21.260 -19.619  0.00  0.00    -0.000 C 
ENDBRANCH   1   2
BRANCH   1   8
ATOM      8  C   UNL     1      34.548 -18.281 -23.692  0.00  0.00    +0.103 C 
ATOM      9  C   UNL     1      34.897 -19.563 -24.452  0.00  0.00    +0.012 C 
BRANCH   8  11
ATOM     10  O   UNL     1      34.784 -16.915 -25.697  0.00  0.00    -0.250 OA
ATOM     11  C   UNL     1      34.981 -17.068 -24.500  0.00  0.00    +0.314 C 
BRANCH  11  12
ATOM     12  O   UNL     1      35.610 -16.141 -23.731  0.00  0.00    -0.480 OA
ATOM     13  H   UNL     1      35.111 -15.565 -23.187  0.00  0.00    +0.295 HD
ENDBRANCH  11  12
ENDBRANCH   8  11
ENDBRANCH   1   8
TORSDOF 4
ENDMDL
MODEL 2
REMARK VINA RESULT:      -7.4      1.075      1.624
REMARK  Name = 5288102
REMARK  4 active torsions:
REMARK  status: ('A' for Active; 'I' for Inactive)
REMARK    1  A    between atoms: C_1  and  C_2
REMARK    2  A    between atoms: C_1  and  C_8
REMARK    3  A    between atoms: C_8  and  C_11
REMARK    4  A    between atoms: C_11  and  O_12
REMARK                            x       y       z     vdW  Elec       q    Type
REMARK                         _______ _______ _______ _____ _____    ______ ____
ROOT
ATOM      1  C   UNL     1      35.827 -18.844 -21.534  0.00  0.00    +0.037 C 
ENDROOT
BRANCH   1   2
ATOM      2  C   UNL     1      35.151 -19.921 -20.723  0.00  0.00    -0.022 C 
ATOM      3  C   UNL     1      33.767 -19.948 -20.647  0.00  0.00    -0.004 C 
ATOM      4  C   UNL     1      35.925 -20.866 -20.065  0.00  0.00    -0.004 C 
ATOM      5  C   UNL     1      33.141 -20.943 -19.896  0.00  0.00    -0.000 C 
ATOM      6  C   UNL     1      35.299 -21.861 -19.315  0.00  0.00    -0.000 C 
ATOM      7  C   UNL     1      33.907 -21.900 -19.231  0.00  0.00    -0.000 C 
ENDBRANCH   1   2
BRANCH   1   8
ATOM      8  C   UNL     1      34.887 -18.142 -22.528  0.00  0.00    +0.103 C 
ATOM      9  C   UNL     1      35.089 -18.634 -23.964  0.00  0.00    +0.012 C 
BRANCH   8  11
ATOM     10  O   UNL     1      34.876 -15.936 -21.490  0.00  0.00    -0.250 OA
ATOM     11  C   UNL     1      35.125 -16.642 -22.458  0.00  0.00    +0.314 C 
BRANCH  11  12
ATOM     12  O   UNL     1      35.671 -16.157 -23.604  0.00  0.00    -0.480 OA
ATOM     13  H   UNL     1      35.339 -16.432 -24.435  0.00  0.00    +0.295 HD
ENDBRANCH  11  12
ENDBRANCH   8  11
ENDBRANCH   1   8
TORSDOF 4
ENDMDL
MODEL 3
REMARK VINA RESULT:      -7.3      1.310      2.379
REMARK  Name = 5288102
REMARK  4 active torsions:
REMARK  status: ('A' for Active; 'I' for Inactive)
REMARK    1  A    between atoms: C_1  and  C_2
REMARK    2  A    between atoms: C_1  and  C_8
REMARK    3  A    between atoms: C_8  and  C_11
REMARK    4  A    between atoms: C_11  and  O_12
REMARK                            x       y       z     vdW  Elec       q    Type
REMARK                         _______ _______ _______ _____ _____    ______ ____
ROOT
ATOM      1  C   UNL     1      33.922 -18.658 -21.447  0.00  0.00    +0.037 C 
ENDROOT
BRANCH   1   2
ATOM      2  C   UNL     1      34.266 -19.882 -20.636  0.00  0.00    -0.022 C 
ATOM      3  C   UNL     1      35.593 -20.257 -20.499  0.00  0.00    -0.004 C 
ATOM      4  C   UNL     1      33.248 -20.613 -20.043  0.00  0.00    -0.004 C 
ATOM      5  C   UNL     1      35.911 -21.390 -19.749  0.00  0.00    -0.000 C 
ATOM      6  C   UNL     1      33.565 -21.745 -19.293  0.00  0.00    -0.000 C 
ATOM      7  C   UNL     1      34.897 -22.133 -19.146  0.00  0.00    -0.000 C 
ENDBRANCH   1   2
BRANCH   1   8
ATOM      8  C   UNL     1      35.093 -17.671 -21.597  0.00  0.00    +0.103 C 
ATOM      9  C   UNL     1      34.792 -16.312 -20.959  0.00  0.00    +0.012 C 
BRANCH   8  11
ATOM     10  O   UNL     1      35.393 -18.387 -23.908  0.00  0.00    -0.250 OA
ATOM     11  C   UNL     1      35.401 -17.491 -23.075  0.00  0.00    +0.314 C 
BRANCH  11  12
ATOM     12  O   UNL     1      35.678 -16.197 -23.385  0.00  0.00    -0.480 OA
ATOM     13  H   UNL     1      36.184 -15.996 -24.147  0.00  0.00    +0.295 HD
ENDBRANCH  11  12
ENDBRANCH   8  11
ENDBRANCH   1   8
TORSDOF 4
ENDMDL
MODEL 4
REMARK VINA RESULT:      -7.0      2.797      5.036
REMARK  Name = 5288102
REMARK  4 active torsions:
REMARK  status: ('A' for Active; 'I' for Inactive)
REMARK    1  A    between atoms: C_1  and  C_2
REMARK    2  A    between atoms: C_1  and  C_8
REMARK    3  A    between atoms: C_8  and  C_11
REMARK    4  A    between atoms: C_11  and  O_12
REMARK                            x       y       z     vdW  Elec       q    Type
REMARK                         _______ _______ _______ _____ _____    ______ ____
ROOT
ATOM      1  C   UNL     1      35.132 -18.725 -21.100  0.00  0.00    +0.037 C 
ENDROOT
BRANCH   1   2
ATOM      2  C   UNL     1      34.954 -18.193 -22.500  0.00  0.00    -0.022 C 
ATOM      3  C   UNL     1      35.034 -16.827 -22.724  0.00  0.00    -0.004 C 
ATOM      4  C   UNL     1      34.711 -19.079 -23.539  0.00  0.00    -0.004 C 
ATOM      5  C   UNL     1      34.869 -16.335 -24.018  0.00  0.00    -0.000 C 
ATOM      6  C   UNL     1      34.546 -18.586 -24.833  0.00  0.00    -0.000 C 
ATOM      7  C   UNL     1      34.625 -17.214 -25.073  0.00  0.00    -0.000 C 
ENDBRANCH   1   2
BRANCH   1   8
ATOM      8  C   UNL     1      34.589 -20.152 -20.910  0.00  0.00    +0.103 C 
ATOM      9  C   UNL     1      33.155 -20.160 -20.374  0.00  0.00    +0.012 C 
BRANCH   8  11
ATOM     10  O   UNL     1      35.316 -22.048 -19.561  0.00  0.00    -0.250 OA
ATOM     11  C   UNL     1      35.502 -20.905 -19.955  0.00  0.00    +0.314 C 
BRANCH  11  12
ATOM     12  O   UNL     1      36.581 -20.164 -19.588  0.00  0.00    -0.480 OA
ATOM     13  H   UNL     1      37.123 -19.770 -20.242  0.00  0.00    +0.295 HD
ENDBRANCH  11  12
ENDBRANCH   8  11
ENDBRANCH   1   8
TORSDOF 4
ENDMDL
MODEL 5
REMARK VINA RESULT:      -7.0      2.773      5.047
REMARK  Name = 5288102
REMARK  4 active torsions:
REMARK  status: ('A' for Active; 'I' for Inactive)
REMARK    1  A    between atoms: C_1  and  C_2
REMARK    2  A    between atoms: C_1  and  C_8
REMARK    3  A    between atoms: C_8  and  C_11
REMARK    4  A    between atoms: C_11  and  O_12
REMARK                            x       y       z     vdW  Elec       q    Type
REMARK                         _______ _______ _______ _____ _____    ______ ____
ROOT
ATOM      1  C   UNL     1      35.055 -18.667 -21.108  0.00  0.00    +0.037 C 
ENDROOT
BRANCH   1   2
ATOM      2  C   UNL     1      34.897 -18.134 -22.510  0.00  0.00    -0.022 C 
ATOM      3  C   UNL     1      34.645 -19.017 -23.549  0.00  0.00    -0.004 C 
ATOM      4  C   UNL     1      35.009 -16.770 -22.736  0.00  0.00    -0.004 C 
ATOM      5  C   UNL     1      34.499 -18.524 -24.846  0.00  0.00    -0.000 C 
ATOM      6  C   UNL     1      34.863 -16.278 -24.032  0.00  0.00    -0.000 C 
ATOM      7  C   UNL     1      34.608 -17.155 -25.087  0.00  0.00    -0.000 C 
ENDBRANCH   1   2
BRANCH   1   8
ATOM      8  C   UNL     1      34.552 -20.111 -20.938  0.00  0.00    +0.103 C 
ATOM      9  C   UNL     1      33.118 -20.166 -20.403  0.00  0.00    +0.012 C 
BRANCH   8  11
ATOM     10  O   UNL     1      35.301 -21.985 -19.571  0.00  0.00    -0.250 OA
ATOM     11  C   UNL     1      35.485 -20.852 -19.993  0.00  0.00    +0.314 C 
BRANCH  11  12
ATOM     12  O   UNL     1      36.579 -20.113 -19.672  0.00  0.00    -0.480 OA
ATOM     13  H   UNL     1      36.981 -19.565 -20.316  0.00  0.00    +0.295 HD
ENDBRANCH  11  12
ENDBRANCH   8  11
ENDBRANCH   1   8
TORSDOF 4
ENDMDL
MODEL 6
REMARK VINA RESULT:      -6.8      3.602      5.326
REMARK  Name = 5288102
REMARK  4 active torsions:
REMARK  status: ('A' for Active; 'I' for Inactive)
REMARK    1  A    between atoms: C_1  and  C_2
REMARK    2  A    between atoms: C_1  and  C_8
REMARK    3  A    between atoms: C_8  and  C_11
REMARK    4  A    between atoms: C_11  and  O_12
REMARK                            x       y       z     vdW  Elec       q    Type
REMARK                         _______ _______ _______ _____ _____    ______ ____
ROOT
ATOM      1  C   UNL     1      33.571 -20.261 -20.963  0.00  0.00    +0.037 C 
ENDROOT
BRANCH   1   2
ATOM      2  C   UNL     1      34.204 -19.093 -21.678  0.00  0.00    -0.022 C 
ATOM      3  C   UNL     1      34.662 -19.257 -22.976  0.00  0.00    -0.004 C 
ATOM      4  C   UNL     1      34.319 -17.876 -21.024  0.00  0.00    -0.004 C 
ATOM      5  C   UNL     1      35.248 -18.178 -23.637  0.00  0.00    -0.000 C 
ATOM      6  C   UNL     1      34.904 -16.797 -21.685  0.00  0.00    -0.000 C 
ATOM      7  C   UNL     1      35.369 -16.948 -22.991  0.00  0.00    -0.000 C 
ENDBRANCH   1   2
BRANCH   1   8
ATOM      8  C   UNL     1      34.432 -20.823 -19.820  0.00  0.00    +0.103 C 
ATOM      9  C   UNL     1      35.885 -21.050 -20.245  0.00  0.00    +0.012 C 
BRANCH   8  11
ATOM     10  O   UNL     1      34.379 -23.221 -19.383  0.00  0.00    -0.250 OA
ATOM     11  C   UNL     1      33.824 -22.131 -19.339  0.00  0.00    +0.314 C 
BRANCH  11  12
ATOM     12  O   UNL     1      32.577 -21.958 -18.830  0.00  0.00    -0.480 OA
ATOM     13  H   UNL     1      32.030 -22.700 -18.666  0.00  0.00    +0.295 HD
ENDBRANCH  11  12
ENDBRANCH   8  11
ENDBRANCH   1   8
TORSDOF 4
ENDMDL
MODEL 7
REMARK VINA RESULT:      -6.7      2.999      4.988
REMARK  Name = 5288102
REMARK  4 active torsions:
REMARK  status: ('A' for Active; 'I' for Inactive)
REMARK    1  A    between atoms: C_1  and  C_2
REMARK    2  A    between atoms: C_1  and  C_8
REMARK    3  A    between atoms: C_8  and  C_11
REMARK    4  A    between atoms: C_11  and  O_12
REMARK                            x       y       z     vdW  Elec       q    Type
REMARK                         _______ _______ _______ _____ _____    ______ ____
ROOT
ATOM      1  C   UNL     1      34.736 -19.802 -21.955  0.00  0.00    +0.037 C 
ENDROOT
BRANCH   1   2
ATOM      2  C   UNL     1      34.752 -18.325 -22.259  0.00  0.00    -0.022 C 
ATOM      3  C   UNL     1      34.672 -17.415 -21.216  0.00  0.00    -0.004 C 
ATOM      4  C   UNL     1      34.844 -17.901 -23.576  0.00  0.00    -0.004 C 
ATOM      5  C   UNL     1      34.686 -16.049 -21.496  0.00  0.00    -0.000 C 
ATOM      6  C   UNL     1      34.858 -16.536 -23.856  0.00  0.00    -0.000 C 
ATOM      7  C   UNL     1      34.779 -15.609 -22.816  0.00  0.00    -0.000 C 
ENDBRANCH   1   2
BRANCH   1   8
ATOM      8  C   UNL     1      34.638 -20.121 -20.454  0.00  0.00    +0.103 C 
ATOM      9  C   UNL     1      35.760 -21.050 -19.983  0.00  0.00    +0.012 C 
BRANCH   8  11
ATOM     10  O   UNL     1      33.115 -21.927 -19.855  0.00  0.00    -0.250 OA
ATOM     11  C   UNL     1      33.287 -20.758 -20.171  0.00  0.00    +0.314 C 
BRANCH  11  12
ATOM     12  O   UNL     1      32.267 -19.869 -20.293  0.00  0.00    -0.480 OA
ATOM     13  H   UNL     1      32.420 -18.957 -20.145  0.00  0.00    +0.295 HD
ENDBRANCH  11  12
ENDBRANCH   8  11
ENDBRANCH   1   8
TORSDOF 4
ENDMDL
MODEL 8
REMARK VINA RESULT:      -6.6      3.036      5.018
REMARK  Name = 5288102
REMARK  4 active torsions:
REMARK  status: ('A' for Active; 'I' for Inactive)
REMARK    1  A    between atoms: C_1  and  C_2
REMARK    2  A    between atoms: C_1  and  C_8
REMARK    3  A    between atoms: C_8  and  C_11
REMARK    4  A    between atoms: C_11  and  O_12
REMARK                            x       y       z     vdW  Elec       q    Type
REMARK                         _______ _______ _______ _____ _____    ______ ____
ROOT
ATOM      1  C   UNL     1      34.811 -20.053 -21.804  0.00  0.00    +0.037 C 
ENDROOT
BRANCH   1   2
ATOM      2  C   UNL     1      34.838 -18.597 -22.198  0.00  0.00    -0.022 C 
ATOM      3  C   UNL     1      34.899 -18.257 -23.540  0.00  0.00    -0.004 C 
ATOM      4  C   UNL     1      34.804 -17.624 -21.210  0.00  0.00    -0.004 C 
ATOM      5  C   UNL     1      34.925 -16.910 -23.905  0.00  0.00    -0.000 C 
ATOM      6  C   UNL     1      34.829 -16.279 -21.575  0.00  0.00    -0.000 C 
ATOM      7  C   UNL     1      34.890 -15.922 -22.922  0.00  0.00    -0.000 C 
ENDBRANCH   1   2
BRANCH   1   8
ATOM      8  C   UNL     1      34.674 -20.278 -20.289  0.00  0.00    +0.103 C 
ATOM      9  C   UNL     1      35.799 -21.152 -19.728  0.00  0.00    +0.012 C 
BRANCH   8  11
ATOM     10  O   UNL     1      33.160 -22.099 -19.709  0.00  0.00    -0.250 OA
ATOM     11  C   UNL     1      33.327 -20.924 -20.004  0.00  0.00    +0.314 C 
BRANCH  11  12
ATOM     12  O   UNL     1      32.304 -20.035 -20.099  0.00  0.00    -0.480 OA
ATOM     13  H   UNL     1      32.483 -19.130 -20.265  0.00  0.00    +0.295 HD
ENDBRANCH  11  12
ENDBRANCH   8  11
ENDBRANCH   1   8
TORSDOF 4
ENDMDL
MODEL 9
REMARK VINA RESULT:      -6.6      5.012      7.219
REMARK  Name = 5288102
REMARK  4 active torsions:
REMARK  status: ('A' for Active; 'I' for Inactive)
REMARK    1  A    between atoms: C_1  and  C_2
REMARK    2  A    between atoms: C_1  and  C_8
REMARK    3  A    between atoms: C_8  and  C_11
REMARK    4  A    between atoms: C_11  and  O_12
REMARK                            x       y       z     vdW  Elec       q    Type
REMARK                         _______ _______ _______ _____ _____    ______ ____
ROOT
ATOM      1  C   UNL     1      33.579 -23.202 -18.406  0.00  0.00    +0.037 C 
ENDROOT
BRANCH   1   2
ATOM      2  C   UNL     1      34.075 -22.034 -19.220  0.00  0.00    -0.022 C 
ATOM      3  C   UNL     1      35.439 -21.857 -19.396  0.00  0.00    -0.004 C 
ATOM      4  C   UNL     1      33.159 -21.155 -19.778  0.00  0.00    -0.004 C 
ATOM      5  C   UNL     1      35.898 -20.776 -20.149  0.00  0.00    -0.000 C 
ATOM      6  C   UNL     1      33.618 -20.074 -20.530  0.00  0.00    -0.000 C 
ATOM      7  C   UNL     1      34.987 -19.885 -20.716  0.00  0.00    -0.000 C 
ENDBRANCH   1   2
BRANCH   1   8
ATOM      8  C   UNL     1      33.396 -22.879 -16.914  0.00  0.00    +0.103 C 
ATOM      9  C   UNL     1      34.373 -23.656 -16.028  0.00  0.00    +0.012 C 
BRANCH   8  11
ATOM     10  O   UNL     1      31.644 -23.994 -15.637  0.00  0.00    -0.250 OA
ATOM     11  C   UNL     1      31.966 -23.199 -16.510  0.00  0.00    +0.314 C 
BRANCH  11  12
ATOM     12  O   UNL     1      31.060 -22.482 -17.226  0.00  0.00    -0.480 OA
ATOM     13  H   UNL     1      30.225 -22.853 -17.430  0.00  0.00    +0.295 HD
ENDBRANCH  11  12
ENDBRANCH   8  11
ENDBRANCH   1   8
TORSDOF 4
ENDMDL
