MODEL 1
REMARK VINA RESULT:      -9.9      0.000      0.000
REMARK  Name = 16122553
REMARK  10 active torsions:
REMARK  status: ('A' for Active; 'I' for Inactive)
REMARK    1  A    between atoms: C_1  and  C_20
REMARK    2  A    between atoms: C_3  and  C_8
REMARK    3  A    between atoms: C_20  and  C_21
REMARK    4  A    between atoms: C_21  and  P_22
REMARK    5  A    between atoms: C_21  and  P_28
REMARK    6  A    between atoms: C_21  and  O_34
REMARK    7  A    between atoms: P_22  and  O_24
REMARK    8  A    between atoms: P_22  and  O_26
REMARK    9  A    between atoms: P_28  and  O_30
REMARK   10  A    between atoms: P_28  and  O_32
REMARK                            x       y       z     vdW  Elec       q    Type
REMARK                         _______ _______ _______ _____ _____    ______ ____
ROOT
ATOM      1  C   UNL     1      33.376 -14.772 -24.681  0.00  0.00    -0.019 C 
ATOM      2  C   UNL     1      33.547 -13.485 -24.170  0.00  0.00    -0.004 C 
ATOM      3  C   UNL     1      33.662 -12.400 -25.039  0.00  0.00    +0.003 C 
ATOM      4  C   UNL     1      33.321 -14.974 -26.060  0.00  0.00    -0.004 C 
ATOM      5  C   UNL     1      33.606 -12.601 -26.418  0.00  0.00    +0.000 C 
ATOM      6  C   UNL     1      33.436 -13.888 -26.928  0.00  0.00    -0.000 C 
ENDROOT
BRANCH   3   8
ATOM      7  O   UNL     1      32.399 -11.454 -22.567  0.00  0.00    -0.453 OA
ATOM      8  C   UNL     1      33.838 -11.070 -24.512  0.00  0.00    +0.035 C 
ATOM      9  C   UNL     1      33.213 -10.674 -23.330  0.00  0.00    +0.145 A 
ATOM     10  C   UNL     1      33.341  -9.407 -22.767  0.00  0.00    +0.037 A 
ATOM     11  C   UNL     1      32.549  -9.424 -21.581  0.00  0.00    +0.037 A 
ATOM     12  C   UNL     1      31.997 -10.699 -21.507  0.00  0.00    +0.145 A 
ATOM     13  C   UNL     1      34.636 -10.114 -25.145  0.00  0.00    +0.003 C 
ATOM     14  C   UNL     1      34.150  -8.463 -23.423  0.00  0.00    +0.003 C 
ATOM     15  C   UNL     1      34.792  -8.832 -24.612  0.00  0.00    +0.000 C 
ATOM     16  C   UNL     1      32.242  -8.501 -20.564  0.00  0.00    +0.003 C 
ATOM     17  C   UNL     1      31.150 -11.126 -20.485  0.00  0.00    +0.037 C 
ATOM     18  C   UNL     1      31.394  -8.903 -19.523  0.00  0.00    +0.000 C 
ATOM     19  C   UNL     1      30.860 -10.192 -19.485  0.00  0.00    +0.003 C 
ENDBRANCH   3   8
BRANCH   1  20
ATOM     20  C   UNL     1      33.251 -15.932 -23.752  0.00  0.00    +0.077 C 
BRANCH  20  21
ATOM     21  C   UNL     1      34.560 -16.476 -23.105  0.00  0.00    +0.279 C 
BRANCH  21  22
ATOM     22  P   UNL     1      34.988 -18.163 -23.659  0.00  0.00    +0.372 P 
ATOM     23  O   UNL     1      34.725 -18.452 -25.106  0.00  0.00    -0.255 OA
BRANCH  22  24
ATOM     24  O   UNL     1      34.198 -19.108 -22.611  0.00  0.00    -0.322 OA
ATOM     25  H   UNL     1      33.514 -18.588 -22.160  0.00  0.00    +0.220 HD
ENDBRANCH  22  24
BRANCH  22  26
ATOM     26  O   UNL     1      36.531 -18.335 -23.211  0.00  0.00    -0.322 OA
ATOM     27  H   UNL     1      36.840 -17.514 -22.796  0.00  0.00    +0.220 HD
ENDBRANCH  22  26
ENDBRANCH  21  22
BRANCH  21  28
ATOM     28  P   UNL     1      34.520 -16.047 -21.307  0.00  0.00    +0.372 P 
ATOM     29  O   UNL     1      35.065 -14.690 -20.975  0.00  0.00    -0.255 OA
BRANCH  28  30
ATOM     30  O   UNL     1      32.970 -16.282 -20.914  0.00  0.00    -0.322 OA
ATOM     31  H   UNL     1      32.812 -17.228 -20.772  0.00  0.00    +0.220 HD
ENDBRANCH  28  30
BRANCH  28  32
ATOM     32  O   UNL     1      35.277 -17.283 -20.593  0.00  0.00    -0.322 OA
ATOM     33  H   UNL     1      34.639 -17.988 -20.403  0.00  0.00    +0.220 HD
ENDBRANCH  28  32
ENDBRANCH  21  28
BRANCH  21  34
ATOM     34  O   UNL     1      35.666 -15.686 -23.547  0.00  0.00    -0.366 OA
ATOM     35  H   UNL     1      35.565 -15.489 -24.491  0.00  0.00    +0.212 HD
ENDBRANCH  21  34
ENDBRANCH  20  21
ENDBRANCH   1  20
TORSDOF 10
ENDMDL
MODEL 2
REMARK VINA RESULT:      -9.8      2.793      4.258
REMARK  Name = 16122553
REMARK  10 active torsions:
REMARK  status: ('A' for Active; 'I' for Inactive)
REMARK    1  A    between atoms: C_1  and  C_20
REMARK    2  A    between atoms: C_3  and  C_8
REMARK    3  A    between atoms: C_20  and  C_21
REMARK    4  A    between atoms: C_21  and  P_22
REMARK    5  A    between atoms: C_21  and  P_28
REMARK    6  A    between atoms: C_21  and  O_34
REMARK    7  A    between atoms: P_22  and  O_24
REMARK    8  A    between atoms: P_22  and  O_26
REMARK    9  A    between atoms: P_28  and  O_30
REMARK   10  A    between atoms: P_28  and  O_32
REMARK                            x       y       z     vdW  Elec       q    Type
REMARK                         _______ _______ _______ _____ _____    ______ ____
ROOT
ATOM      1  C   UNL     1      33.256 -12.023 -23.758  0.00  0.00    -0.019 C 
ATOM      2  C   UNL     1      32.789 -10.966 -22.976  0.00  0.00    -0.004 C 
ATOM      3  C   UNL     1      33.264  -9.674 -23.196  0.00  0.00    +0.003 C 
ATOM      4  C   UNL     1      34.198 -11.787 -24.760  0.00  0.00    -0.004 C 
ATOM      5  C   UNL     1      34.205  -9.437 -24.198  0.00  0.00    +0.000 C 
ATOM      6  C   UNL     1      34.672 -10.493 -24.979  0.00  0.00    -0.000 C 
ENDROOT
BRANCH   3   8
ATOM      7  O   UNL     1      32.589  -7.032 -24.275  0.00  0.00    -0.453 OA
ATOM      8  C   UNL     1      32.781  -8.582 -22.388  0.00  0.00    +0.035 C 
ATOM      9  C   UNL     1      32.474  -7.346 -22.955  0.00  0.00    +0.145 A 
ATOM     10  C   UNL     1      32.005  -6.251 -22.234  0.00  0.00    +0.037 A 
ATOM     11  C   UNL     1      31.822  -5.205 -23.184  0.00  0.00    +0.037 A 
ATOM     12  C   UNL     1      32.194  -5.736 -24.416  0.00  0.00    +0.145 A 
ATOM     13  C   UNL     1      32.593  -8.698 -21.008  0.00  0.00    +0.003 C 
ATOM     14  C   UNL     1      31.823  -6.394 -20.846  0.00  0.00    +0.003 C 
ATOM     15  C   UNL     1      32.123  -7.625 -20.248  0.00  0.00    +0.000 C 
ATOM     16  C   UNL     1      31.382  -3.868 -23.137  0.00  0.00    +0.003 C 
ATOM     17  C   UNL     1      32.161  -5.026 -25.615  0.00  0.00    +0.037 C 
ATOM     18  C   UNL     1      31.339  -3.131 -24.328  0.00  0.00    +0.000 C 
ATOM     19  C   UNL     1      31.720  -3.701 -25.544  0.00  0.00    +0.003 C 
ENDBRANCH   3   8
BRANCH   1  20
ATOM     20  C   UNL     1      32.748 -13.406 -23.525  0.00  0.00    +0.077 C 
BRANCH  20  21
ATOM     21  C   UNL     1      33.682 -14.393 -22.764  0.00  0.00    +0.279 C 
BRANCH  21  22
ATOM     22  P   UNL     1      34.159 -15.845 -23.765  0.00  0.00    +0.372 P 
ATOM     23  O   UNL     1      33.527 -15.929 -25.121  0.00  0.00    -0.255 OA
BRANCH  22  24
ATOM     24  O   UNL     1      33.850 -17.090 -22.780  0.00  0.00    -0.322 OA
ATOM     25  H   UNL     1      33.144 -16.845 -22.163  0.00  0.00    +0.220 HD
ENDBRANCH  22  24
BRANCH  22  26
ATOM     26  O   UNL     1      35.774 -15.787 -23.782  0.00  0.00    -0.322 OA
ATOM     27  H   UNL     1      36.115 -16.026 -22.906  0.00  0.00    +0.220 HD
ENDBRANCH  22  26
ENDBRANCH  21  22
BRANCH  21  28
ATOM     28  P   UNL     1      33.014 -14.597 -21.052  0.00  0.00    +0.372 P 
ATOM     29  O   UNL     1      32.467 -13.341 -20.441  0.00  0.00    -0.255 OA
BRANCH  28  30
ATOM     30  O   UNL     1      31.949 -15.801 -21.221  0.00  0.00    -0.322 OA
ATOM     31  H   UNL     1      31.776 -15.950 -22.164  0.00  0.00    +0.220 HD
ENDBRANCH  28  30
BRANCH  28  32
ATOM     32  O   UNL     1      34.228 -15.283 -20.237  0.00  0.00    -0.322 OA
ATOM     33  H   UNL     1      33.897 -15.627 -19.392  0.00  0.00    +0.220 HD
ENDBRANCH  28  32
ENDBRANCH  21  28
BRANCH  21  34
ATOM     34  O   UNL     1      34.928 -13.748 -22.493  0.00  0.00    -0.366 OA
ATOM     35  H   UNL     1      35.456 -13.711 -23.306  0.00  0.00    +0.212 HD
ENDBRANCH  21  34
ENDBRANCH  20  21
ENDBRANCH   1  20
TORSDOF 10
ENDMDL
MODEL 3
REMARK VINA RESULT:      -9.3      1.387      2.848
REMARK  Name = 16122553
REMARK  10 active torsions:
REMARK  status: ('A' for Active; 'I' for Inactive)
REMARK    1  A    between atoms: C_1  and  C_20
REMARK    2  A    between atoms: C_3  and  C_8
REMARK    3  A    between atoms: C_20  and  C_21
REMARK    4  A    between atoms: C_21  and  P_22
REMARK    5  A    between atoms: C_21  and  P_28
REMARK    6  A    between atoms: C_21  and  O_34
REMARK    7  A    between atoms: P_22  and  O_24
REMARK    8  A    between atoms: P_22  and  O_26
REMARK    9  A    between atoms: P_28  and  O_30
REMARK   10  A    between atoms: P_28  and  O_32
REMARK                            x       y       z     vdW  Elec       q    Type
REMARK                         _______ _______ _______ _____ _____    ______ ____
ROOT
ATOM      1  C   UNL     1      33.262 -14.441 -23.792  0.00  0.00    -0.019 C 
ATOM      2  C   UNL     1      32.816 -13.604 -22.768  0.00  0.00    -0.004 C 
ATOM      3  C   UNL     1      32.791 -12.223 -22.958  0.00  0.00    +0.003 C 
ATOM      4  C   UNL     1      33.683 -13.894 -25.005  0.00  0.00    -0.004 C 
ATOM      5  C   UNL     1      33.212 -11.676 -24.170  0.00  0.00    +0.000 C 
ATOM      6  C   UNL     1      33.659 -12.513 -25.194  0.00  0.00    -0.000 C 
ENDROOT
BRANCH   3   8
ATOM      7  O   UNL     1      32.541  -9.314 -23.231  0.00  0.00    -0.453 OA
ATOM      8  C   UNL     1      32.330 -11.359 -21.900  0.00  0.00    +0.035 C 
ATOM      9  C   UNL     1      32.229  -9.981 -22.086  0.00  0.00    +0.145 A 
ATOM     10  C   UNL     1      31.792  -9.092 -21.109  0.00  0.00    +0.037 A 
ATOM     11  C   UNL     1      31.841  -7.798 -21.706  0.00  0.00    +0.037 A 
ATOM     12  C   UNL     1      32.305  -7.992 -23.003  0.00  0.00    +0.145 A 
ATOM     13  C   UNL     1      31.959 -11.846 -20.644  0.00  0.00    +0.003 C 
ATOM     14  C   UNL     1      31.424  -9.607 -19.853  0.00  0.00    +0.003 C 
ATOM     15  C   UNL     1      31.514 -10.988 -19.636  0.00  0.00    +0.000 C 
ATOM     16  C   UNL     1      31.543  -6.486 -21.291  0.00  0.00    +0.003 C 
ATOM     17  C   UNL     1      32.498  -6.965 -23.926  0.00  0.00    +0.037 C 
ATOM     18  C   UNL     1      31.727  -5.434 -22.197  0.00  0.00    +0.000 C 
ATOM     19  C   UNL     1      32.195  -5.671 -23.491  0.00  0.00    +0.003 C 
ENDBRANCH   3   8
BRANCH   1  20
ATOM     20  C   UNL     1      33.287 -15.918 -23.592  0.00  0.00    +0.077 C 
BRANCH  20  21
ATOM     21  C   UNL     1      34.582 -16.536 -22.985  0.00  0.00    +0.279 C 
BRANCH  21  22
ATOM     22  P   UNL     1      34.983 -18.180 -23.673  0.00  0.00    +0.372 P 
ATOM     23  O   UNL     1      34.691 -18.356 -25.133  0.00  0.00    -0.255 OA
BRANCH  22  24
ATOM     24  O   UNL     1      34.204 -19.195 -22.685  0.00  0.00    -0.322 OA
ATOM     25  H   UNL     1      34.837 -19.592 -22.066  0.00  0.00    +0.220 HD
ENDBRANCH  22  24
BRANCH  22  26
ATOM     26  O   UNL     1      36.533 -18.397 -23.270  0.00  0.00    -0.322 OA
ATOM     27  H   UNL     1      36.639 -19.264 -22.847  0.00  0.00    +0.220 HD
ENDBRANCH  22  26
ENDBRANCH  21  22
BRANCH  21  28
ATOM     28  P   UNL     1      34.538 -16.256 -21.158  0.00  0.00    +0.372 P 
ATOM     29  O   UNL     1      35.034 -14.910 -20.719  0.00  0.00    -0.255 OA
BRANCH  28  30
ATOM     30  O   UNL     1      33.000 -16.580 -20.780  0.00  0.00    -0.322 OA
ATOM     31  H   UNL     1      32.974 -17.231 -20.061  0.00  0.00    +0.220 HD
ENDBRANCH  28  30
BRANCH  28  32
ATOM     32  O   UNL     1      35.346 -17.515 -20.548  0.00  0.00    -0.322 OA
ATOM     33  H   UNL     1      34.963 -17.762 -19.692  0.00  0.00    +0.220 HD
ENDBRANCH  28  32
ENDBRANCH  21  28
BRANCH  21  34
ATOM     34  O   UNL     1      35.705 -15.733 -23.355  0.00  0.00    -0.366 OA
ATOM     35  H   UNL     1      36.012 -15.233 -22.583  0.00  0.00    +0.212 HD
ENDBRANCH  21  34
ENDBRANCH  20  21
ENDBRANCH   1  20
TORSDOF 10
ENDMDL
MODEL 4
REMARK VINA RESULT:      -9.3      3.625      8.260
REMARK  Name = 16122553
REMARK  10 active torsions:
REMARK  status: ('A' for Active; 'I' for Inactive)
REMARK    1  A    between atoms: C_1  and  C_20
REMARK    2  A    between atoms: C_3  and  C_8
REMARK    3  A    between atoms: C_20  and  C_21
REMARK    4  A    between atoms: C_21  and  P_22
REMARK    5  A    between atoms: C_21  and  P_28
REMARK    6  A    between atoms: C_21  and  O_34
REMARK    7  A    between atoms: P_22  and  O_24
REMARK    8  A    between atoms: P_22  and  O_26
REMARK    9  A    between atoms: P_28  and  O_30
REMARK   10  A    between atoms: P_28  and  O_32
REMARK                            x       y       z     vdW  Elec       q    Type
REMARK                         _______ _______ _______ _____ _____    ______ ____
ROOT
ATOM      1  C   UNL     1      31.594 -10.620 -21.896  0.00  0.00    -0.019 C 
ATOM      2  C   UNL     1      32.035 -11.507 -22.879  0.00  0.00    -0.004 C 
ATOM      3  C   UNL     1      32.379 -12.813 -22.536  0.00  0.00    +0.003 C 
ATOM      4  C   UNL     1      31.496 -11.042 -20.570  0.00  0.00    -0.004 C 
ATOM      5  C   UNL     1      32.282 -13.236 -21.210  0.00  0.00    +0.000 C 
ATOM      6  C   UNL     1      31.840 -12.350 -20.227  0.00  0.00    -0.000 C 
ENDROOT
BRANCH   3   8
ATOM      7  O   UNL     1      33.859 -15.278 -21.953  0.00  0.00    -0.453 OA
ATOM      8  C   UNL     1      32.835 -13.729 -23.552  0.00  0.00    +0.035 C 
ATOM      9  C   UNL     1      33.534 -14.888 -23.217  0.00  0.00    +0.145 A 
ATOM     10  C   UNL     1      34.002 -15.813 -24.146  0.00  0.00    +0.037 A 
ATOM     11  C   UNL     1      34.652 -16.832 -23.391  0.00  0.00    +0.037 A 
ATOM     12  C   UNL     1      34.535 -16.455 -22.057  0.00  0.00    +0.145 A 
ATOM     13  C   UNL     1      32.604 -13.513 -24.912  0.00  0.00    +0.003 C 
ATOM     14  C   UNL     1      33.756 -15.573 -25.510  0.00  0.00    +0.003 C 
ATOM     15  C   UNL     1      33.055 -14.417 -25.877  0.00  0.00    +0.000 C 
ATOM     16  C   UNL     1      35.326 -18.031 -23.691  0.00  0.00    +0.003 C 
ATOM     17  C   UNL     1      35.046 -17.191 -20.989  0.00  0.00    +0.037 C 
ATOM     18  C   UNL     1      35.850 -18.792 -22.637  0.00  0.00    +0.000 C 
ATOM     19  C   UNL     1      35.710 -18.379 -21.311  0.00  0.00    +0.003 C 
ENDBRANCH   3   8
BRANCH   1  20
ATOM     20  C   UNL     1      31.224  -9.223 -22.263  0.00  0.00    +0.077 C 
BRANCH  20  21
ATOM     21  C   UNL     1      32.298  -8.117 -22.041  0.00  0.00    +0.279 C 
BRANCH  21  22
ATOM     22  P   UNL     1      32.281  -7.427 -20.350  0.00  0.00    +0.372 P 
ATOM     23  O   UNL     1      31.536  -8.237 -19.332  0.00  0.00    -0.255 OA
BRANCH  22  24
ATOM     24  O   UNL     1      31.733  -5.921 -20.570  0.00  0.00    -0.322 OA
ATOM     25  H   UNL     1      30.891  -5.813 -20.101  0.00  0.00    +0.220 HD
ENDBRANCH  22  24
BRANCH  22  26
ATOM     26  O   UNL     1      33.844  -7.199 -20.012  0.00  0.00    -0.322 OA
ATOM     27  H   UNL     1      34.157  -7.914 -19.435  0.00  0.00    +0.220 HD
ENDBRANCH  22  26
ENDBRANCH  21  22
BRANCH  21  28
ATOM     28  P   UNL     1      32.278  -7.007 -23.521  0.00  0.00    +0.372 P 
ATOM     29  O   UNL     1      32.063  -5.556 -23.211  0.00  0.00    -0.255 OA
BRANCH  28  30
ATOM     30  O   UNL     1      33.675  -7.356 -24.253  0.00  0.00    -0.322 OA
ATOM     31  H   UNL     1      33.629  -7.087 -25.183  0.00  0.00    +0.220 HD
ENDBRANCH  28  30
BRANCH  28  32
ATOM     32  O   UNL     1      31.171  -7.671 -24.493  0.00  0.00    -0.322 OA
ATOM     33  H   UNL     1      30.283  -7.417 -24.193  0.00  0.00    +0.220 HD
ENDBRANCH  28  32
ENDBRANCH  21  28
BRANCH  21  34
ATOM     34  O   UNL     1      33.600  -8.695 -22.155  0.00  0.00    -0.366 OA
ATOM     35  H   UNL     1      33.954  -8.522 -23.041  0.00  0.00    +0.212 HD
ENDBRANCH  21  34
ENDBRANCH  20  21
ENDBRANCH   1  20
TORSDOF 10
ENDMDL
MODEL 5
REMARK VINA RESULT:      -9.3     11.034     14.567
REMARK  Name = 16122553
REMARK  10 active torsions:
REMARK  status: ('A' for Active; 'I' for Inactive)
REMARK    1  A    between atoms: C_1  and  C_20
REMARK    2  A    between atoms: C_3  and  C_8
REMARK    3  A    between atoms: C_20  and  C_21
REMARK    4  A    between atoms: C_21  and  P_22
REMARK    5  A    between atoms: C_21  and  P_28
REMARK    6  A    between atoms: C_21  and  O_34
REMARK    7  A    between atoms: P_22  and  O_24
REMARK    8  A    between atoms: P_22  and  O_26
REMARK    9  A    between atoms: P_28  and  O_30
REMARK   10  A    between atoms: P_28  and  O_32
REMARK                            x       y       z     vdW  Elec       q    Type
REMARK                         _______ _______ _______ _____ _____    ______ ____
ROOT
ATOM      1  C   UNL     1      36.846 -24.317 -12.820  0.00  0.00    -0.019 C 
ATOM      2  C   UNL     1      35.898 -24.117 -13.824  0.00  0.00    -0.004 C 
ATOM      3  C   UNL     1      34.564 -23.894 -13.487  0.00  0.00    +0.003 C 
ATOM      4  C   UNL     1      36.459 -24.292 -11.480  0.00  0.00    -0.004 C 
ATOM      5  C   UNL     1      34.176 -23.869 -12.148  0.00  0.00    +0.000 C 
ATOM      6  C   UNL     1      35.124 -24.068 -11.144  0.00  0.00    -0.000 C 
ENDROOT
BRANCH   3   8
ATOM      7  O   UNL     1      35.212 -22.833 -16.144  0.00  0.00    -0.453 OA
ATOM      8  C   UNL     1      33.584 -23.687 -14.525  0.00  0.00    +0.035 C 
ATOM      9  C   UNL     1      33.949 -23.180 -15.771  0.00  0.00    +0.145 A 
ATOM     10  C   UNL     1      33.056 -22.957 -16.815  0.00  0.00    +0.037 A 
ATOM     11  C   UNL     1      33.833 -22.441 -17.893  0.00  0.00    +0.037 A 
ATOM     12  C   UNL     1      35.143 -22.386 -17.429  0.00  0.00    +0.145 A 
ATOM     13  C   UNL     1      32.230 -23.981 -14.345  0.00  0.00    +0.003 C 
ATOM     14  C   UNL     1      31.698 -23.262 -16.609  0.00  0.00    +0.003 C 
ATOM     15  C   UNL     1      31.301 -23.773 -15.366  0.00  0.00    +0.000 C 
ATOM     16  C   UNL     1      33.570 -22.016 -19.209  0.00  0.00    +0.003 C 
ATOM     17  C   UNL     1      36.222 -21.932 -18.186  0.00  0.00    +0.037 C 
ATOM     18  C   UNL     1      34.636 -21.555 -19.994  0.00  0.00    +0.000 C 
ATOM     19  C   UNL     1      35.938 -21.515 -19.490  0.00  0.00    +0.003 C 
ENDBRANCH   3   8
BRANCH   1  20
ATOM     20  C   UNL     1      38.274 -24.555 -13.178  0.00  0.00    +0.077 C 
BRANCH  20  21
ATOM     21  C   UNL     1      38.562 -25.321 -14.504  0.00  0.00    +0.279 C 
BRANCH  21  22
ATOM     22  P   UNL     1      37.483 -26.775 -14.741  0.00  0.00    +0.372 P 
ATOM     23  O   UNL     1      36.366 -26.595 -15.725  0.00  0.00    -0.255 OA
BRANCH  22  24
ATOM     24  O   UNL     1      37.023 -27.146 -13.236  0.00  0.00    -0.322 OA
ATOM     25  H   UNL     1      36.537 -26.398 -12.854  0.00  0.00    +0.220 HD
ENDBRANCH  22  24
BRANCH  22  26
ATOM     26  O   UNL     1      38.514 -27.963 -15.110  0.00  0.00    -0.322 OA
ATOM     27  H   UNL     1      39.351 -27.822 -14.640  0.00  0.00    +0.220 HD
ENDBRANCH  22  26
ENDBRANCH  21  22
BRANCH  21  28
ATOM     28  P   UNL     1      40.396 -25.458 -14.689  0.00  0.00    +0.372 P 
ATOM     29  O   UNL     1      41.151 -24.196 -14.395  0.00  0.00    -0.255 OA
BRANCH  28  30
ATOM     30  O   UNL     1      40.762 -26.716 -13.741  0.00  0.00    -0.322 OA
ATOM     31  H   UNL     1      40.849 -26.415 -12.824  0.00  0.00    +0.220 HD
ENDBRANCH  28  30
BRANCH  28  32
ATOM     32  O   UNL     1      40.597 -26.044 -16.181  0.00  0.00    -0.322 OA
ATOM     33  H   UNL     1      40.921 -25.340 -16.764  0.00  0.00    +0.220 HD
ENDBRANCH  28  32
ENDBRANCH  21  28
BRANCH  21  34
ATOM     34  O   UNL     1      38.240 -24.479 -15.612  0.00  0.00    -0.366 OA
ATOM     35  H   UNL     1      38.758 -24.752 -16.386  0.00  0.00    +0.212 HD
ENDBRANCH  21  34
ENDBRANCH  20  21
ENDBRANCH   1  20
TORSDOF 10
ENDMDL
MODEL 6
REMARK VINA RESULT:      -9.3      9.138     12.578
REMARK  Name = 16122553
REMARK  10 active torsions:
REMARK  status: ('A' for Active; 'I' for Inactive)
REMARK    1  A    between atoms: C_1  and  C_20
REMARK    2  A    between atoms: C_3  and  C_8
REMARK    3  A    between atoms: C_20  and  C_21
REMARK    4  A    between atoms: C_21  and  P_22
REMARK    5  A    between atoms: C_21  and  P_28
REMARK    6  A    between atoms: C_21  and  O_34
REMARK    7  A    between atoms: P_22  and  O_24
REMARK    8  A    between atoms: P_22  and  O_26
REMARK    9  A    between atoms: P_28  and  O_30
REMARK   10  A    between atoms: P_28  and  O_32
REMARK                            x       y       z     vdW  Elec       q    Type
REMARK                         _______ _______ _______ _____ _____    ______ ____
ROOT
ATOM      1  C   UNL     1      36.130 -23.574 -15.324  0.00  0.00    -0.019 C 
ATOM      2  C   UNL     1      35.202 -23.137 -16.270  0.00  0.00    -0.004 C 
ATOM      3  C   UNL     1      35.614 -22.338 -17.335  0.00  0.00    +0.003 C 
ATOM      4  C   UNL     1      37.472 -23.211 -15.446  0.00  0.00    -0.004 C 
ATOM      5  C   UNL     1      36.956 -21.974 -17.457  0.00  0.00    +0.000 C 
ATOM      6  C   UNL     1      37.885 -22.411 -16.511  0.00  0.00    -0.000 C 
ENDROOT
BRANCH   3   8
ATOM      7  O   UNL     1      36.286 -20.562 -19.570  0.00  0.00    -0.453 OA
ATOM      8  C   UNL     1      34.655 -21.886 -18.311  0.00  0.00    +0.035 C 
ATOM      9  C   UNL     1      35.030 -21.042 -19.355  0.00  0.00    +0.145 A 
ATOM     10  C   UNL     1      34.156 -20.571 -20.331  0.00  0.00    +0.037 A 
ATOM     11  C   UNL     1      34.938 -19.750 -21.194  0.00  0.00    +0.037 A 
ATOM     12  C   UNL     1      36.232 -19.779 -20.683  0.00  0.00    +0.145 A 
ATOM     13  C   UNL     1      33.311 -22.266 -18.270  0.00  0.00    +0.003 C 
ATOM     14  C   UNL     1      32.808 -20.967 -20.268  0.00  0.00    +0.003 C 
ATOM     15  C   UNL     1      32.401 -21.816 -19.230  0.00  0.00    +0.000 C 
ATOM     16  C   UNL     1      34.693 -18.986 -22.351  0.00  0.00    +0.003 C 
ATOM     17  C   UNL     1      37.310 -19.097 -21.245  0.00  0.00    +0.037 C 
ATOM     18  C   UNL     1      35.758 -18.290 -22.938  0.00  0.00    +0.000 C 
ATOM     19  C   UNL     1      37.043 -18.346 -22.394  0.00  0.00    +0.003 C 
ENDBRANCH   3   8
BRANCH   1  20
ATOM     20  C   UNL     1      35.690 -24.430 -14.186  0.00  0.00    +0.077 C 
BRANCH  20  21
ATOM     21  C   UNL     1      36.678 -24.599 -12.994  0.00  0.00    +0.279 C 
BRANCH  21  22
ATOM     22  P   UNL     1      37.618 -26.164 -13.056  0.00  0.00    +0.372 P 
ATOM     23  O   UNL     1      39.094 -26.022 -13.277  0.00  0.00    -0.255 OA
BRANCH  22  24
ATOM     24  O   UNL     1      36.831 -27.024 -14.177  0.00  0.00    -0.322 OA
ATOM     25  H   UNL     1      37.101 -27.954 -14.119  0.00  0.00    +0.220 HD
ENDBRANCH  22  24
BRANCH  22  26
ATOM     26  O   UNL     1      37.216 -26.909 -11.679  0.00  0.00    -0.322 OA
ATOM     27  H   UNL     1      37.810 -27.661 -11.533  0.00  0.00    +0.220 HD
ENDBRANCH  22  26
ENDBRANCH  21  22
BRANCH  21  28
ATOM     28  P   UNL     1      35.797 -24.081 -11.453  0.00  0.00    +0.372 P 
ATOM     29  O   UNL     1      35.453 -25.204 -10.521  0.00  0.00    -0.255 OA
BRANCH  28  30
ATOM     30  O   UNL     1      36.776 -22.951 -10.839  0.00  0.00    -0.322 OA
ATOM     31  H   UNL     1      36.871 -22.225 -11.475  0.00  0.00    +0.220 HD
ENDBRANCH  28  30
BRANCH  28  32
ATOM     32  O   UNL     1      34.534 -23.229 -11.992  0.00  0.00    -0.322 OA
ATOM     33  H   UNL     1      34.585 -23.150 -12.957  0.00  0.00    +0.220 HD
ENDBRANCH  28  32
ENDBRANCH  21  28
BRANCH  21  34
ATOM     34  O   UNL     1      37.692 -23.595 -13.076  0.00  0.00    -0.366 OA
ATOM     35  H   UNL     1      37.809 -23.183 -12.206  0.00  0.00    +0.212 HD
ENDBRANCH  21  34
ENDBRANCH  20  21
ENDBRANCH   1  20
TORSDOF 10
ENDMDL
MODEL 7
REMARK VINA RESULT:      -9.2      3.779      8.035
REMARK  Name = 16122553
REMARK  10 active torsions:
REMARK  status: ('A' for Active; 'I' for Inactive)
REMARK    1  A    between atoms: C_1  and  C_20
REMARK    2  A    between atoms: C_3  and  C_8
REMARK    3  A    between atoms: C_20  and  C_21
REMARK    4  A    between atoms: C_21  and  P_22
REMARK    5  A    between atoms: C_21  and  P_28
REMARK    6  A    between atoms: C_21  and  O_34
REMARK    7  A    between atoms: P_22  and  O_24
REMARK    8  A    between atoms: P_22  and  O_26
REMARK    9  A    between atoms: P_28  and  O_30
REMARK   10  A    between atoms: P_28  and  O_32
REMARK                            x       y       z     vdW  Elec       q    Type
REMARK                         _______ _______ _______ _____ _____    ______ ____
ROOT
ATOM      1  C   UNL     1      33.031  -9.598 -23.408  0.00  0.00    -0.019 C 
ATOM      2  C   UNL     1      32.892 -10.928 -23.807  0.00  0.00    -0.004 C 
ATOM      3  C   UNL     1      33.842 -11.506 -24.648  0.00  0.00    +0.003 C 
ATOM      4  C   UNL     1      34.122  -8.848 -23.850  0.00  0.00    -0.004 C 
ATOM      5  C   UNL     1      34.932 -10.757 -25.090  0.00  0.00    +0.000 C 
ATOM      6  C   UNL     1      35.071  -9.427 -24.691  0.00  0.00    -0.000 C 
ENDROOT
BRANCH   3   8
ATOM      7  O   UNL     1      34.307 -13.791 -22.870  0.00  0.00    -0.453 OA
ATOM      8  C   UNL     1      33.698 -12.880 -25.060  0.00  0.00    +0.035 C 
ATOM      9  C   UNL     1      33.931 -13.928 -24.172  0.00  0.00    +0.145 A 
ATOM     10  C   UNL     1      33.810 -15.275 -24.503  0.00  0.00    +0.037 A 
ATOM     11  C   UNL     1      34.134 -16.001 -23.320  0.00  0.00    +0.037 A 
ATOM     12  C   UNL     1      34.430 -15.045 -22.353  0.00  0.00    +0.145 A 
ATOM     13  C   UNL     1      33.319 -13.236 -26.357  0.00  0.00    +0.003 C 
ATOM     14  C   UNL     1      33.427 -15.607 -25.815  0.00  0.00    +0.003 C 
ATOM     15  C   UNL     1      33.185 -14.575 -26.731  0.00  0.00    +0.000 C 
ATOM     16  C   UNL     1      34.209 -17.360 -22.963  0.00  0.00    +0.003 C 
ATOM     17  C   UNL     1      34.799 -15.348 -21.043  0.00  0.00    +0.037 C 
ATOM     18  C   UNL     1      34.578 -17.694 -21.653  0.00  0.00    +0.000 C 
ATOM     19  C   UNL     1      34.866 -16.705 -20.711  0.00  0.00    +0.003 C 
ENDBRANCH   3   8
BRANCH   1  20
ATOM     20  C   UNL     1      32.017  -8.979 -22.507  0.00  0.00    +0.077 C 
BRANCH  20  21
ATOM     21  C   UNL     1      32.259  -7.506 -22.063  0.00  0.00    +0.279 C 
BRANCH  21  22
ATOM     22  P   UNL     1      32.258  -7.293 -20.249  0.00  0.00    +0.372 P 
ATOM     23  O   UNL     1      31.559  -8.370 -19.474  0.00  0.00    -0.255 OA
BRANCH  22  24
ATOM     24  O   UNL     1      31.663  -5.803 -20.050  0.00  0.00    -0.322 OA
ATOM     25  H   UNL     1      32.393  -5.164 -20.034  0.00  0.00    +0.220 HD
ENDBRANCH  22  24
BRANCH  22  26
ATOM     26  O   UNL     1      33.822  -7.113 -19.882  0.00  0.00    -0.322 OA
ATOM     27  H   UNL     1      34.228  -7.986 -19.764  0.00  0.00    +0.220 HD
ENDBRANCH  22  26
ENDBRANCH  21  22
BRANCH  21  28
ATOM     28  P   UNL     1      31.233  -6.414 -23.147  0.00  0.00    +0.372 P 
ATOM     29  O   UNL     1      30.242  -5.559 -22.416  0.00  0.00    -0.255 OA
BRANCH  28  30
ATOM     30  O   UNL     1      32.343  -5.606 -24.000  0.00  0.00    -0.322 OA
ATOM     31  H   UNL     1      31.999  -5.426 -24.889  0.00  0.00    +0.220 HD
ENDBRANCH  28  30
BRANCH  28  32
ATOM     32  O   UNL     1      30.593  -7.427 -24.231  0.00  0.00    -0.322 OA
ATOM     33  H   UNL     1      29.703  -7.687 -23.946  0.00  0.00    +0.220 HD
ENDBRANCH  28  32
ENDBRANCH  21  28
BRANCH  21  34
ATOM     34  O   UNL     1      33.576  -7.108 -22.447  0.00  0.00    -0.366 OA
ATOM     35  H   UNL     1      34.221  -7.738 -22.089  0.00  0.00    +0.212 HD
ENDBRANCH  21  34
ENDBRANCH  20  21
ENDBRANCH   1  20
TORSDOF 10
ENDMDL
MODEL 8
REMARK VINA RESULT:      -9.1      8.854     12.446
REMARK  Name = 16122553
REMARK  10 active torsions:
REMARK  status: ('A' for Active; 'I' for Inactive)
REMARK    1  A    between atoms: C_1  and  C_20
REMARK    2  A    between atoms: C_3  and  C_8
REMARK    3  A    between atoms: C_20  and  C_21
REMARK    4  A    between atoms: C_21  and  P_22
REMARK    5  A    between atoms: C_21  and  P_28
REMARK    6  A    between atoms: C_21  and  O_34
REMARK    7  A    between atoms: P_22  and  O_24
REMARK    8  A    between atoms: P_22  and  O_26
REMARK    9  A    between atoms: P_28  and  O_30
REMARK   10  A    between atoms: P_28  and  O_32
REMARK                            x       y       z     vdW  Elec       q    Type
REMARK                         _______ _______ _______ _____ _____    ______ ____
ROOT
ATOM      1  C   UNL     1      36.213 -23.156 -15.271  0.00  0.00    -0.019 C 
ATOM      2  C   UNL     1      35.257 -22.803 -16.223  0.00  0.00    -0.004 C 
ATOM      3  C   UNL     1      35.650 -22.184 -17.409  0.00  0.00    +0.003 C 
ATOM      4  C   UNL     1      37.563 -22.891 -15.505  0.00  0.00    -0.004 C 
ATOM      5  C   UNL     1      36.999 -21.918 -17.644  0.00  0.00    +0.000 C 
ATOM      6  C   UNL     1      37.955 -22.271 -16.692  0.00  0.00    -0.000 C 
ENDROOT
BRANCH   3   8
ATOM      7  O   UNL     1      36.201 -20.415 -19.683  0.00  0.00    -0.453 OA
ATOM      8  C   UNL     1      34.662 -21.818 -18.393  0.00  0.00    +0.035 C 
ATOM      9  C   UNL     1      34.979 -20.974 -19.455  0.00  0.00    +0.145 A 
ATOM     10  C   UNL     1      34.076 -20.582 -20.439  0.00  0.00    +0.037 A 
ATOM     11  C   UNL     1      34.801 -19.730 -21.321  0.00  0.00    +0.037 A 
ATOM     12  C   UNL     1      36.094 -19.662 -20.813  0.00  0.00    +0.145 A 
ATOM     13  C   UNL     1      33.346 -22.286 -18.341  0.00  0.00    +0.003 C 
ATOM     14  C   UNL     1      32.757 -21.066 -20.365  0.00  0.00    +0.003 C 
ATOM     15  C   UNL     1      32.408 -21.918 -19.308  0.00  0.00    +0.000 C 
ATOM     16  C   UNL     1      34.504 -19.009 -22.494  0.00  0.00    +0.003 C 
ATOM     17  C   UNL     1      37.124 -18.922 -21.391  0.00  0.00    +0.037 C 
ATOM     18  C   UNL     1      35.520 -18.256 -23.098  0.00  0.00    +0.000 C 
ATOM     19  C   UNL     1      36.806 -18.215 -22.555  0.00  0.00    +0.003 C 
ENDBRANCH   3   8
BRANCH   1  20
ATOM     20  C   UNL     1      35.794 -23.820 -14.003  0.00  0.00    +0.077 C 
BRANCH  20  21
ATOM     21  C   UNL     1      36.719 -24.941 -13.442  0.00  0.00    +0.279 C 
BRANCH  21  22
ATOM     22  P   UNL     1      38.188 -24.292 -12.573  0.00  0.00    +0.372 P 
ATOM     23  O   UNL     1      39.500 -24.525 -13.261  0.00  0.00    -0.255 OA
BRANCH  22  24
ATOM     24  O   UNL     1      38.060 -24.937 -11.095  0.00  0.00    -0.322 OA
ATOM     25  H   UNL     1      37.508 -25.734 -11.139  0.00  0.00    +0.220 HD
ENDBRANCH  22  24
BRANCH  22  26
ATOM     26  O   UNL     1      37.831 -22.736 -12.322  0.00  0.00    -0.322 OA
ATOM     27  H   UNL     1      37.386 -22.640 -11.466  0.00  0.00    +0.220 HD
ENDBRANCH  22  26
ENDBRANCH  21  22
BRANCH  21  28
ATOM     28  P   UNL     1      36.884 -26.241 -14.746  0.00  0.00    +0.372 P 
ATOM     29  O   UNL     1      35.798 -26.230 -15.781  0.00  0.00    -0.255 OA
BRANCH  28  30
ATOM     30  O   UNL     1      38.378 -25.997 -15.313  0.00  0.00    -0.322 OA
ATOM     31  H   UNL     1      38.607 -25.059 -15.227  0.00  0.00    +0.220 HD
ENDBRANCH  28  30
BRANCH  28  32
ATOM     32  O   UNL     1      37.020 -27.618 -13.912  0.00  0.00    -0.322 OA
ATOM     33  H   UNL     1      37.382 -27.429 -13.032  0.00  0.00    +0.220 HD
ENDBRANCH  28  32
ENDBRANCH  21  28
BRANCH  21  34
ATOM     34  O   UNL     1      36.020 -25.663 -12.427  0.00  0.00    -0.366 OA
ATOM     35  H   UNL     1      36.514 -26.467 -12.204  0.00  0.00    +0.212 HD
ENDBRANCH  21  34
ENDBRANCH  20  21
ENDBRANCH   1  20
TORSDOF 10
ENDMDL
MODEL 9
REMARK VINA RESULT:      -9.1     10.855     14.409
REMARK  Name = 16122553
REMARK  10 active torsions:
REMARK  status: ('A' for Active; 'I' for Inactive)
REMARK    1  A    between atoms: C_1  and  C_20
REMARK    2  A    between atoms: C_3  and  C_8
REMARK    3  A    between atoms: C_20  and  C_21
REMARK    4  A    between atoms: C_21  and  P_22
REMARK    5  A    between atoms: C_21  and  P_28
REMARK    6  A    between atoms: C_21  and  O_34
REMARK    7  A    between atoms: P_22  and  O_24
REMARK    8  A    between atoms: P_22  and  O_26
REMARK    9  A    between atoms: P_28  and  O_30
REMARK   10  A    between atoms: P_28  and  O_32
REMARK                            x       y       z     vdW  Elec       q    Type
REMARK                         _______ _______ _______ _____ _____    ______ ____
ROOT
ATOM      1  C   UNL     1      36.683 -24.103 -13.390  0.00  0.00    -0.019 C 
ATOM      2  C   UNL     1      35.726 -23.843 -14.372  0.00  0.00    -0.004 C 
ATOM      3  C   UNL     1      34.375 -23.795 -14.033  0.00  0.00    +0.003 C 
ATOM      4  C   UNL     1      36.287 -24.314 -12.069  0.00  0.00    -0.004 C 
ATOM      5  C   UNL     1      33.978 -24.006 -12.712  0.00  0.00    +0.000 C 
ATOM      6  C   UNL     1      34.935 -24.266 -11.731  0.00  0.00    -0.000 C 
ENDROOT
BRANCH   3   8
ATOM      7  O   UNL     1      35.016 -22.680 -16.669  0.00  0.00    -0.453 OA
ATOM      8  C   UNL     1      33.386 -23.526 -15.048  0.00  0.00    +0.035 C 
ATOM      9  C   UNL     1      33.748 -22.996 -16.285  0.00  0.00    +0.145 A 
ATOM     10  C   UNL     1      32.846 -22.714 -17.307  0.00  0.00    +0.037 A 
ATOM     11  C   UNL     1      33.623 -22.192 -18.382  0.00  0.00    +0.037 A 
ATOM     12  C   UNL     1      34.942 -22.194 -17.939  0.00  0.00    +0.145 A 
ATOM     13  C   UNL     1      32.026 -23.781 -14.853  0.00  0.00    +0.003 C 
ATOM     14  C   UNL     1      31.483 -22.979 -17.087  0.00  0.00    +0.003 C 
ATOM     15  C   UNL     1      31.088 -23.513 -15.853  0.00  0.00    +0.000 C 
ATOM     16  C   UNL     1      33.354 -21.721 -19.681  0.00  0.00    +0.003 C 
ATOM     17  C   UNL     1      36.023 -21.755 -18.701  0.00  0.00    +0.037 C 
ATOM     18  C   UNL     1      34.422 -21.273 -20.471  0.00  0.00    +0.000 C 
ATOM     19  C   UNL     1      35.732 -21.291 -19.988  0.00  0.00    +0.003 C 
ENDBRANCH   3   8
BRANCH   1  20
ATOM     20  C   UNL     1      38.129 -24.154 -13.752  0.00  0.00    +0.077 C 
BRANCH  20  21
ATOM     21  C   UNL     1      38.776 -25.560 -13.918  0.00  0.00    +0.279 C 
BRANCH  21  22
ATOM     22  P   UNL     1      40.453 -25.498 -14.640  0.00  0.00    +0.372 P 
ATOM     23  O   UNL     1      41.220 -24.236 -14.380  0.00  0.00    -0.255 OA
BRANCH  22  24
ATOM     24  O   UNL     1      40.198 -25.844 -16.199  0.00  0.00    -0.322 OA
ATOM     25  H   UNL     1      40.563 -25.134 -16.750  0.00  0.00    +0.220 HD
ENDBRANCH  22  24
BRANCH  22  26
ATOM     26  O   UNL     1      41.162 -26.839 -14.081  0.00  0.00    -0.322 OA
ATOM     27  H   UNL     1      41.170 -26.820 -13.111  0.00  0.00    +0.220 HD
ENDBRANCH  22  26
ENDBRANCH  21  22
BRANCH  21  28
ATOM     28  P   UNL     1      37.489 -26.697 -14.604  0.00  0.00    +0.372 P 
ATOM     29  O   UNL     1      36.643 -26.101 -15.690  0.00  0.00    -0.255 OA
BRANCH  28  30
ATOM     30  O   UNL     1      38.346 -27.997 -15.034  0.00  0.00    -0.322 OA
ATOM     31  H   UNL     1      37.884 -28.469 -15.744  0.00  0.00    +0.220 HD
ENDBRANCH  28  30
BRANCH  28  32
ATOM     32  O   UNL     1      36.676 -27.199 -13.301  0.00  0.00    -0.322 OA
ATOM     33  H   UNL     1      35.838 -27.604 -13.578  0.00  0.00    +0.220 HD
ENDBRANCH  28  32
ENDBRANCH  21  28
BRANCH  21  34
ATOM     34  O   UNL     1      38.987 -26.137 -12.628  0.00  0.00    -0.366 OA
ATOM     35  H   UNL     1      39.062 -25.431 -11.967  0.00  0.00    +0.212 HD
ENDBRANCH  21  34
ENDBRANCH  20  21
ENDBRANCH   1  20
TORSDOF 10
ENDMDL
