MODEL 1
REMARK VINA RESULT:      -9.6      0.000      0.000
REMARK  Name = 4543
REMARK  3 active torsions:
REMARK  status: ('A' for Active; 'I' for Inactive)
REMARK    1  A    between atoms: C_8  and  C_17
REMARK    2  A    between atoms: C_17  and  C_18
REMARK    3  A    between atoms: C_18  and  N_19
REMARK                            x       y       z     vdW  Elec       q    Type
REMARK                         _______ _______ _______ _____ _____    ______ ____
ROOT
ATOM      1  C   UNL     1      32.055  -6.498 -20.633  0.00  0.00    +0.031 C 
ATOM      2  C   UNL     1      32.884  -7.720 -20.237  0.00  0.00    +0.031 C 
ATOM      3  C   UNL     1      31.815  -6.213 -22.105  0.00  0.00    -0.022 C 
ATOM      4  C   UNL     1      32.160  -9.009 -20.532  0.00  0.00    -0.022 C 
ATOM      5  C   UNL     1      32.406  -8.540 -22.965  0.00  0.00    -0.005 C 
ATOM      6  C   UNL     1      31.972  -7.132 -23.166  0.00  0.00    -0.004 C 
ATOM      7  C   UNL     1      31.928  -9.399 -21.861  0.00  0.00    -0.004 C 
ATOM      8  C   UNL     1      33.360  -9.059 -23.762  0.00  0.00    -0.028 C 
ATOM      9  C   UNL     1      31.356  -4.910 -22.401  0.00  0.00    -0.004 C 
ATOM     10  C   UNL     1      31.707  -9.825 -19.486  0.00  0.00    -0.004 C 
ATOM     11  C   UNL     1      31.649  -6.714 -24.478  0.00  0.00    -0.000 C 
ATOM     12  C   UNL     1      31.240 -10.593 -22.125  0.00  0.00    -0.000 C 
ATOM     13  C   UNL     1      31.061  -4.515 -23.704  0.00  0.00    -0.000 C 
ATOM     14  C   UNL     1      31.028 -11.012 -19.758  0.00  0.00    -0.000 C 
ATOM     15  C   UNL     1      31.206  -5.419 -24.743  0.00  0.00    -0.000 C 
ATOM     16  C   UNL     1      30.795 -11.396 -21.075  0.00  0.00    -0.000 C 
ENDROOT
BRANCH   8  17
ATOM     17  C   UNL     1      33.868 -10.460 -23.644  0.00  0.00    +0.003 C 
BRANCH  17  18
ATOM     18  C   UNL     1      34.168 -11.053 -25.020  0.00  0.00    -0.077 C 
BRANCH  18  19
ATOM     19  N   UNL     1      33.752 -12.450 -25.071  0.00  0.00    +0.383 N 
ATOM     20  C   UNL     1      33.627 -13.003 -23.731  0.00  0.00    -0.106 C 
ATOM     21  H   UNL     1      34.446 -12.986 -25.591  0.00  0.00    -0.085 HD
ATOM     22  H   UNL     1      32.843 -12.502 -25.531  0.00  0.00    -0.085 HD
ENDBRANCH  18  19
ENDBRANCH  17  18
ENDBRANCH   8  17
TORSDOF 3
ENDMDL
MODEL 2
REMARK VINA RESULT:      -9.2     14.854     17.143
REMARK  Name = 4543
REMARK  3 active torsions:
REMARK  status: ('A' for Active; 'I' for Inactive)
REMARK    1  A    between atoms: C_8  and  C_17
REMARK    2  A    between atoms: C_17  and  C_18
REMARK    3  A    between atoms: C_18  and  N_19
REMARK                            x       y       z     vdW  Elec       q    Type
REMARK                         _______ _______ _______ _____ _____    ______ ____
ROOT
ATOM      1  C   UNL     1      32.450 -22.846 -17.582  0.00  0.00    +0.031 C 
ATOM      2  C   UNL     1      33.735 -23.411 -18.188  0.00  0.00    +0.031 C 
ATOM      3  C   UNL     1      32.137 -23.125 -16.123  0.00  0.00    -0.022 C 
ATOM      4  C   UNL     1      34.962 -22.736 -17.630  0.00  0.00    -0.022 C 
ATOM      5  C   UNL     1      34.495 -23.803 -15.430  0.00  0.00    -0.005 C 
ATOM      6  C   UNL     1      33.057 -23.559 -15.143  0.00  0.00    -0.004 C 
ATOM      7  C   UNL     1      35.324 -22.929 -16.287  0.00  0.00    -0.004 C 
ATOM      8  C   UNL     1      35.080 -24.928 -14.973  0.00  0.00    -0.028 C 
ATOM      9  C   UNL     1      30.800 -22.881 -15.735  0.00  0.00    -0.004 C 
ATOM     10  C   UNL     1      35.749 -21.907 -18.442  0.00  0.00    -0.004 C 
ATOM     11  C   UNL     1      32.606 -23.717 -13.812  0.00  0.00    -0.000 C 
ATOM     12  C   UNL     1      36.460 -22.285 -15.773  0.00  0.00    -0.000 C 
ATOM     13  C   UNL     1      30.373 -23.061 -14.421  0.00  0.00    -0.000 C 
ATOM     14  C   UNL     1      36.879 -21.276 -17.925  0.00  0.00    -0.000 C 
ATOM     15  C   UNL     1      31.279 -23.478 -13.458  0.00  0.00    -0.000 C 
ATOM     16  C   UNL     1      37.233 -21.463 -16.592  0.00  0.00    -0.000 C 
ENDROOT
BRANCH   8  17
ATOM     17  C   UNL     1      36.517 -25.269 -15.207  0.00  0.00    +0.003 C 
BRANCH  17  18
ATOM     18  C   UNL     1      36.776 -26.753 -14.952  0.00  0.00    -0.077 C 
BRANCH  18  19
ATOM     19  N   UNL     1      37.142 -26.971 -13.557  0.00  0.00    +0.383 N 
ATOM     20  C   UNL     1      38.045 -25.931 -13.090  0.00  0.00    -0.106 C 
ATOM     21  H   UNL     1      37.602 -27.878 -13.470  0.00  0.00    -0.085 HD
ATOM     22  H   UNL     1      36.294 -26.946 -12.990  0.00  0.00    -0.085 HD
ENDBRANCH  18  19
ENDBRANCH  17  18
ENDBRANCH   8  17
TORSDOF 3
ENDMDL
MODEL 3
REMARK VINA RESULT:      -8.5      2.725      6.350
REMARK  Name = 4543
REMARK  3 active torsions:
REMARK  status: ('A' for Active; 'I' for Inactive)
REMARK    1  A    between atoms: C_8  and  C_17
REMARK    2  A    between atoms: C_17  and  C_18
REMARK    3  A    between atoms: C_18  and  N_19
REMARK                            x       y       z     vdW  Elec       q    Type
REMARK                         _______ _______ _______ _____ _____    ______ ____
ROOT
ATOM      1  C   UNL     1      34.718  -9.187 -24.052  0.00  0.00    +0.031 C 
ATOM      2  C   UNL     1      35.049  -7.709 -23.845  0.00  0.00    +0.031 C 
ATOM      3  C   UNL     1      33.456  -9.756 -23.426  0.00  0.00    -0.022 C 
ATOM      4  C   UNL     1      34.088  -6.810 -24.579  0.00  0.00    -0.022 C 
ATOM      5  C   UNL     1      32.289  -7.527 -23.014  0.00  0.00    -0.005 C 
ATOM      6  C   UNL     1      32.353  -9.011 -22.954  0.00  0.00    -0.004 C 
ATOM      7  C   UNL     1      32.746  -6.729 -24.171  0.00  0.00    -0.004 C 
ATOM      8  C   UNL     1      31.884  -6.837 -21.930  0.00  0.00    -0.028 C 
ATOM      9  C   UNL     1      33.397 -11.167 -23.362  0.00  0.00    -0.004 C 
ATOM     10  C   UNL     1      34.521  -6.053 -25.676  0.00  0.00    -0.004 C 
ATOM     11  C   UNL     1      31.231  -9.708 -22.450  0.00  0.00    -0.000 C 
ATOM     12  C   UNL     1      31.856  -5.900 -24.871  0.00  0.00    -0.000 C 
ATOM     13  C   UNL     1      32.288 -11.831 -22.844  0.00  0.00    -0.000 C 
ATOM     14  C   UNL     1      33.630  -5.227 -26.362  0.00  0.00    -0.000 C 
ATOM     15  C   UNL     1      31.203 -11.100 -22.389  0.00  0.00    -0.000 C 
ATOM     16  C   UNL     1      32.299  -5.152 -25.961  0.00  0.00    -0.000 C 
ENDROOT
BRANCH   8  17
ATOM     17  C   UNL     1      31.785  -5.346 -21.885  0.00  0.00    +0.003 C 
BRANCH  17  18
ATOM     18  C   UNL     1      30.326  -4.895 -21.836  0.00  0.00    -0.077 C 
BRANCH  18  19
ATOM     19  N   UNL     1      30.219  -3.487 -22.204  0.00  0.00    +0.383 N 
ATOM     20  C   UNL     1      31.381  -3.062 -22.970  0.00  0.00    -0.106 C 
ATOM     21  H   UNL     1      30.152  -2.924 -21.356  0.00  0.00    -0.085 HD
ATOM     22  H   UNL     1      29.386  -3.364 -22.780  0.00  0.00    -0.085 HD
ENDBRANCH  18  19
ENDBRANCH  17  18
ENDBRANCH   8  17
TORSDOF 3
ENDMDL
MODEL 4
REMARK VINA RESULT:      -8.2     14.343     17.390
REMARK  Name = 4543
REMARK  3 active torsions:
REMARK  status: ('A' for Active; 'I' for Inactive)
REMARK    1  A    between atoms: C_8  and  C_17
REMARK    2  A    between atoms: C_17  and  C_18
REMARK    3  A    between atoms: C_18  and  N_19
REMARK                            x       y       z     vdW  Elec       q    Type
REMARK                         _______ _______ _______ _____ _____    ______ ____
ROOT
ATOM      1  C   UNL     1      37.963 -22.801 -16.113  0.00  0.00    +0.031 C 
ATOM      2  C   UNL     1      36.928 -21.696 -16.332  0.00  0.00    +0.031 C 
ATOM      3  C   UNL     1      37.569 -24.036 -15.322  0.00  0.00    -0.022 C 
ATOM      4  C   UNL     1      35.827 -22.136 -17.262  0.00  0.00    -0.022 C 
ATOM      5  C   UNL     1      35.045 -23.727 -15.514  0.00  0.00    -0.005 C 
ATOM      6  C   UNL     1      36.250 -24.461 -15.047  0.00  0.00    -0.004 C 
ATOM      7  C   UNL     1      34.916 -23.127 -16.858  0.00  0.00    -0.004 C 
ATOM      8  C   UNL     1      34.034 -23.499 -14.653  0.00  0.00    -0.028 C 
ATOM      9  C   UNL     1      38.645 -24.831 -14.868  0.00  0.00    -0.004 C 
ATOM     10  C   UNL     1      35.703 -21.567 -18.537  0.00  0.00    -0.004 C 
ATOM     11  C   UNL     1      36.063 -25.672 -14.340  0.00  0.00    -0.000 C 
ATOM     12  C   UNL     1      33.903 -23.539 -17.737  0.00  0.00    -0.000 C 
ATOM     13  C   UNL     1      38.437 -26.011 -14.158  0.00  0.00    -0.000 C 
ATOM     14  C   UNL     1      34.690 -21.979 -19.402  0.00  0.00    -0.000 C 
ATOM     15  C   UNL     1      37.143 -26.432 -13.895  0.00  0.00    -0.000 C 
ATOM     16  C   UNL     1      33.792 -22.965 -19.003  0.00  0.00    -0.000 C 
ENDROOT
BRANCH   8  17
ATOM     17  C   UNL     1      32.780 -22.771 -15.021  0.00  0.00    +0.003 C 
BRANCH  17  18
ATOM     18  C   UNL     1      31.631 -23.153 -14.089  0.00  0.00    -0.077 C 
BRANCH  18  19
ATOM     19  N   UNL     1      30.349 -22.901 -14.736  0.00  0.00    +0.383 N 
ATOM     20  C   UNL     1      30.462 -23.034 -16.181  0.00  0.00    -0.106 C 
ATOM     21  H   UNL     1      30.041 -21.955 -14.510  0.00  0.00    -0.085 HD
ATOM     22  H   UNL     1      29.673 -23.586 -14.397  0.00  0.00    -0.085 HD
ENDBRANCH  18  19
ENDBRANCH  17  18
ENDBRANCH   8  17
TORSDOF 3
ENDMDL
MODEL 5
REMARK VINA RESULT:      -8.2      2.471      6.034
REMARK  Name = 4543
REMARK  3 active torsions:
REMARK  status: ('A' for Active; 'I' for Inactive)
REMARK    1  A    between atoms: C_8  and  C_17
REMARK    2  A    between atoms: C_17  and  C_18
REMARK    3  A    between atoms: C_18  and  N_19
REMARK                            x       y       z     vdW  Elec       q    Type
REMARK                         _______ _______ _______ _____ _____    ______ ____
ROOT
ATOM      1  C   UNL     1      31.603 -11.934 -21.223  0.00  0.00    +0.031 C 
ATOM      2  C   UNL     1      31.227 -11.133 -22.471  0.00  0.00    +0.031 C 
ATOM      3  C   UNL     1      32.543 -13.119 -21.362  0.00  0.00    -0.022 C 
ATOM      4  C   UNL     1      32.397 -10.348 -23.007  0.00  0.00    -0.022 C 
ATOM      5  C   UNL     1      33.489 -12.492 -23.645  0.00  0.00    -0.005 C 
ATOM      6  C   UNL     1      33.399 -13.378 -22.455  0.00  0.00    -0.004 C 
ATOM      7  C   UNL     1      33.495 -11.016 -23.574  0.00  0.00    -0.004 C 
ATOM      8  C   UNL     1      33.471 -13.035 -24.878  0.00  0.00    -0.028 C 
ATOM      9  C   UNL     1      32.565 -14.003 -20.260  0.00  0.00    -0.004 C 
ATOM     10  C   UNL     1      32.403  -8.947 -22.940  0.00  0.00    -0.004 C 
ATOM     11  C   UNL     1      34.252 -14.504 -22.394  0.00  0.00    -0.000 C 
ATOM     12  C   UNL     1      34.585 -10.276 -24.057  0.00  0.00    -0.000 C 
ATOM     13  C   UNL     1      33.402 -15.116 -20.230  0.00  0.00    -0.000 C 
ATOM     14  C   UNL     1      33.488  -8.220 -23.428  0.00  0.00    -0.000 C 
ATOM     15  C   UNL     1      34.248 -15.365 -21.298  0.00  0.00    -0.000 C 
ATOM     16  C   UNL     1      34.578  -8.883 -23.984  0.00  0.00    -0.000 C 
ENDROOT
BRANCH   8  17
ATOM     17  C   UNL     1      33.555 -12.234 -26.138  0.00  0.00    +0.003 C 
BRANCH  17  18
ATOM     18  C   UNL     1      33.177 -13.082 -27.352  0.00  0.00    -0.077 C 
BRANCH  18  19
ATOM     19  N   UNL     1      32.197 -14.095 -26.976  0.00  0.00    +0.383 N 
ATOM     20  C   UNL     1      32.853 -15.341 -26.608  0.00  0.00    -0.106 C 
ATOM     21  H   UNL     1      31.573 -14.266 -27.765  0.00  0.00    -0.085 HD
ATOM     22  H   UNL     1      31.669 -13.755 -26.172  0.00  0.00    -0.085 HD
ENDBRANCH  18  19
ENDBRANCH  17  18
ENDBRANCH   8  17
TORSDOF 3
ENDMDL
MODEL 6
REMARK VINA RESULT:      -8.0      2.298      5.177
REMARK  Name = 4543
REMARK  3 active torsions:
REMARK  status: ('A' for Active; 'I' for Inactive)
REMARK    1  A    between atoms: C_8  and  C_17
REMARK    2  A    between atoms: C_17  and  C_18
REMARK    3  A    between atoms: C_18  and  N_19
REMARK                            x       y       z     vdW  Elec       q    Type
REMARK                         _______ _______ _______ _____ _____    ______ ____
ROOT
ATOM      1  C   UNL     1      32.377 -11.872 -23.249  0.00  0.00    +0.031 C 
ATOM      2  C   UNL     1      31.128 -11.324 -22.558  0.00  0.00    +0.031 C 
ATOM      3  C   UNL     1      33.343 -10.901 -23.906  0.00  0.00    -0.022 C 
ATOM      4  C   UNL     1      31.470 -10.564 -21.302  0.00  0.00    -0.022 C 
ATOM      5  C   UNL     1      32.530  -8.803 -22.706  0.00  0.00    -0.005 C 
ATOM      6  C   UNL     1      33.418  -9.512 -23.666  0.00  0.00    -0.004 C 
ATOM      7  C   UNL     1      32.155  -9.341 -21.382  0.00  0.00    -0.004 C 
ATOM      8  C   UNL     1      31.943  -7.648 -23.076  0.00  0.00    -0.028 C 
ATOM      9  C   UNL     1      34.263 -11.483 -24.807  0.00  0.00    -0.004 C 
ATOM     10  C   UNL     1      31.114 -11.073 -20.045  0.00  0.00    -0.004 C 
ATOM     11  C   UNL     1      34.419  -8.763 -24.326  0.00  0.00    -0.000 C 
ATOM     12  C   UNL     1      32.481  -8.648 -20.206  0.00  0.00    -0.000 C 
ATOM     13  C   UNL     1      35.231 -10.722 -25.460  0.00  0.00    -0.000 C 
ATOM     14  C   UNL     1      31.437 -10.375 -18.881  0.00  0.00    -0.000 C 
ATOM     15  C   UNL     1      35.309  -9.360 -25.217  0.00  0.00    -0.000 C 
ATOM     16  C   UNL     1      32.121  -9.165 -18.961  0.00  0.00    -0.000 C 
ENDROOT
BRANCH   8  17
ATOM     17  C   UNL     1      31.034  -6.859 -22.189  0.00  0.00    +0.003 C 
BRANCH  17  18
ATOM     18  C   UNL     1      31.589  -5.456 -21.945  0.00  0.00    -0.077 C 
BRANCH  18  19
ATOM     19  N   UNL     1      30.602  -4.450 -22.321  0.00  0.00    +0.383 N 
ATOM     20  C   UNL     1      31.204  -3.420 -23.155  0.00  0.00    -0.106 C 
ATOM     21  H   UNL     1      30.226  -4.019 -21.477  0.00  0.00    -0.085 HD
ATOM     22  H   UNL     1      29.858  -4.905 -22.851  0.00  0.00    -0.085 HD
ENDBRANCH  18  19
ENDBRANCH  17  18
ENDBRANCH   8  17
TORSDOF 3
ENDMDL
MODEL 7
REMARK VINA RESULT:      -8.0      3.263      6.141
REMARK  Name = 4543
REMARK  3 active torsions:
REMARK  status: ('A' for Active; 'I' for Inactive)
REMARK    1  A    between atoms: C_8  and  C_17
REMARK    2  A    between atoms: C_17  and  C_18
REMARK    3  A    between atoms: C_18  and  N_19
REMARK                            x       y       z     vdW  Elec       q    Type
REMARK                         _______ _______ _______ _____ _____    ______ ____
ROOT
ATOM      1  C   UNL     1      33.564 -14.368 -21.319  0.00  0.00    +0.031 C 
ATOM      2  C   UNL     1      34.647 -14.538 -22.385  0.00  0.00    +0.031 C 
ATOM      3  C   UNL     1      32.661 -13.149 -21.371  0.00  0.00    -0.022 C 
ATOM      4  C   UNL     1      34.059 -14.833 -23.741  0.00  0.00    -0.022 C 
ATOM      5  C   UNL     1      33.136 -12.521 -23.796  0.00  0.00    -0.005 C 
ATOM      6  C   UNL     1      32.462 -12.308 -22.489  0.00  0.00    -0.004 C 
ATOM      7  C   UNL     1      33.322 -13.849 -24.420  0.00  0.00    -0.004 C 
ATOM      8  C   UNL     1      33.703 -11.475 -24.428  0.00  0.00    -0.028 C 
ATOM      9  C   UNL     1      31.937 -12.882 -20.187  0.00  0.00    -0.004 C 
ATOM     10  C   UNL     1      34.235 -16.092 -24.333  0.00  0.00    -0.004 C 
ATOM     11  C   UNL     1      31.538 -11.244 -22.380  0.00  0.00    -0.000 C 
ATOM     12  C   UNL     1      32.767 -14.139 -25.675  0.00  0.00    -0.000 C 
ATOM     13  C   UNL     1      31.045 -11.816 -20.097  0.00  0.00    -0.000 C 
ATOM     14  C   UNL     1      33.684 -16.369 -25.583  0.00  0.00    -0.000 C 
ATOM     15  C   UNL     1      30.844 -10.997 -21.196  0.00  0.00    -0.000 C 
ATOM     16  C   UNL     1      32.949 -15.394 -26.253  0.00  0.00    -0.000 C 
ENDROOT
BRANCH   8  17
ATOM     17  C   UNL     1      34.405 -11.582 -25.744  0.00  0.00    +0.003 C 
BRANCH  17  18
ATOM     18  C   UNL     1      35.380 -10.422 -25.940  0.00  0.00    -0.077 C 
BRANCH  18  19
ATOM     19  N   UNL     1      35.695  -9.803 -24.657  0.00  0.00    +0.383 N 
ATOM     20  C   UNL     1      34.901  -8.600 -24.454  0.00  0.00    -0.106 C 
ATOM     21  H   UNL     1      36.685  -9.557 -24.639  0.00  0.00    -0.085 HD
ATOM     22  H   UNL     1      35.478 -10.467 -23.914  0.00  0.00    -0.085 HD
ENDBRANCH  18  19
ENDBRANCH  17  18
ENDBRANCH   8  17
TORSDOF 3
ENDMDL
MODEL 8
REMARK VINA RESULT:      -7.9      2.036      5.772
REMARK  Name = 4543
REMARK  3 active torsions:
REMARK  status: ('A' for Active; 'I' for Inactive)
REMARK    1  A    between atoms: C_8  and  C_17
REMARK    2  A    between atoms: C_17  and  C_18
REMARK    3  A    between atoms: C_18  and  N_19
REMARK                            x       y       z     vdW  Elec       q    Type
REMARK                         _______ _______ _______ _____ _____    ______ ____
ROOT
ATOM      1  C   UNL     1      34.935  -9.646 -24.874  0.00  0.00    +0.031 C 
ATOM      2  C   UNL     1      35.006  -8.340 -24.082  0.00  0.00    +0.031 C 
ATOM      3  C   UNL     1      34.056 -10.774 -24.361  0.00  0.00    -0.022 C 
ATOM      4  C   UNL     1      33.710  -7.574 -24.145  0.00  0.00    -0.022 C 
ATOM      5  C   UNL     1      32.638  -9.361 -22.783  0.00  0.00    -0.005 C 
ATOM      6  C   UNL     1      33.015 -10.653 -23.415  0.00  0.00    -0.004 C 
ATOM      7  C   UNL     1      32.561  -8.078 -23.513  0.00  0.00    -0.004 C 
ATOM      8  C   UNL     1      32.440  -9.308 -21.451  0.00  0.00    -0.028 C 
ATOM      9  C   UNL     1      34.306 -12.041 -24.934  0.00  0.00    -0.004 C 
ATOM     10  C   UNL     1      33.637  -6.357 -24.837  0.00  0.00    -0.004 C 
ATOM     11  C   UNL     1      32.257 -11.801 -23.091  0.00  0.00    -0.000 C 
ATOM     12  C   UNL     1      31.356  -7.364 -23.590  0.00  0.00    -0.000 C 
ATOM     13  C   UNL     1      33.558 -13.163 -24.586  0.00  0.00    -0.000 C 
ATOM     14  C   UNL     1      32.436  -5.651 -24.903  0.00  0.00    -0.000 C 
ATOM     15  C   UNL     1      32.530 -13.042 -23.664  0.00  0.00    -0.000 C 
ATOM     16  C   UNL     1      31.297  -6.155 -24.282  0.00  0.00    -0.000 C 
ENDROOT
BRANCH   8  17
ATOM     17  C   UNL     1      32.059  -8.062 -20.718  0.00  0.00    +0.003 C 
BRANCH  17  18
ATOM     18  C   UNL     1      31.804  -8.352 -19.240  0.00  0.00    -0.077 C 
BRANCH  18  19
ATOM     19  N   UNL     1      32.362  -9.649 -18.875  0.00  0.00    +0.383 N 
ATOM     20  C   UNL     1      31.315 -10.654 -18.773  0.00  0.00    -0.106 C 
ATOM     21  H   UNL     1      32.837  -9.568 -17.976  0.00  0.00    -0.085 HD
ATOM     22  H   UNL     1      33.019  -9.937 -19.601  0.00  0.00    -0.085 HD
ENDBRANCH  18  19
ENDBRANCH  17  18
ENDBRANCH   8  17
TORSDOF 3
ENDMDL
MODEL 9
REMARK VINA RESULT:      -7.8      3.093      6.120
REMARK  Name = 4543
REMARK  3 active torsions:
REMARK  status: ('A' for Active; 'I' for Inactive)
REMARK    1  A    between atoms: C_8  and  C_17
REMARK    2  A    between atoms: C_17  and  C_18
REMARK    3  A    between atoms: C_18  and  N_19
REMARK                            x       y       z     vdW  Elec       q    Type
REMARK                         _______ _______ _______ _____ _____    ______ ____
ROOT
ATOM      1  C   UNL     1      33.727 -11.042 -25.331  0.00  0.00    +0.031 C 
ATOM      2  C   UNL     1      34.158 -10.667 -23.913  0.00  0.00    +0.031 C 
ATOM      3  C   UNL     1      33.521 -12.506 -25.677  0.00  0.00    -0.022 C 
ATOM      4  C   UNL     1      33.061 -10.914 -22.909  0.00  0.00    -0.022 C 
ATOM      5  C   UNL     1      33.331 -13.361 -23.282  0.00  0.00    -0.005 C 
ATOM      6  C   UNL     1      33.341 -13.561 -24.755  0.00  0.00    -0.004 C 
ATOM      7  C   UNL     1      32.662 -12.227 -22.610  0.00  0.00    -0.004 C 
ATOM      8  C   UNL     1      34.043 -14.191 -22.496  0.00  0.00    -0.028 C 
ATOM      9  C   UNL     1      33.470 -12.799 -27.059  0.00  0.00    -0.004 C 
ATOM     10  C   UNL     1      32.426  -9.840 -22.271  0.00  0.00    -0.004 C 
ATOM     11  C   UNL     1      33.104 -14.863 -25.253  0.00  0.00    -0.000 C 
ATOM     12  C   UNL     1      31.630 -12.446 -21.685  0.00  0.00    -0.000 C 
ATOM     13  C   UNL     1      33.254 -14.093 -27.526  0.00  0.00    -0.000 C 
ATOM     14  C   UNL     1      31.405 -10.067 -21.349  0.00  0.00    -0.000 C 
ATOM     15  C   UNL     1      33.069 -15.126 -26.622  0.00  0.00    -0.000 C 
ATOM     16  C   UNL     1      31.006 -11.369 -21.057  0.00  0.00    -0.000 C 
ENDROOT
BRANCH   8  17
ATOM     17  C   UNL     1      34.101 -14.077 -21.006  0.00  0.00    +0.003 C 
BRANCH  17  18
ATOM     18  C   UNL     1      34.487 -15.411 -20.368  0.00  0.00    -0.077 C 
BRANCH  18  19
ATOM     19  N   UNL     1      34.167 -16.513 -21.269  0.00  0.00    +0.383 N 
ATOM     20  C   UNL     1      35.199 -17.538 -21.220  0.00  0.00    -0.106 C 
ATOM     21  H   UNL     1      34.095 -16.156 -22.222  0.00  0.00    -0.085 HD
ATOM     22  H   UNL     1      33.282 -16.927 -20.975  0.00  0.00    -0.085 HD
ENDBRANCH  18  19
ENDBRANCH  17  18
ENDBRANCH   8  17
TORSDOF 3
ENDMDL
