MODEL 1
REMARK VINA RESULT:     -10.3      0.000      0.000
REMARK  Name = 688424
REMARK  4 active torsions:
REMARK  status: ('A' for Active; 'I' for Inactive)
REMARK    1  A    between atoms: C_3  and  C_13
REMARK    2  A    between atoms: C_3  and  O_25
REMARK    3  A    between atoms: C_16  and  S_19
REMARK    4  A    between atoms: S_19  and  N_22
REMARK                            x       y       z     vdW  Elec       q    Type
REMARK                         _______ _______ _______ _____ _____    ______ ____
ROOT
ATOM      1  O   UNL     1      32.158 -19.987 -20.578  0.00  0.00    -0.270 OA
ATOM      2  N   UNL     1      32.825 -21.953 -19.472  0.00  0.00    -0.276 N 
ATOM      3  C   UNL     1      34.080 -22.589 -19.081  0.00  0.00    +0.188 C 
ATOM      4  C   UNL     1      35.091 -21.587 -19.571  0.00  0.00    +0.028 C 
ATOM      5  C   UNL     1      34.446 -20.509 -20.183  0.00  0.00    +0.054 C 
ATOM      6  C   UNL     1      33.000 -20.741 -20.127  0.00  0.00    +0.248 C 
ATOM      7  C   UNL     1      36.474 -21.619 -19.502  0.00  0.00    +0.000 C 
ATOM      8  C   UNL     1      35.129 -19.440 -20.729  0.00  0.00    +0.004 C 
ATOM      9  C   UNL     1      37.188 -20.547 -20.048  0.00  0.00    -0.000 C 
ATOM     10  C   UNL     1      36.522 -19.468 -20.655  0.00  0.00    +0.000 C 
ATOM     11  H   UNL     1      31.941 -22.346 -19.288  0.00  0.00    +0.152 HD
ENDROOT
BRANCH   3  13
ATOM     12 CL   UNL     1      34.484 -23.670 -13.155  0.00  0.00    -0.081 Cl
ATOM     13  C   UNL     1      34.168 -22.865 -17.591  0.00  0.00    +0.025 C 
ATOM     14  C   UNL     1      33.034 -23.275 -16.885  0.00  0.00    +0.021 C 
ATOM     15  C   UNL     1      35.382 -22.708 -16.920  0.00  0.00    +0.001 C 
ATOM     16  C   UNL     1      33.116 -23.527 -15.515  0.00  0.00    +0.132 C 
ATOM     17  C   UNL     1      35.464 -22.961 -15.550  0.00  0.00    +0.013 C 
ATOM     18  C   UNL     1      34.331 -23.371 -14.848  0.00  0.00    +0.076 C 
BRANCH  16  19
ATOM     19  S   UNL     1      31.660 -24.042 -14.686  0.00  0.00    +0.058 S 
ATOM     20  O   UNL     1      31.866 -25.401 -14.212  0.00  0.00    -0.153 OA
ATOM     21  O   UNL     1      31.272 -22.996 -13.753  0.00  0.00    -0.153 OA
BRANCH  19  22
ATOM     22  N   UNL     1      30.547 -24.068 -15.981  0.00  0.00    -0.203 NA
ATOM     23  H   UNL     1      29.975 -23.224 -15.955  0.00  0.00    +0.144 HD
ATOM     24  H   UNL     1      29.948 -24.889 -15.898  0.00  0.00    +0.144 HD
ENDBRANCH  19  22
ENDBRANCH  16  19
ENDBRANCH   3  13
BRANCH   3  25
ATOM     25  O   UNL     1      34.217 -23.775 -19.856  0.00  0.00    -0.364 OA
ATOM     26  H   UNL     1      33.500 -23.820 -20.508  0.00  0.00    +0.213 HD
ENDBRANCH   3  25
TORSDOF 4
ENDMDL
MODEL 2
REMARK VINA RESULT:     -10.1      2.483      2.930
REMARK  Name = 688424
REMARK  4 active torsions:
REMARK  status: ('A' for Active; 'I' for Inactive)
REMARK    1  A    between atoms: C_3  and  C_13
REMARK    2  A    between atoms: C_3  and  O_25
REMARK    3  A    between atoms: C_16  and  S_19
REMARK    4  A    between atoms: S_19  and  N_22
REMARK                            x       y       z     vdW  Elec       q    Type
REMARK                         _______ _______ _______ _____ _____    ______ ____
ROOT
ATOM      1  O   UNL     1      32.145 -20.005 -20.526  0.00  0.00    -0.270 OA
ATOM      2  N   UNL     1      32.822 -21.984 -19.450  0.00  0.00    -0.276 N 
ATOM      3  C   UNL     1      34.080 -22.620 -19.070  0.00  0.00    +0.188 C 
ATOM      4  C   UNL     1      35.086 -21.607 -19.547  0.00  0.00    +0.028 C 
ATOM      5  C   UNL     1      34.436 -20.523 -20.142  0.00  0.00    +0.054 C 
ATOM      6  C   UNL     1      32.991 -20.761 -20.087  0.00  0.00    +0.248 C 
ATOM      7  C   UNL     1      36.469 -21.634 -19.481  0.00  0.00    +0.000 C 
ATOM      8  C   UNL     1      35.113 -19.443 -20.674  0.00  0.00    +0.004 C 
ATOM      9  C   UNL     1      37.178 -20.552 -20.012  0.00  0.00    -0.000 C 
ATOM     10  C   UNL     1      36.507 -19.466 -20.602  0.00  0.00    +0.000 C 
ATOM     11  H   UNL     1      31.939 -22.383 -19.270  0.00  0.00    +0.152 HD
ENDROOT
BRANCH   3  13
ATOM     12 CL   UNL     1      34.387 -23.803 -13.158  0.00  0.00    -0.081 Cl
ATOM     13  C   UNL     1      34.172 -22.918 -17.584  0.00  0.00    +0.025 C 
ATOM     14  C   UNL     1      35.419 -23.082 -16.977  0.00  0.00    +0.021 C 
ATOM     15  C   UNL     1      33.009 -23.029 -16.819  0.00  0.00    +0.001 C 
ATOM     16  C   UNL     1      35.502 -23.356 -15.611  0.00  0.00    +0.132 C 
ATOM     17  C   UNL     1      33.091 -23.302 -15.454  0.00  0.00    +0.013 C 
ATOM     18  C   UNL     1      34.338 -23.465 -14.850  0.00  0.00    +0.076 C 
BRANCH  16  19
ATOM     19  S   UNL     1      37.095 -23.549 -14.907  0.00  0.00    +0.058 S 
ATOM     20  O   UNL     1      37.194 -22.658 -13.762  0.00  0.00    -0.153 OA
ATOM     21  O   UNL     1      37.355 -24.971 -14.749  0.00  0.00    -0.153 OA
BRANCH  19  22
ATOM     22  N   UNL     1      38.076 -22.944 -16.167  0.00  0.00    -0.203 NA
ATOM     23  H   UNL     1      38.165 -23.651 -16.897  0.00  0.00    +0.144 HD
ATOM     24  H   UNL     1      39.000 -22.716 -15.799  0.00  0.00    +0.144 HD
ENDBRANCH  19  22
ENDBRANCH  16  19
ENDBRANCH   3  13
BRANCH   3  25
ATOM     25  O   UNL     1      34.221 -23.794 -19.863  0.00  0.00    -0.364 OA
ATOM     26  H   UNL     1      33.894 -23.621 -20.759  0.00  0.00    +0.213 HD
ENDBRANCH   3  25
TORSDOF 4
ENDMDL
MODEL 3
REMARK VINA RESULT:      -9.8      6.480      9.096
REMARK  Name = 688424
REMARK  4 active torsions:
REMARK  status: ('A' for Active; 'I' for Inactive)
REMARK    1  A    between atoms: C_3  and  C_13
REMARK    2  A    between atoms: C_3  and  O_25
REMARK    3  A    between atoms: C_16  and  S_19
REMARK    4  A    between atoms: S_19  and  N_22
REMARK                            x       y       z     vdW  Elec       q    Type
REMARK                         _______ _______ _______ _____ _____    ______ ____
ROOT
ATOM      1  O   UNL     1      37.959 -19.249 -21.047  0.00  0.00    -0.270 OA
ATOM      2  N   UNL     1      36.313 -18.060 -22.234  0.00  0.00    -0.276 N 
ATOM      3  C   UNL     1      34.859 -18.086 -22.365  0.00  0.00    +0.188 C 
ATOM      4  C   UNL     1      34.490 -19.198 -21.420  0.00  0.00    +0.028 C 
ATOM      5  C   UNL     1      35.639 -19.737 -20.836  0.00  0.00    +0.054 C 
ATOM      6  C   UNL     1      36.805 -19.017 -21.356  0.00  0.00    +0.248 C 
ATOM      7  C   UNL     1      33.245 -19.714 -21.103  0.00  0.00    +0.000 C 
ATOM      8  C   UNL     1      35.601 -20.777 -19.928  0.00  0.00    +0.004 C 
ATOM      9  C   UNL     1      33.179 -20.768 -20.186  0.00  0.00    -0.000 C 
ATOM     10  C   UNL     1      34.346 -21.294 -19.603  0.00  0.00    +0.000 C 
ATOM     11  H   UNL     1      36.888 -17.425 -22.720  0.00  0.00    +0.152 HD
ENDROOT
BRANCH   3  13
ATOM     12 CL   UNL     1      32.271 -12.815 -20.962  0.00  0.00    -0.081 Cl
ATOM     13  C   UNL     1      34.208 -16.757 -22.026  0.00  0.00    +0.025 C 
ATOM     14  C   UNL     1      33.914 -15.841 -23.039  0.00  0.00    +0.021 C 
ATOM     15  C   UNL     1      33.901 -16.445 -20.700  0.00  0.00    +0.001 C 
ATOM     16  C   UNL     1      33.317 -14.619 -22.726  0.00  0.00    +0.132 C 
ATOM     17  C   UNL     1      33.303 -15.225 -20.387  0.00  0.00    +0.013 C 
ATOM     18  C   UNL     1      33.011 -14.312 -21.401  0.00  0.00    +0.076 C 
BRANCH  16  19
ATOM     19  S   UNL     1      32.970 -13.513 -24.041  0.00  0.00    +0.058 S 
ATOM     20  O   UNL     1      33.142 -14.231 -25.293  0.00  0.00    -0.153 OA
ATOM     21  O   UNL     1      31.713 -12.841 -23.752  0.00  0.00    -0.153 OA
BRANCH  19  22
ATOM     22  N   UNL     1      34.249 -12.395 -23.862  0.00  0.00    -0.203 NA
ATOM     23  H   UNL     1      33.886 -11.523 -23.478  0.00  0.00    +0.144 HD
ATOM     24  H   UNL     1      34.674 -12.217 -24.772  0.00  0.00    +0.144 HD
ENDBRANCH  19  22
ENDBRANCH  16  19
ENDBRANCH   3  13
BRANCH   3  25
ATOM     25  O   UNL     1      34.558 -18.509 -23.690  0.00  0.00    -0.364 OA
ATOM     26  H   UNL     1      33.719 -18.115 -23.974  0.00  0.00    +0.213 HD
ENDBRANCH   3  25
TORSDOF 4
ENDMDL
MODEL 4
REMARK VINA RESULT:      -9.7      4.207      6.220
REMARK  Name = 688424
REMARK  4 active torsions:
REMARK  status: ('A' for Active; 'I' for Inactive)
REMARK    1  A    between atoms: C_3  and  C_13
REMARK    2  A    between atoms: C_3  and  O_25
REMARK    3  A    between atoms: C_16  and  S_19
REMARK    4  A    between atoms: S_19  and  N_22
REMARK                            x       y       z     vdW  Elec       q    Type
REMARK                         _______ _______ _______ _____ _____    ______ ____
ROOT
ATOM      1  O   UNL     1      34.224 -17.398 -25.802  0.00  0.00    -0.270 OA
ATOM      2  N   UNL     1      35.233 -18.465 -23.965  0.00  0.00    -0.276 N 
ATOM      3  C   UNL     1      35.528 -18.146 -22.570  0.00  0.00    +0.188 C 
ATOM      4  C   UNL     1      34.956 -16.759 -22.451  0.00  0.00    +0.028 C 
ATOM      5  C   UNL     1      34.409 -16.354 -23.671  0.00  0.00    +0.054 C 
ATOM      6  C   UNL     1      34.588 -17.438 -24.642  0.00  0.00    +0.248 C 
ATOM      7  C   UNL     1      34.927 -15.904 -21.361  0.00  0.00    +0.000 C 
ATOM      8  C   UNL     1      33.817 -15.120 -23.855  0.00  0.00    +0.004 C 
ATOM      9  C   UNL     1      34.332 -14.648 -21.522  0.00  0.00    -0.000 C 
ATOM     10  C   UNL     1      33.782 -14.260 -22.756  0.00  0.00    +0.000 C 
ATOM     11  H   UNL     1      35.468 -19.325 -24.383  0.00  0.00    +0.152 HD
ENDROOT
BRANCH   3  13
ATOM     12 CL   UNL     1      33.084 -22.086 -18.704  0.00  0.00    -0.081 Cl
ATOM     13  C   UNL     1      34.927 -19.140 -21.593  0.00  0.00    +0.025 C 
ATOM     14  C   UNL     1      35.755 -19.881 -20.747  0.00  0.00    +0.021 C 
ATOM     15  C   UNL     1      33.543 -19.318 -21.538  0.00  0.00    +0.001 C 
ATOM     16  C   UNL     1      35.201 -20.795 -19.850  0.00  0.00    +0.132 C 
ATOM     17  C   UNL     1      32.989 -20.230 -20.640  0.00  0.00    +0.013 C 
ATOM     18  C   UNL     1      33.819 -20.969 -19.796  0.00  0.00    +0.076 C 
BRANCH  16  19
ATOM     19  S   UNL     1      36.292 -21.692 -18.812  0.00  0.00    +0.058 S 
ATOM     20  O   UNL     1      35.493 -22.485 -17.893  0.00  0.00    -0.153 OA
ATOM     21  O   UNL     1      37.292 -22.335 -19.650  0.00  0.00    -0.153 OA
BRANCH  19  22
ATOM     22  N   UNL     1      37.031 -20.418 -17.948  0.00  0.00    -0.203 NA
ATOM     23  H   UNL     1      36.314 -19.863 -17.482  0.00  0.00    +0.144 HD
ATOM     24  H   UNL     1      37.554 -19.827 -18.595  0.00  0.00    +0.144 HD
ENDBRANCH  19  22
ENDBRANCH  16  19
ENDBRANCH   3  13
BRANCH   3  25
ATOM     25  O   UNL     1      36.943 -18.056 -22.444  0.00  0.00    -0.364 OA
ATOM     26  H   UNL     1      37.265 -18.780 -21.886  0.00  0.00    +0.213 HD
ENDBRANCH   3  25
TORSDOF 4
ENDMDL
MODEL 5
REMARK VINA RESULT:      -9.6      9.971     12.667
REMARK  Name = 688424
REMARK  4 active torsions:
REMARK  status: ('A' for Active; 'I' for Inactive)
REMARK    1  A    between atoms: C_3  and  C_13
REMARK    2  A    between atoms: C_3  and  O_25
REMARK    3  A    between atoms: C_16  and  S_19
REMARK    4  A    between atoms: S_19  and  N_22
REMARK                            x       y       z     vdW  Elec       q    Type
REMARK                         _______ _______ _______ _____ _____    ______ ____
ROOT
ATOM      1  O   UNL     1      34.197 -16.040 -25.879  0.00  0.00    -0.270 OA
ATOM      2  N   UNL     1      33.073 -14.109 -25.142  0.00  0.00    -0.276 N 
ATOM      3  C   UNL     1      32.833 -13.429 -23.873  0.00  0.00    +0.188 C 
ATOM      4  C   UNL     1      33.579 -14.314 -22.910  0.00  0.00    +0.028 C 
ATOM      5  C   UNL     1      34.163 -15.385 -23.591  0.00  0.00    +0.054 C 
ATOM      6  C   UNL     1      33.839 -15.261 -25.015  0.00  0.00    +0.248 C 
ATOM      7  C   UNL     1      33.726 -14.202 -21.538  0.00  0.00    +0.000 C 
ATOM      8  C   UNL     1      34.908 -16.360 -22.957  0.00  0.00    +0.004 C 
ATOM      9  C   UNL     1      34.476 -15.177 -20.872  0.00  0.00    -0.000 C 
ATOM     10  C   UNL     1      35.062 -16.245 -21.574  0.00  0.00    +0.000 C 
ATOM     11  H   UNL     1      32.727 -13.783 -26.004  0.00  0.00    +0.152 HD
ENDROOT
BRANCH   3  13
ATOM     12 CL   UNL     1      34.766  -7.710 -23.907  0.00  0.00    -0.081 Cl
ATOM     13  C   UNL     1      33.309 -11.988 -23.871  0.00  0.00    +0.025 C 
ATOM     14  C   UNL     1      32.710 -11.051 -23.026  0.00  0.00    +0.021 C 
ATOM     15  C   UNL     1      34.348 -11.592 -24.716  0.00  0.00    +0.001 C 
ATOM     16  C   UNL     1      33.148  -9.727 -23.025  0.00  0.00    +0.132 C 
ATOM     17  C   UNL     1      34.788 -10.269 -24.715  0.00  0.00    +0.013 C 
ATOM     18  C   UNL     1      34.187  -9.336 -23.870  0.00  0.00    +0.076 C 
BRANCH  16  19
ATOM     19  S   UNL     1      32.359  -8.599 -21.939  0.00  0.00    +0.058 S 
ATOM     20  O   UNL     1      33.388  -7.858 -21.231  0.00  0.00    -0.153 OA
ATOM     21  O   UNL     1      31.332  -7.890 -22.686  0.00  0.00    -0.153 OA
BRANCH  19  22
ATOM     22  N   UNL     1      31.605  -9.679 -20.852  0.00  0.00    -0.203 NA
ATOM     23  H   UNL     1      31.523 -10.598 -21.288  0.00  0.00    +0.144 HD
ATOM     24  H   UNL     1      30.676  -9.330 -20.616  0.00  0.00    +0.144 HD
ENDBRANCH  19  22
ENDBRANCH  16  19
ENDBRANCH   3  13
BRANCH   3  25
ATOM     25  O   UNL     1      31.442 -13.536 -23.589  0.00  0.00    -0.364 OA
ATOM     26  H   UNL     1      31.278 -14.337 -23.069  0.00  0.00    +0.213 HD
ENDBRANCH   3  25
TORSDOF 4
ENDMDL
MODEL 6
REMARK VINA RESULT:      -9.1      1.824      2.061
REMARK  Name = 688424
REMARK  4 active torsions:
REMARK  status: ('A' for Active; 'I' for Inactive)
REMARK    1  A    between atoms: C_3  and  C_13
REMARK    2  A    between atoms: C_3  and  O_25
REMARK    3  A    between atoms: C_16  and  S_19
REMARK    4  A    between atoms: S_19  and  N_22
REMARK                            x       y       z     vdW  Elec       q    Type
REMARK                         _______ _______ _______ _____ _____    ______ ____
ROOT
ATOM      1  O   UNL     1      31.970 -19.995 -20.021  0.00  0.00    -0.270 OA
ATOM      2  N   UNL     1      33.379 -21.728 -19.283  0.00  0.00    -0.276 N 
ATOM      3  C   UNL     1      34.805 -22.042 -19.329  0.00  0.00    +0.188 C 
ATOM      4  C   UNL     1      35.356 -20.838 -20.044  0.00  0.00    +0.028 C 
ATOM      5  C   UNL     1      34.325 -19.954 -20.369  0.00  0.00    +0.054 C 
ATOM      6  C   UNL     1      33.060 -20.520 -19.891  0.00  0.00    +0.248 C 
ATOM      7  C   UNL     1      36.661 -20.541 -20.400  0.00  0.00    +0.000 C 
ATOM      8  C   UNL     1      34.540 -18.763 -21.035  0.00  0.00    +0.004 C 
ATOM      9  C   UNL     1      36.906 -19.340 -21.075  0.00  0.00    -0.000 C 
ATOM     10  C   UNL     1      35.855 -18.460 -21.389  0.00  0.00    +0.000 C 
ATOM     11  H   UNL     1      32.710 -22.316 -18.863  0.00  0.00    +0.152 HD
ENDROOT
BRANCH   3  13
ATOM     12 CL   UNL     1      37.251 -22.892 -13.875  0.00  0.00    -0.081 Cl
ATOM     13  C   UNL     1      35.408 -22.264 -17.954  0.00  0.00    +0.025 C 
ATOM     14  C   UNL     1      34.707 -22.989 -16.988  0.00  0.00    +0.021 C 
ATOM     15  C   UNL     1      36.667 -21.742 -17.649  0.00  0.00    +0.001 C 
ATOM     16  C   UNL     1      35.262 -23.192 -15.724  0.00  0.00    +0.132 C 
ATOM     17  C   UNL     1      37.223 -21.945 -16.385  0.00  0.00    +0.013 C 
ATOM     18  C   UNL     1      36.520 -22.670 -15.423  0.00  0.00    +0.076 C 
BRANCH  16  19
ATOM     19  S   UNL     1      34.334 -24.113 -14.556  0.00  0.00    +0.058 S 
ATOM     20  O   UNL     1      34.583 -23.552 -13.238  0.00  0.00    -0.153 OA
ATOM     21  O   UNL     1      32.973 -24.236 -15.051  0.00  0.00    -0.153 OA
BRANCH  19  22
ATOM     22  N   UNL     1      35.103 -25.633 -14.667  0.00  0.00    -0.203 NA
ATOM     23  H   UNL     1      35.564 -25.846 -13.781  0.00  0.00    +0.144 HD
ATOM     24  H   UNL     1      35.796 -25.610 -15.415  0.00  0.00    +0.144 HD
ENDBRANCH  19  22
ENDBRANCH  16  19
ENDBRANCH   3  13
BRANCH   3  25
ATOM     25  O   UNL     1      34.965 -23.175 -20.175  0.00  0.00    -0.364 OA
ATOM     26  H   UNL     1      35.174 -22.881 -21.075  0.00  0.00    +0.213 HD
ENDBRANCH   3  25
TORSDOF 4
ENDMDL
MODEL 7
REMARK VINA RESULT:      -8.9      9.287     11.877
REMARK  Name = 688424
REMARK  4 active torsions:
REMARK  status: ('A' for Active; 'I' for Inactive)
REMARK    1  A    between atoms: C_3  and  C_13
REMARK    2  A    between atoms: C_3  and  O_25
REMARK    3  A    between atoms: C_16  and  S_19
REMARK    4  A    between atoms: S_19  and  N_22
REMARK                            x       y       z     vdW  Elec       q    Type
REMARK                         _______ _______ _______ _____ _____    ______ ____
ROOT
ATOM      1  O   UNL     1      32.005  -9.889 -18.357  0.00  0.00    -0.270 OA
ATOM      2  N   UNL     1      31.490 -11.369 -20.111  0.00  0.00    -0.276 N 
ATOM      3  C   UNL     1      31.464 -11.332 -21.570  0.00  0.00    +0.188 C 
ATOM      4  C   UNL     1      31.932  -9.928 -21.845  0.00  0.00    +0.028 C 
ATOM      5  C   UNL     1      32.179  -9.257 -20.645  0.00  0.00    +0.054 C 
ATOM      6  C   UNL     1      31.893 -10.171 -19.535  0.00  0.00    +0.248 C 
ATOM      7  C   UNL     1      32.115  -9.277 -23.053  0.00  0.00    +0.000 C 
ATOM      8  C   UNL     1      32.617  -7.948 -20.594  0.00  0.00    +0.004 C 
ATOM      9  C   UNL     1      32.559  -7.950 -23.029  0.00  0.00    -0.000 C 
ATOM     10  C   UNL     1      32.807  -7.292 -21.811  0.00  0.00    +0.000 C 
ATOM     11  H   UNL     1      31.245 -12.166 -19.586  0.00  0.00    +0.152 HD
ENDROOT
BRANCH   3  13
ATOM     12 CL   UNL     1      34.938 -15.546 -24.146  0.00  0.00    -0.081 Cl
ATOM     13  C   UNL     1      32.335 -12.401 -22.207  0.00  0.00    +0.025 C 
ATOM     14  C   UNL     1      32.561 -13.609 -21.544  0.00  0.00    +0.021 C 
ATOM     15  C   UNL     1      32.915 -12.178 -23.457  0.00  0.00    +0.001 C 
ATOM     16  C   UNL     1      33.362 -14.590 -22.129  0.00  0.00    +0.132 C 
ATOM     17  C   UNL     1      33.716 -13.159 -24.044  0.00  0.00    +0.013 C 
ATOM     18  C   UNL     1      33.938 -14.365 -23.379  0.00  0.00    +0.076 C 
BRANCH  16  19
ATOM     19  S   UNL     1      33.604 -16.087 -21.249  0.00  0.00    +0.058 S 
ATOM     20  O   UNL     1      32.379 -16.392 -20.529  0.00  0.00    -0.153 OA
ATOM     21  O   UNL     1      34.176 -17.064 -22.162  0.00  0.00    -0.153 OA
BRANCH  19  22
ATOM     22  N   UNL     1      34.802 -15.608 -20.130  0.00  0.00    -0.203 NA
ATOM     23  H   UNL     1      35.412 -14.913 -20.562  0.00  0.00    +0.144 HD
ATOM     24  H   UNL     1      35.352 -16.420 -19.853  0.00  0.00    +0.144 HD
ENDBRANCH  19  22
ENDBRANCH  16  19
ENDBRANCH   3  13
BRANCH   3  25
ATOM     25  O   UNL     1      30.104 -11.436 -21.976  0.00  0.00    -0.364 OA
ATOM     26  H   UNL     1      29.738 -10.548 -22.112  0.00  0.00    +0.213 HD
ENDBRANCH   3  25
TORSDOF 4
ENDMDL
MODEL 8
REMARK VINA RESULT:      -8.9      3.995      6.450
REMARK  Name = 688424
REMARK  4 active torsions:
REMARK  status: ('A' for Active; 'I' for Inactive)
REMARK    1  A    between atoms: C_3  and  C_13
REMARK    2  A    between atoms: C_3  and  O_25
REMARK    3  A    between atoms: C_16  and  S_19
REMARK    4  A    between atoms: S_19  and  N_22
REMARK                            x       y       z     vdW  Elec       q    Type
REMARK                         _______ _______ _______ _____ _____    ______ ____
ROOT
ATOM      1  O   UNL     1      37.118 -26.872 -12.023  0.00  0.00    -0.270 OA
ATOM      2  N   UNL     1      35.784 -24.981 -12.448  0.00  0.00    -0.276 N 
ATOM      3  C   UNL     1      35.813 -23.830 -13.347  0.00  0.00    +0.188 C 
ATOM      4  C   UNL     1      37.066 -24.096 -14.138  0.00  0.00    +0.028 C 
ATOM      5  C   UNL     1      37.671 -25.278 -13.703  0.00  0.00    +0.054 C 
ATOM      6  C   UNL     1      36.860 -25.844 -12.621  0.00  0.00    +0.248 C 
ATOM      7  C   UNL     1      37.645 -23.355 -15.154  0.00  0.00    +0.000 C 
ATOM      8  C   UNL     1      38.841 -25.766 -14.250  0.00  0.00    +0.004 C 
ATOM      9  C   UNL     1      38.831 -23.828 -15.725  0.00  0.00    -0.000 C 
ATOM     10  C   UNL     1      39.423 -25.023 -15.278  0.00  0.00    +0.000 C 
ATOM     11  H   UNL     1      35.072 -25.131 -11.785  0.00  0.00    +0.152 HD
ENDROOT
BRANCH   3  13
ATOM     12 CL   UNL     1      30.816 -23.375 -16.705  0.00  0.00    -0.081 Cl
ATOM     13  C   UNL     1      34.565 -23.714 -14.203  0.00  0.00    +0.025 C 
ATOM     14  C   UNL     1      34.673 -23.442 -15.569  0.00  0.00    +0.021 C 
ATOM     15  C   UNL     1      33.303 -23.877 -13.627  0.00  0.00    +0.001 C 
ATOM     16  C   UNL     1      33.525 -23.335 -16.355  0.00  0.00    +0.132 C 
ATOM     17  C   UNL     1      32.155 -23.770 -14.413  0.00  0.00    +0.013 C 
ATOM     18  C   UNL     1      32.267 -23.499 -15.776  0.00  0.00    +0.076 C 
BRANCH  16  19
ATOM     19  S   UNL     1      33.727 -22.996 -18.063  0.00  0.00    +0.058 S 
ATOM     20  O   UNL     1      33.691 -24.259 -18.781  0.00  0.00    -0.153 OA
ATOM     21  O   UNL     1      32.813 -21.924 -18.425  0.00  0.00    -0.153 OA
BRANCH  19  22
ATOM     22  N   UNL     1      35.324 -22.391 -18.081  0.00  0.00    -0.203 NA
ATOM     23  H   UNL     1      35.979 -23.158 -17.930  0.00  0.00    +0.144 HD
ATOM     24  H   UNL     1      35.433 -21.697 -17.341  0.00  0.00    +0.144 HD
ENDBRANCH  19  22
ENDBRANCH  16  19
ENDBRANCH   3  13
BRANCH   3  25
ATOM     25  O   UNL     1      36.028 -22.672 -12.549  0.00  0.00    -0.364 OA
ATOM     26  H   UNL     1      35.522 -21.929 -12.913  0.00  0.00    +0.213 HD
ENDBRANCH   3  25
TORSDOF 4
ENDMDL
MODEL 9
REMARK VINA RESULT:      -8.8      3.680      5.860
REMARK  Name = 688424
REMARK  4 active torsions:
REMARK  status: ('A' for Active; 'I' for Inactive)
REMARK    1  A    between atoms: C_3  and  C_13
REMARK    2  A    between atoms: C_3  and  O_25
REMARK    3  A    between atoms: C_16  and  S_19
REMARK    4  A    between atoms: S_19  and  N_22
REMARK                            x       y       z     vdW  Elec       q    Type
REMARK                         _______ _______ _______ _____ _____    ______ ____
ROOT
ATOM      1  O   UNL     1      37.306 -22.709 -12.265  0.00  0.00    -0.270 OA
ATOM      2  N   UNL     1      36.265 -22.540 -14.368  0.00  0.00    -0.276 N 
ATOM      3  C   UNL     1      35.909 -23.439 -15.462  0.00  0.00    +0.188 C 
ATOM      4  C   UNL     1      36.381 -24.765 -14.929  0.00  0.00    +0.028 C 
ATOM      5  C   UNL     1      36.954 -24.602 -13.665  0.00  0.00    +0.054 C 
ATOM      6  C   UNL     1      36.887 -23.183 -13.305  0.00  0.00    +0.248 C 
ATOM      7  C   UNL     1      36.330 -26.021 -15.510  0.00  0.00    +0.000 C 
ATOM      8  C   UNL     1      37.477 -25.653 -12.938  0.00  0.00    +0.004 C 
ATOM      9  C   UNL     1      36.853 -27.103 -14.793  0.00  0.00    -0.000 C 
ATOM     10  C   UNL     1      37.420 -26.921 -13.519  0.00  0.00    +0.000 C 
ATOM     11  H   UNL     1      36.083 -21.572 -14.383  0.00  0.00    +0.152 HD
ENDROOT
BRANCH   3  13
ATOM     12 CL   UNL     1      30.034 -23.298 -16.845  0.00  0.00    -0.081 Cl
ATOM     13  C   UNL     1      34.428 -23.409 -15.797  0.00  0.00    +0.025 C 
ATOM     14  C   UNL     1      33.493 -23.909 -14.889  0.00  0.00    +0.021 C 
ATOM     15  C   UNL     1      33.996 -22.882 -17.016  0.00  0.00    +0.001 C 
ATOM     16  C   UNL     1      32.133 -23.882 -15.197  0.00  0.00    +0.132 C 
ATOM     17  C   UNL     1      32.636 -22.854 -17.325  0.00  0.00    +0.013 C 
ATOM     18  C   UNL     1      31.705 -23.354 -16.415  0.00  0.00    +0.076 C 
BRANCH  16  19
ATOM     19  S   UNL     1      31.008 -24.522 -14.015  0.00  0.00    +0.058 S 
ATOM     20  O   UNL     1      30.390 -23.401 -13.326  0.00  0.00    -0.153 OA
ATOM     21  O   UNL     1      30.179 -25.523 -14.669  0.00  0.00    -0.153 OA
BRANCH  19  22
ATOM     22  N   UNL     1      32.083 -25.307 -12.945  0.00  0.00    -0.203 NA
ATOM     23  H   UNL     1      31.573 -25.617 -12.118  0.00  0.00    +0.144 HD
ATOM     24  H   UNL     1      32.821 -24.660 -12.669  0.00  0.00    +0.144 HD
ENDBRANCH  19  22
ENDBRANCH  16  19
ENDBRANCH   3  13
BRANCH   3  25
ATOM     25  O   UNL     1      36.720 -23.094 -16.580  0.00  0.00    -0.364 OA
ATOM     26  H   UNL     1      37.564 -22.732 -16.268  0.00  0.00    +0.213 HD
ENDBRANCH   3  25
TORSDOF 4
ENDMDL
