MODEL 1
REMARK VINA RESULT:      -5.5      0.000      0.000
REMARK  Name = 743
REMARK  6 active torsions:
REMARK  status: ('A' for Active; 'I' for Inactive)
REMARK    1  A    between atoms: C_1  and  C_2
REMARK    2  A    between atoms: C_1  and  C_7
REMARK    3  A    between atoms: C_2  and  C_4
REMARK    4  A    between atoms: C_4  and  O_5
REMARK    5  A    between atoms: C_7  and  C_9
REMARK    6  A    between atoms: C_9  and  O_10
REMARK                            x       y       z     vdW  Elec       q    Type
REMARK                         _______ _______ _______ _____ _____    ______ ____
ROOT
ATOM      1  C   UNL     1      38.086 -25.720 -13.476  0.00  0.00    +0.023 C 
ENDROOT
BRANCH   1   2
ATOM      2  C   UNL     1      39.141 -25.000 -14.318  0.00  0.00    +0.110 C 
BRANCH   2   4
ATOM      3  O   UNL     1      40.984 -26.536 -13.906  0.00  0.00    -0.250 OA
ATOM      4  C   UNL     1      40.283 -25.914 -14.693  0.00  0.00    +0.314 C 
BRANCH   4   5
ATOM      5  O   UNL     1      40.449 -25.975 -16.040  0.00  0.00    -0.480 OA
ATOM      6  H   UNL     1      40.641 -26.795 -16.452  0.00  0.00    +0.295 HD
ENDBRANCH   4   5
ENDBRANCH   2   4
ENDBRANCH   1   2
BRANCH   1   7
ATOM      7  C   UNL     1      37.487 -26.926 -14.194  0.00  0.00    +0.110 C 
BRANCH   7   9
ATOM      8  O   UNL     1      35.889 -25.557 -15.382  0.00  0.00    -0.250 OA
ATOM      9  C   UNL     1      36.635 -26.528 -15.373  0.00  0.00    +0.314 C 
BRANCH   9  10
ATOM     10  O   UNL     1      36.786 -27.363 -16.432  0.00  0.00    -0.480 OA
ATOM     11  H   UNL     1      37.488 -27.229 -17.038  0.00  0.00    +0.295 HD
ENDBRANCH   9  10
ENDBRANCH   7   9
ENDBRANCH   1   7
TORSDOF 6
ENDMDL
MODEL 2
REMARK VINA RESULT:      -5.4      2.687      4.169
REMARK  Name = 743
REMARK  6 active torsions:
REMARK  status: ('A' for Active; 'I' for Inactive)
REMARK    1  A    between atoms: C_1  and  C_2
REMARK    2  A    between atoms: C_1  and  C_7
REMARK    3  A    between atoms: C_2  and  C_4
REMARK    4  A    between atoms: C_4  and  O_5
REMARK    5  A    between atoms: C_7  and  C_9
REMARK    6  A    between atoms: C_9  and  O_10
REMARK                            x       y       z     vdW  Elec       q    Type
REMARK                         _______ _______ _______ _____ _____    ______ ____
ROOT
ATOM      1  C   UNL     1      38.443 -25.705 -13.024  0.00  0.00    +0.023 C 
ENDROOT
BRANCH   1   2
ATOM      2  C   UNL     1      37.346 -24.656 -12.839  0.00  0.00    +0.110 C 
BRANCH   2   4
ATOM      3  O   UNL     1      38.498 -22.869 -11.654  0.00  0.00    -0.250 OA
ATOM      4  C   UNL     1      37.636 -23.737 -11.676  0.00  0.00    +0.314 C 
BRANCH   4   5
ATOM      5  O   UNL     1      36.808 -23.986 -10.627  0.00  0.00    -0.480 OA
ATOM      6  H   UNL     1      36.331 -24.791 -10.589  0.00  0.00    +0.295 HD
ENDBRANCH   4   5
ENDBRANCH   2   4
ENDBRANCH   1   2
BRANCH   1   7
ATOM      7  C   UNL     1      38.753 -25.974 -14.494  0.00  0.00    +0.110 C 
BRANCH   7   9
ATOM      8  O   UNL     1      40.828 -24.773 -14.196  0.00  0.00    -0.250 OA
ATOM      9  C   UNL     1      40.131 -25.504 -14.888  0.00  0.00    +0.314 C 
BRANCH   9  10
ATOM     10  O   UNL     1      40.521 -25.982 -16.096  0.00  0.00    -0.480 OA
ATOM     11  H   UNL     1      39.890 -26.360 -16.675  0.00  0.00    +0.295 HD
ENDBRANCH   9  10
ENDBRANCH   7   9
ENDBRANCH   1   7
TORSDOF 6
ENDMDL
MODEL 3
REMARK VINA RESULT:      -5.3      2.635      3.448
REMARK  Name = 743
REMARK  6 active torsions:
REMARK  status: ('A' for Active; 'I' for Inactive)
REMARK    1  A    between atoms: C_1  and  C_2
REMARK    2  A    between atoms: C_1  and  C_7
REMARK    3  A    between atoms: C_2  and  C_4
REMARK    4  A    between atoms: C_4  and  O_5
REMARK    5  A    between atoms: C_7  and  C_9
REMARK    6  A    between atoms: C_9  and  O_10
REMARK                            x       y       z     vdW  Elec       q    Type
REMARK                         _______ _______ _______ _____ _____    ______ ____
ROOT
ATOM      1  C   UNL     1      38.293 -25.737 -13.208  0.00  0.00    +0.023 C 
ENDROOT
BRANCH   1   2
ATOM      2  C   UNL     1      38.635 -25.555 -14.689  0.00  0.00    +0.110 C 
BRANCH   2   4
ATOM      3  O   UNL     1      40.874 -24.748 -14.178  0.00  0.00    -0.250 OA
ATOM      4  C   UNL     1      40.119 -25.377 -14.906  0.00  0.00    +0.314 C 
BRANCH   4   5
ATOM      5  O   UNL     1      40.536 -26.014 -16.032  0.00  0.00    -0.480 OA
ATOM      6  H   UNL     1      41.432 -26.271 -16.120  0.00  0.00    +0.295 HD
ENDBRANCH   4   5
ENDBRANCH   2   4
ENDBRANCH   1   2
BRANCH   1   7
ATOM      7  C   UNL     1      37.203 -24.779 -12.738  0.00  0.00    +0.110 C 
BRANCH   7   9
ATOM      8  O   UNL     1      38.666 -23.145 -11.725  0.00  0.00    -0.250 OA
ATOM      9  C   UNL     1      37.678 -23.862 -11.638  0.00  0.00    +0.314 C 
BRANCH   9  10
ATOM     10  O   UNL     1      36.888 -23.914 -10.537  0.00  0.00    -0.480 OA
ATOM     11  H   UNL     1      36.103 -23.404 -10.499  0.00  0.00    +0.295 HD
ENDBRANCH   9  10
ENDBRANCH   7   9
ENDBRANCH   1   7
TORSDOF 6
ENDMDL
MODEL 4
REMARK VINA RESULT:      -5.3      0.835      3.882
REMARK  Name = 743
REMARK  6 active torsions:
REMARK  status: ('A' for Active; 'I' for Inactive)
REMARK    1  A    between atoms: C_1  and  C_2
REMARK    2  A    between atoms: C_1  and  C_7
REMARK    3  A    between atoms: C_2  and  C_4
REMARK    4  A    between atoms: C_4  and  O_5
REMARK    5  A    between atoms: C_7  and  C_9
REMARK    6  A    between atoms: C_9  and  O_10
REMARK                            x       y       z     vdW  Elec       q    Type
REMARK                         _______ _______ _______ _____ _____    ______ ____
ROOT
ATOM      1  C   UNL     1      38.267 -25.963 -13.403  0.00  0.00    +0.023 C 
ENDROOT
BRANCH   1   2
ATOM      2  C   UNL     1      37.044 -25.139 -13.811  0.00  0.00    +0.110 C 
BRANCH   2   4
ATOM      3  O   UNL     1      35.571 -25.031 -15.745  0.00  0.00    -0.250 OA
ATOM      4  C   UNL     1      36.525 -25.538 -15.172  0.00  0.00    +0.314 C 
BRANCH   4   5
ATOM      5  O   UNL     1      37.257 -26.550 -15.706  0.00  0.00    -0.480 OA
ATOM      6  H   UNL     1      38.092 -26.768 -15.340  0.00  0.00    +0.295 HD
ENDBRANCH   4   5
ENDBRANCH   2   4
ENDBRANCH   1   2
BRANCH   1   7
ATOM      7  C   UNL     1      39.581 -25.247 -13.702  0.00  0.00    +0.110 C 
BRANCH   7   9
ATOM      8  O   UNL     1      41.351 -26.828 -14.151  0.00  0.00    -0.250 OA
ATOM      9  C   UNL     1      40.496 -26.064 -14.579  0.00  0.00    +0.314 C 
BRANCH   9  10
ATOM     10  O   UNL     1      40.267 -25.864 -15.901  0.00  0.00    -0.480 OA
ATOM     11  H   UNL     1      40.988 -25.773 -16.492  0.00  0.00    +0.295 HD
ENDBRANCH   9  10
ENDBRANCH   7   9
ENDBRANCH   1   7
TORSDOF 6
ENDMDL
MODEL 5
REMARK VINA RESULT:      -5.3      3.163      4.585
REMARK  Name = 743
REMARK  6 active torsions:
REMARK  status: ('A' for Active; 'I' for Inactive)
REMARK    1  A    between atoms: C_1  and  C_2
REMARK    2  A    between atoms: C_1  and  C_7
REMARK    3  A    between atoms: C_2  and  C_4
REMARK    4  A    between atoms: C_4  and  O_5
REMARK    5  A    between atoms: C_7  and  C_9
REMARK    6  A    between atoms: C_9  and  O_10
REMARK                            x       y       z     vdW  Elec       q    Type
REMARK                         _______ _______ _______ _____ _____    ______ ____
ROOT
ATOM      1  C   UNL     1      37.062 -24.033 -12.980  0.00  0.00    +0.023 C 
ENDROOT
BRANCH   1   2
ATOM      2  C   UNL     1      36.793 -23.631 -11.529  0.00  0.00    +0.110 C 
BRANCH   2   4
ATOM      3  O   UNL     1      35.406 -24.524  -9.739  0.00  0.00    -0.250 OA
ATOM      4  C   UNL     1      35.642 -24.407 -10.933  0.00  0.00    +0.314 C 
BRANCH   4   5
ATOM      5  O   UNL     1      34.873 -24.974 -11.899  0.00  0.00    -0.480 OA
ATOM      6  H   UNL     1      35.063 -24.815 -12.803  0.00  0.00    +0.295 HD
ENDBRANCH   4   5
ENDBRANCH   2   4
ENDBRANCH   1   2
BRANCH   1   7
ATOM      7  C   UNL     1      38.256 -24.975 -13.113  0.00  0.00    +0.110 C 
BRANCH   7   9
ATOM      8  O   UNL     1      38.470 -26.841 -14.632  0.00  0.00    -0.250 OA
ATOM      9  C   UNL     1      37.874 -26.308 -13.705  0.00  0.00    +0.314 C 
BRANCH   9  10
ATOM     10  O   UNL     1      36.796 -26.861 -13.095  0.00  0.00    -0.480 OA
ATOM     11  H   UNL     1      36.109 -26.312 -12.771  0.00  0.00    +0.295 HD
ENDBRANCH   9  10
ENDBRANCH   7   9
ENDBRANCH   1   7
TORSDOF 6
ENDMDL
MODEL 6
REMARK VINA RESULT:      -5.2      3.008      4.035
REMARK  Name = 743
REMARK  6 active torsions:
REMARK  status: ('A' for Active; 'I' for Inactive)
REMARK    1  A    between atoms: C_1  and  C_2
REMARK    2  A    between atoms: C_1  and  C_7
REMARK    3  A    between atoms: C_2  and  C_4
REMARK    4  A    between atoms: C_4  and  O_5
REMARK    5  A    between atoms: C_7  and  C_9
REMARK    6  A    between atoms: C_9  and  O_10
REMARK                            x       y       z     vdW  Elec       q    Type
REMARK                         _______ _______ _______ _____ _____    ______ ____
ROOT
ATOM      1  C   UNL     1      37.996 -24.409 -12.095  0.00  0.00    +0.023 C 
ENDROOT
BRANCH   1   2
ATOM      2  C   UNL     1      37.806 -24.785 -13.566  0.00  0.00    +0.110 C 
BRANCH   2   4
ATOM      3  O   UNL     1      38.343 -26.930 -14.583  0.00  0.00    -0.250 OA
ATOM      4  C   UNL     1      37.716 -26.280 -13.758  0.00  0.00    +0.314 C 
BRANCH   4   5
ATOM      5  O   UNL     1      36.837 -26.841 -12.885  0.00  0.00    -0.480 OA
ATOM      6  H   UNL     1      37.041 -27.658 -12.476  0.00  0.00    +0.295 HD
ENDBRANCH   4   5
ENDBRANCH   2   4
ENDBRANCH   1   2
BRANCH   1   7
ATOM      7  C   UNL     1      36.911 -23.462 -11.589  0.00  0.00    +0.110 C 
BRANCH   7   9
ATOM      8  O   UNL     1      35.406 -25.137 -10.715  0.00  0.00    -0.250 OA
ATOM      9  C   UNL     1      35.580 -24.150 -11.418  0.00  0.00    +0.314 C 
BRANCH   9  10
ATOM     10  O   UNL     1      34.589 -23.554 -12.126  0.00  0.00    -0.480 OA
ATOM     11  H   UNL     1      34.647 -23.501 -13.060  0.00  0.00    +0.295 HD
ENDBRANCH   9  10
ENDBRANCH   7   9
ENDBRANCH   1   7
TORSDOF 6
ENDMDL
MODEL 7
REMARK VINA RESULT:      -5.1      2.462      4.021
REMARK  Name = 743
REMARK  6 active torsions:
REMARK  status: ('A' for Active; 'I' for Inactive)
REMARK    1  A    between atoms: C_1  and  C_2
REMARK    2  A    between atoms: C_1  and  C_7
REMARK    3  A    between atoms: C_2  and  C_4
REMARK    4  A    between atoms: C_4  and  O_5
REMARK    5  A    between atoms: C_7  and  C_9
REMARK    6  A    between atoms: C_9  and  O_10
REMARK                            x       y       z     vdW  Elec       q    Type
REMARK                         _______ _______ _______ _____ _____    ______ ____
ROOT
ATOM      1  C   UNL     1      38.122 -25.769 -13.075  0.00  0.00    +0.023 C 
ENDROOT
BRANCH   1   2
ATOM      2  C   UNL     1      37.150 -26.740 -13.749  0.00  0.00    +0.110 C 
BRANCH   2   4
ATOM      3  O   UNL     1      36.704 -27.266 -16.084  0.00  0.00    -0.250 OA
ATOM      4  C   UNL     1      36.994 -26.446 -15.223  0.00  0.00    +0.314 C 
BRANCH   4   5
ATOM      5  O   UNL     1      37.214 -25.133 -15.494  0.00  0.00    -0.480 OA
ATOM      6  H   UNL     1      36.656 -24.679 -16.094  0.00  0.00    +0.295 HD
ENDBRANCH   4   5
ENDBRANCH   2   4
ENDBRANCH   1   2
BRANCH   1   7
ATOM      7  C   UNL     1      37.445 -24.906 -12.015  0.00  0.00    +0.110 C 
BRANCH   7   9
ATOM      8  O   UNL     1      37.577 -22.977 -13.464  0.00  0.00    -0.250 OA
ATOM      9  C   UNL     1      37.533 -23.433 -12.329  0.00  0.00    +0.314 C 
BRANCH   9  10
ATOM     10  O   UNL     1      37.556 -22.662 -11.213  0.00  0.00    -0.480 OA
ATOM     11  H   UNL     1      38.374 -22.368 -10.864  0.00  0.00    +0.295 HD
ENDBRANCH   9  10
ENDBRANCH   7   9
ENDBRANCH   1   7
TORSDOF 6
ENDMDL
MODEL 8
REMARK VINA RESULT:      -5.1     11.470     12.367
REMARK  Name = 743
REMARK  6 active torsions:
REMARK  status: ('A' for Active; 'I' for Inactive)
REMARK    1  A    between atoms: C_1  and  C_2
REMARK    2  A    between atoms: C_1  and  C_7
REMARK    3  A    between atoms: C_2  and  C_4
REMARK    4  A    between atoms: C_4  and  O_5
REMARK    5  A    between atoms: C_7  and  C_9
REMARK    6  A    between atoms: C_9  and  O_10
REMARK                            x       y       z     vdW  Elec       q    Type
REMARK                         _______ _______ _______ _____ _____    ______ ____
ROOT
ATOM      1  C   UNL     1      35.409 -18.955 -23.549  0.00  0.00    +0.023 C 
ENDROOT
BRANCH   1   2
ATOM      2  C   UNL     1      34.780 -19.255 -22.187  0.00  0.00    +0.110 C 
BRANCH   2   4
ATOM      3  O   UNL     1      36.410 -19.284 -20.379  0.00  0.00    -0.250 OA
ATOM      4  C   UNL     1      35.591 -18.674 -21.053  0.00  0.00    +0.314 C 
BRANCH   4   5
ATOM      5  O   UNL     1      35.304 -17.360 -20.859  0.00  0.00    -0.480 OA
ATOM      6  H   UNL     1      35.380 -16.986 -20.003  0.00  0.00    +0.295 HD
ENDBRANCH   4   5
ENDBRANCH   2   4
ENDBRANCH   1   2
BRANCH   1   7
ATOM      7  C   UNL     1      34.435 -18.272 -24.505  0.00  0.00    +0.110 C 
BRANCH   7   9
ATOM      8  O   UNL     1      34.579 -16.300 -25.894  0.00  0.00    -0.250 OA
ATOM      9  C   UNL     1      34.850 -16.861 -24.840  0.00  0.00    +0.314 C 
BRANCH   9  10
ATOM     10  O   UNL     1      35.558 -16.274 -23.842  0.00  0.00    -0.480 OA
ATOM     11  H   UNL     1      36.208 -16.764 -23.379  0.00  0.00    +0.295 HD
ENDBRANCH   9  10
ENDBRANCH   7   9
ENDBRANCH   1   7
TORSDOF 6
ENDMDL
MODEL 9
REMARK VINA RESULT:      -5.0     10.848     11.943
REMARK  Name = 743
REMARK  6 active torsions:
REMARK  status: ('A' for Active; 'I' for Inactive)
REMARK    1  A    between atoms: C_1  and  C_2
REMARK    2  A    between atoms: C_1  and  C_7
REMARK    3  A    between atoms: C_2  and  C_4
REMARK    4  A    between atoms: C_4  and  O_5
REMARK    5  A    between atoms: C_7  and  C_9
REMARK    6  A    between atoms: C_9  and  O_10
REMARK                            x       y       z     vdW  Elec       q    Type
REMARK                         _______ _______ _______ _____ _____    ______ ____
ROOT
ATOM      1  C   UNL     1      41.425 -14.329 -17.437  0.00  0.00    +0.023 C 
ENDROOT
BRANCH   1   2
ATOM      2  C   UNL     1      41.685 -13.779 -16.033  0.00  0.00    +0.110 C 
BRANCH   2   4
ATOM      3  O   UNL     1      40.651 -14.097 -13.852  0.00  0.00    -0.250 OA
ATOM      4  C   UNL     1      40.871 -14.502 -14.986  0.00  0.00    +0.314 C 
BRANCH   4   5
ATOM      5  O   UNL     1      40.393 -15.684 -15.456  0.00  0.00    -0.480 OA
ATOM      6  H   UNL     1      39.470 -15.836 -15.488  0.00  0.00    +0.295 HD
ENDBRANCH   4   5
ENDBRANCH   2   4
ENDBRANCH   1   2
BRANCH   1   7
ATOM      7  C   UNL     1      42.671 -14.951 -18.061  0.00  0.00    +0.110 C 
BRANCH   7   9
ATOM      8  O   UNL     1      42.077 -17.189 -17.374  0.00  0.00    -0.250 OA
ATOM      9  C   UNL     1      42.550 -16.445 -18.223  0.00  0.00    +0.314 C 
BRANCH   9  10
ATOM     10  O   UNL     1      43.020 -16.880 -19.419  0.00  0.00    -0.480 OA
ATOM     11  H   UNL     1      43.800 -17.398 -19.455  0.00  0.00    +0.295 HD
ENDBRANCH   9  10
ENDBRANCH   7   9
ENDBRANCH   1   7
TORSDOF 6
ENDMDL
