MODEL 1
REMARK VINA RESULT:     -10.7      0.000      0.000
REMARK  Name = 3261
REMARK  1 active torsions:
REMARK  status: ('A' for Active; 'I' for Inactive)
REMARK    1  A    between atoms: C_8  and  C_16
REMARK                            x       y       z     vdW  Elec       q    Type
REMARK                         _______ _______ _______ _____ _____    ______ ____
ROOT
ATOM      1 CL   UNL     1      31.574 -12.117 -19.890  0.00  0.00    -0.082 Cl
ATOM      2  N   UNL     1      33.967 -15.690 -23.976  0.00  0.00    -0.233 N 
ATOM      3  N   UNL     1      33.255 -13.379 -25.837  0.00  0.00    -0.262 NA
ATOM      4  N   UNL     1      34.326 -16.686 -25.909  0.00  0.00    -0.133 NA
ATOM      5  N   UNL     1      34.983 -17.395 -24.932  0.00  0.00    -0.128 NA
ATOM      6  C   UNL     1      33.471 -14.784 -23.014  0.00  0.00    +0.060 C 
ATOM      7  C   UNL     1      33.083 -13.474 -23.357  0.00  0.00    +0.032 C 
ATOM      8  C   UNL     1      33.393 -12.830 -24.678  0.00  0.00    +0.078 C 
ATOM      9  C   UNL     1      33.699 -15.686 -25.326  0.00  0.00    +0.164 C 
ATOM     10  C   UNL     1      32.754 -14.734 -25.950  0.00  0.00    +0.189 C 
ATOM     11  C   UNL     1      33.329 -15.227 -21.688  0.00  0.00    +0.016 C 
ATOM     12  C   UNL     1      32.477 -12.665 -22.380  0.00  0.00    +0.014 C 
ATOM     13  C   UNL     1      34.739 -16.807 -23.783  0.00  0.00    +0.196 C 
ATOM     14  C   UNL     1      32.748 -14.400 -20.726  0.00  0.00    +0.013 C 
ATOM     15  C   UNL     1      32.308 -13.127 -21.075  0.00  0.00    +0.058 C 
ENDROOT
BRANCH   8  16
ATOM     16  C   UNL     1      33.941 -11.441 -24.672  0.00  0.00    +0.017 C 
ATOM     17  C   UNL     1      33.444 -10.514 -23.767  0.00  0.00    +0.001 C 
ATOM     18  C   UNL     1      34.940 -11.097 -25.571  0.00  0.00    +0.001 C 
ATOM     19  C   UNL     1      33.955  -9.217 -23.760  0.00  0.00    +0.000 C 
ATOM     20  C   UNL     1      35.452  -9.799 -25.566  0.00  0.00    +0.000 C 
ATOM     21  C   UNL     1      34.960  -8.859 -24.660  0.00  0.00    +0.000 C 
ENDBRANCH   8  16
TORSDOF 1
ENDMDL
MODEL 2
REMARK VINA RESULT:     -10.0     10.624     13.723
REMARK  Name = 3261
REMARK  1 active torsions:
REMARK  status: ('A' for Active; 'I' for Inactive)
REMARK    1  A    between atoms: C_8  and  C_16
REMARK                            x       y       z     vdW  Elec       q    Type
REMARK                         _______ _______ _______ _____ _____    ______ ____
ROOT
ATOM      1 CL   UNL     1      31.486 -23.949 -13.875  0.00  0.00    -0.082 Cl
ATOM      2  N   UNL     1      35.135 -22.343 -18.267  0.00  0.00    -0.233 N 
ATOM      3  N   UNL     1      37.218 -22.451 -16.038  0.00  0.00    -0.262 NA
ATOM      4  N   UNL     1      36.816 -21.387 -19.324  0.00  0.00    -0.133 NA
ATOM      5  N   UNL     1      35.913 -21.826 -20.262  0.00  0.00    -0.128 NA
ATOM      6  C   UNL     1      34.308 -22.807 -17.221  0.00  0.00    +0.060 C 
ATOM      7  C   UNL     1      34.825 -23.127 -15.951  0.00  0.00    +0.032 C 
ATOM      8  C   UNL     1      36.292 -23.263 -15.655  0.00  0.00    +0.078 C 
ATOM      9  C   UNL     1      36.332 -21.675 -18.135  0.00  0.00    +0.164 C 
ATOM     10  C   UNL     1      36.884 -21.277 -16.821  0.00  0.00    +0.189 C 
ATOM     11  C   UNL     1      32.927 -22.913 -17.456  0.00  0.00    +0.016 C 
ATOM     12  C   UNL     1      33.934 -23.460 -14.916  0.00  0.00    +0.014 C 
ATOM     13  C   UNL     1      34.904 -22.367 -19.617  0.00  0.00    +0.196 C 
ATOM     14  C   UNL     1      32.060 -23.270 -16.423  0.00  0.00    +0.013 C 
ATOM     15  C   UNL     1      32.560 -23.527 -15.151  0.00  0.00    +0.058 C 
ENDROOT
BRANCH   8  16
ATOM     16  C   UNL     1      36.745 -24.453 -14.876  0.00  0.00    +0.017 C 
ATOM     17  C   UNL     1      36.439 -25.727 -15.334  0.00  0.00    +0.001 C 
ATOM     18  C   UNL     1      37.467 -24.269 -13.705  0.00  0.00    +0.001 C 
ATOM     19  C   UNL     1      36.863 -26.839 -14.607  0.00  0.00    +0.000 C 
ATOM     20  C   UNL     1      37.891 -25.381 -12.977  0.00  0.00    +0.000 C 
ATOM     21  C   UNL     1      37.589 -26.666 -13.428  0.00  0.00    +0.000 C 
ENDBRANCH   8  16
TORSDOF 1
ENDMDL
MODEL 3
REMARK VINA RESULT:      -9.7      4.292      6.360
REMARK  Name = 3261
REMARK  1 active torsions:
REMARK  status: ('A' for Active; 'I' for Inactive)
REMARK    1  A    between atoms: C_8  and  C_16
REMARK                            x       y       z     vdW  Elec       q    Type
REMARK                         _______ _______ _______ _____ _____    ______ ____
ROOT
ATOM      1 CL   UNL     1      35.729 -10.331 -26.201  0.00  0.00    -0.082 Cl
ATOM      2  N   UNL     1      31.952 -10.349 -21.627  0.00  0.00    -0.233 N 
ATOM      3  N   UNL     1      32.692  -7.390 -21.521  0.00  0.00    -0.262 NA
ATOM      4  N   UNL     1      31.037  -9.838 -19.688  0.00  0.00    -0.133 NA
ATOM      5  N   UNL     1      30.469 -11.006 -20.137  0.00  0.00    -0.128 NA
ATOM      6  C   UNL     1      32.789 -10.295 -22.763  0.00  0.00    +0.060 C 
ATOM      7  C   UNL     1      33.335  -9.082 -23.226  0.00  0.00    +0.032 C 
ATOM      8  C   UNL     1      32.891  -7.729 -22.749  0.00  0.00    +0.078 C 
ATOM      9  C   UNL     1      31.941  -9.467 -20.570  0.00  0.00    +0.164 C 
ATOM     10  C   UNL     1      32.902  -8.348 -20.453  0.00  0.00    +0.189 C 
ATOM     11  C   UNL     1      33.109 -11.497 -23.417  0.00  0.00    +0.016 C 
ATOM     12  C   UNL     1      34.263  -9.113 -24.283  0.00  0.00    +0.014 C 
ATOM     13  C   UNL     1      31.042 -11.313 -21.278  0.00  0.00    +0.196 C 
ATOM     14  C   UNL     1      34.012 -11.504 -24.480  0.00  0.00    +0.013 C 
ATOM     15  C   UNL     1      34.601 -10.316 -24.902  0.00  0.00    +0.058 C 
ENDROOT
BRANCH   8  16
ATOM     16  C   UNL     1      32.621  -6.676 -23.772  0.00  0.00    +0.017 C 
ATOM     17  C   UNL     1      33.599  -6.362 -24.706  0.00  0.00    +0.001 C 
ATOM     18  C   UNL     1      31.396  -6.024 -23.775  0.00  0.00    +0.001 C 
ATOM     19  C   UNL     1      33.347  -5.379 -25.661  0.00  0.00    +0.000 C 
ATOM     20  C   UNL     1      31.144  -5.040 -24.730  0.00  0.00    +0.000 C 
ATOM     21  C   UNL     1      32.119  -4.717 -25.674  0.00  0.00    +0.000 C 
ENDBRANCH   8  16
TORSDOF 1
ENDMDL
MODEL 4
REMARK VINA RESULT:      -9.6     12.939     14.793
REMARK  Name = 3261
REMARK  1 active torsions:
REMARK  status: ('A' for Active; 'I' for Inactive)
REMARK    1  A    between atoms: C_8  and  C_16
REMARK                            x       y       z     vdW  Elec       q    Type
REMARK                         _______ _______ _______ _____ _____    ______ ____
ROOT
ATOM      1 CL   UNL     1      37.027 -20.847 -17.687  0.00  0.00    -0.082 Cl
ATOM      2  N   UNL     1      36.907 -24.984 -13.438  0.00  0.00    -0.233 N 
ATOM      3  N   UNL     1      34.274 -23.612 -12.732  0.00  0.00    -0.262 NA
ATOM      4  N   UNL     1      36.526 -25.956 -11.498  0.00  0.00    -0.133 NA
ATOM      5  N   UNL     1      37.431 -26.723 -12.192  0.00  0.00    -0.128 NA
ATOM      6  C   UNL     1      36.865 -24.043 -14.490  0.00  0.00    +0.060 C 
ATOM      7  C   UNL     1      35.759 -23.193 -14.683  0.00  0.00    +0.032 C 
ATOM      8  C   UNL     1      34.440 -23.368 -13.987  0.00  0.00    +0.078 C 
ATOM      9  C   UNL     1      36.240 -24.905 -12.237  0.00  0.00    +0.164 C 
ATOM     10  C   UNL     1      35.421 -23.735 -11.853  0.00  0.00    +0.189 C 
ATOM     11  C   UNL     1      37.981 -23.936 -15.337  0.00  0.00    +0.016 C 
ATOM     12  C   UNL     1      35.833 -22.192 -15.668  0.00  0.00    +0.014 C 
ATOM     13  C   UNL     1      37.669 -26.118 -13.333  0.00  0.00    +0.196 C 
ATOM     14  C   UNL     1      38.025 -22.952 -16.326  0.00  0.00    +0.013 C 
ATOM     15  C   UNL     1      36.961 -22.071 -16.480  0.00  0.00    +0.058 C 
ENDROOT
BRANCH   8  16
ATOM     16  C   UNL     1      33.195 -23.286 -14.808  0.00  0.00    +0.017 C 
ATOM     17  C   UNL     1      33.279 -23.386 -16.190  0.00  0.00    +0.001 C 
ATOM     18  C   UNL     1      31.971 -23.111 -14.178  0.00  0.00    +0.001 C 
ATOM     19  C   UNL     1      32.117 -23.311 -16.957  0.00  0.00    +0.000 C 
ATOM     20  C   UNL     1      30.808 -23.035 -14.944  0.00  0.00    +0.000 C 
ATOM     21  C   UNL     1      30.881 -23.135 -16.334  0.00  0.00    +0.000 C 
ENDBRANCH   8  16
TORSDOF 1
ENDMDL
MODEL 5
REMARK VINA RESULT:      -9.5     10.312     12.799
REMARK  Name = 3261
REMARK  1 active torsions:
REMARK  status: ('A' for Active; 'I' for Inactive)
REMARK    1  A    between atoms: C_8  and  C_16
REMARK                            x       y       z     vdW  Elec       q    Type
REMARK                         _______ _______ _______ _____ _____    ______ ____
ROOT
ATOM      1 CL   UNL     1      36.441 -25.430 -13.425  0.00  0.00    -0.082 Cl
ATOM      2  N   UNL     1      36.059 -21.793 -18.095  0.00  0.00    -0.233 N 
ATOM      3  N   UNL     1      33.305 -23.081 -18.367  0.00  0.00    -0.262 NA
ATOM      4  N   UNL     1      35.518 -21.024 -20.088  0.00  0.00    -0.133 NA
ATOM      5  N   UNL     1      36.525 -20.238 -19.583  0.00  0.00    -0.128 NA
ATOM      6  C   UNL     1      36.086 -22.607 -16.942  0.00  0.00    +0.060 C 
ATOM      7  C   UNL     1      34.969 -23.365 -16.540  0.00  0.00    +0.032 C 
ATOM      8  C   UNL     1      33.592 -23.193 -17.115  0.00  0.00    +0.078 C 
ATOM      9  C   UNL     1      35.264 -21.967 -19.206  0.00  0.00    +0.164 C 
ATOM     10  C   UNL     1      34.356 -23.124 -19.365  0.00  0.00    +0.189 C 
ATOM     11  C   UNL     1      37.280 -22.683 -16.205  0.00  0.00    +0.016 C 
ATOM     12  C   UNL     1      35.101 -24.252 -15.458  0.00  0.00    +0.014 C 
ATOM     13  C   UNL     1      36.856 -20.724 -18.409  0.00  0.00    +0.196 C 
ATOM     14  C   UNL     1      37.384 -23.551 -15.118  0.00  0.00    +0.013 C 
ATOM     15  C   UNL     1      36.303 -24.347 -14.755  0.00  0.00    +0.058 C 
ENDROOT
BRANCH   8  16
ATOM     16  C   UNL     1      32.440 -23.110 -16.169  0.00  0.00    +0.017 C 
ATOM     17  C   UNL     1      31.150 -23.001 -16.670  0.00  0.00    +0.001 C 
ATOM     18  C   UNL     1      32.675 -23.145 -14.802  0.00  0.00    +0.001 C 
ATOM     19  C   UNL     1      30.074 -22.925 -15.787  0.00  0.00    +0.000 C 
ATOM     20  C   UNL     1      31.599 -23.068 -13.917  0.00  0.00    +0.000 C 
ATOM     21  C   UNL     1      30.298 -22.958 -14.410  0.00  0.00    +0.000 C 
ENDBRANCH   8  16
TORSDOF 1
ENDMDL
MODEL 6
REMARK VINA RESULT:      -9.4     10.875     13.446
REMARK  Name = 3261
REMARK  1 active torsions:
REMARK  status: ('A' for Active; 'I' for Inactive)
REMARK    1  A    between atoms: C_8  and  C_16
REMARK                            x       y       z     vdW  Elec       q    Type
REMARK                         _______ _______ _______ _____ _____    ______ ____
ROOT
ATOM      1 CL   UNL     1      29.685 -22.782 -16.525  0.00  0.00    -0.082 Cl
ATOM      2  N   UNL     1      34.530 -23.973 -13.317  0.00  0.00    -0.233 N 
ATOM      3  N   UNL     1      35.710 -24.589 -16.063  0.00  0.00    -0.262 NA
ATOM      4  N   UNL     1      36.413 -24.921 -12.674  0.00  0.00    -0.133 NA
ATOM      5  N   UNL     1      35.920 -24.188 -11.622  0.00  0.00    -0.128 NA
ATOM      6  C   UNL     1      33.420 -23.615 -14.114  0.00  0.00    +0.060 C 
ATOM      7  C   UNL     1      33.482 -23.625 -15.520  0.00  0.00    +0.032 C 
ATOM      8  C   UNL     1      34.760 -23.750 -16.300  0.00  0.00    +0.078 C 
ATOM      9  C   UNL     1      35.564 -24.810 -13.673  0.00  0.00    +0.164 C 
ATOM     10  C   UNL     1      35.599 -25.529 -14.965  0.00  0.00    +0.189 C 
ATOM     11  C   UNL     1      32.216 -23.279 -13.472  0.00  0.00    +0.016 C 
ATOM     12  C   UNL     1      32.308 -23.384 -16.255  0.00  0.00    +0.014 C 
ATOM     13  C   UNL     1      34.785 -23.652 -12.009  0.00  0.00    +0.196 C 
ATOM     14  C   UNL     1      31.068 -23.018 -14.219  0.00  0.00    +0.013 C 
ATOM     15  C   UNL     1      31.108 -23.086 -15.608  0.00  0.00    +0.058 C 
ENDROOT
BRANCH   8  16
ATOM     16  C   UNL     1      34.985 -22.809 -17.437  0.00  0.00    +0.017 C 
ATOM     17  C   UNL     1      36.202 -22.150 -17.550  0.00  0.00    +0.001 C 
ATOM     18  C   UNL     1      33.975 -22.606 -18.367  0.00  0.00    +0.001 C 
ATOM     19  C   UNL     1      36.412 -21.272 -18.612  0.00  0.00    +0.000 C 
ATOM     20  C   UNL     1      34.184 -21.727 -19.429  0.00  0.00    +0.000 C 
ATOM     21  C   UNL     1      35.404 -21.060 -19.552  0.00  0.00    +0.000 C 
ENDBRANCH   8  16
TORSDOF 1
ENDMDL
MODEL 7
REMARK VINA RESULT:      -9.1      3.176      6.081
REMARK  Name = 3261
REMARK  1 active torsions:
REMARK  status: ('A' for Active; 'I' for Inactive)
REMARK    1  A    between atoms: C_8  and  C_16
REMARK                            x       y       z     vdW  Elec       q    Type
REMARK                         _______ _______ _______ _____ _____    ______ ____
ROOT
ATOM      1 CL   UNL     1      32.607 -15.550 -26.971  0.00  0.00    -0.082 Cl
ATOM      2  N   UNL     1      33.944 -10.419 -24.313  0.00  0.00    -0.233 N 
ATOM      3  N   UNL     1      32.385 -11.668 -22.005  0.00  0.00    -0.262 NA
ATOM      4  N   UNL     1      33.767  -8.643 -23.020  0.00  0.00    -0.133 NA
ATOM      5  N   UNL     1      34.789  -8.425 -23.911  0.00  0.00    -0.128 NA
ATOM      6  C   UNL     1      33.684 -11.682 -24.887  0.00  0.00    +0.060 C 
ATOM      7  C   UNL     1      33.048 -12.711 -24.164  0.00  0.00    +0.032 C 
ATOM      8  C   UNL     1      32.828 -12.675 -22.679  0.00  0.00    +0.078 C 
ATOM      9  C   UNL     1      33.249  -9.824 -23.283  0.00  0.00    +0.164 C 
ATOM     10  C   UNL     1      32.043 -10.431 -22.678  0.00  0.00    +0.189 C 
ATOM     11  C   UNL     1      34.040 -11.893 -26.230  0.00  0.00    +0.016 C 
ATOM     12  C   UNL     1      32.703 -13.899 -24.832  0.00  0.00    +0.014 C 
ATOM     13  C   UNL     1      34.865  -9.478 -24.693  0.00  0.00    +0.196 C 
ATOM     14  C   UNL     1      33.710 -13.089 -26.868  0.00  0.00    +0.013 C 
ATOM     15  C   UNL     1      33.029 -14.084 -26.175  0.00  0.00    +0.058 C 
ENDROOT
BRANCH   8  16
ATOM     16  C   UNL     1      33.174 -13.892 -21.887  0.00  0.00    +0.017 C 
ATOM     17  C   UNL     1      34.412 -14.495 -22.065  0.00  0.00    +0.001 C 
ATOM     18  C   UNL     1      32.254 -14.404 -20.983  0.00  0.00    +0.001 C 
ATOM     19  C   UNL     1      34.736 -15.631 -21.324  0.00  0.00    +0.000 C 
ATOM     20  C   UNL     1      32.577 -15.541 -20.243  0.00  0.00    +0.000 C 
ATOM     21  C   UNL     1      33.818 -16.155 -20.413  0.00  0.00    +0.000 C 
ENDBRANCH   8  16
TORSDOF 1
ENDMDL
MODEL 8
REMARK VINA RESULT:      -8.9      3.472      6.410
REMARK  Name = 3261
REMARK  1 active torsions:
REMARK  status: ('A' for Active; 'I' for Inactive)
REMARK    1  A    between atoms: C_8  and  C_16
REMARK                            x       y       z     vdW  Elec       q    Type
REMARK                         _______ _______ _______ _____ _____    ______ ____
ROOT
ATOM      1 CL   UNL     1      35.624 -11.363 -27.364  0.00  0.00    -0.082 Cl
ATOM      2  N   UNL     1      33.175  -9.207 -22.410  0.00  0.00    -0.233 N 
ATOM      3  N   UNL     1      31.716 -11.888 -22.441  0.00  0.00    -0.262 NA
ATOM      4  N   UNL     1      31.687  -8.803 -20.836  0.00  0.00    -0.133 NA
ATOM      5  N   UNL     1      32.712  -7.899 -20.699  0.00  0.00    -0.128 NA
ATOM      6  C   UNL     1      33.803  -9.781 -23.537  0.00  0.00    +0.060 C 
ATOM      7  C   UNL     1      33.544 -11.106 -23.937  0.00  0.00    +0.032 C 
ATOM      8  C   UNL     1      32.809 -12.106 -23.090  0.00  0.00    +0.078 C 
ATOM      9  C   UNL     1      31.957  -9.563 -21.876  0.00  0.00    +0.164 C 
ATOM     10  C   UNL     1      31.083 -10.584 -22.493  0.00  0.00    +0.189 C 
ATOM     11  C   UNL     1      34.679  -8.985 -24.293  0.00  0.00    +0.016 C 
ATOM     12  C   UNL     1      34.102 -11.577 -25.139  0.00  0.00    +0.014 C 
ATOM     13  C   UNL     1      33.577  -8.133 -21.660  0.00  0.00    +0.196 C 
ATOM     14  C   UNL     1      35.243  -9.477 -25.470  0.00  0.00    +0.013 C 
ATOM     15  C   UNL     1      34.942 -10.765 -25.901  0.00  0.00    +0.058 C 
ENDROOT
BRANCH   8  16
ATOM     16  C   UNL     1      33.392 -13.473 -22.949  0.00  0.00    +0.017 C 
ATOM     17  C   UNL     1      33.929 -13.865 -21.731  0.00  0.00    +0.001 C 
ATOM     18  C   UNL     1      33.389 -14.333 -24.038  0.00  0.00    +0.001 C 
ATOM     19  C   UNL     1      34.473 -15.142 -21.599  0.00  0.00    +0.000 C 
ATOM     20  C   UNL     1      33.934 -15.610 -23.907  0.00  0.00    +0.000 C 
ATOM     21  C   UNL     1      34.476 -16.015 -22.687  0.00  0.00    +0.000 C 
ENDBRANCH   8  16
TORSDOF 1
ENDMDL
MODEL 9
REMARK VINA RESULT:      -8.6      2.863      5.511
REMARK  Name = 3261
REMARK  1 active torsions:
REMARK  status: ('A' for Active; 'I' for Inactive)
REMARK    1  A    between atoms: C_8  and  C_16
REMARK                            x       y       z     vdW  Elec       q    Type
REMARK                         _______ _______ _______ _____ _____    ______ ____
ROOT
ATOM      1 CL   UNL     1      32.315 -14.391 -20.240  0.00  0.00    -0.082 Cl
ATOM      2  N   UNL     1      32.220  -9.103 -22.926  0.00  0.00    -0.233 N 
ATOM      3  N   UNL     1      34.356 -10.401 -24.678  0.00  0.00    -0.262 NA
ATOM      4  N   UNL     1      32.910  -7.310 -24.006  0.00  0.00    -0.133 NA
ATOM      5  N   UNL     1      31.672  -7.041 -23.475  0.00  0.00    -0.128 NA
ATOM      6  C   UNL     1      32.204 -10.398 -22.363  0.00  0.00    +0.060 C 
ATOM      7  C   UNL     1      32.973 -11.450 -22.896  0.00  0.00    +0.032 C 
ATOM      8  C   UNL     1      33.659 -11.389 -24.231  0.00  0.00    +0.078 C 
ATOM      9  C   UNL     1      33.243  -8.533 -23.651  0.00  0.00    +0.164 C 
ATOM     10  C   UNL     1      34.539  -9.211 -23.870  0.00  0.00    +0.189 C 
ATOM     11  C   UNL     1      31.424 -10.618 -21.215  0.00  0.00    +0.016 C 
ATOM     12  C   UNL     1      33.012 -12.679 -22.214  0.00  0.00    +0.014 C 
ATOM     13  C   UNL     1      31.285  -8.107 -22.812  0.00  0.00    +0.196 C 
ATOM     14  C   UNL     1      31.458 -11.852 -20.565  0.00  0.00    +0.013 C 
ATOM     15  C   UNL     1      32.262 -12.876 -21.054  0.00  0.00    +0.058 C 
ENDROOT
BRANCH   8  16
ATOM     16  C   UNL     1      33.511 -12.556 -25.152  0.00  0.00    +0.017 C 
ATOM     17  C   UNL     1      33.332 -13.826 -24.623  0.00  0.00    +0.001 C 
ATOM     18  C   UNL     1      33.553 -12.352 -26.524  0.00  0.00    +0.001 C 
ATOM     19  C   UNL     1      33.193 -14.915 -25.482  0.00  0.00    +0.000 C 
ATOM     20  C   UNL     1      33.414 -13.441 -27.384  0.00  0.00    +0.000 C 
ATOM     21  C   UNL     1      33.234 -14.723 -26.864  0.00  0.00    +0.000 C 
ENDBRANCH   8  16
TORSDOF 1
ENDMDL
