MODEL 1
REMARK VINA RESULT:     -12.4      0.000      0.000
REMARK  Name = 11634458
REMARK  5 active torsions:
REMARK  status: ('A' for Active; 'I' for Inactive)
REMARK    1  A    between atoms: N_3  and  C_11
REMARK    2  A    between atoms: C_4  and  C_19
REMARK    3  A    between atoms: C_5  and  O_35
REMARK    4  A    between atoms: N_18  and  C_22
REMARK    5  A    between atoms: C_25  and  N_29
REMARK                            x       y       z     vdW  Elec       q    Type
REMARK                         _______ _______ _______ _____ _____    ______ ____
ROOT
ATOM      1  O   UNL     1      32.151 -23.514 -13.142  0.00  0.00    -0.252 OA
ATOM      2  N   UNL     1      33.998 -23.942 -14.438  0.00  0.00    -0.255 N 
ATOM      3  N   UNL     1      31.944 -23.458 -15.464  0.00  0.00    -0.268 N 
ATOM      4  C   UNL     1      34.694 -24.266 -15.683  0.00  0.00    +0.156 C 
ATOM      5  C   UNL     1      36.259 -24.364 -13.855  0.00  0.00    +0.137 C 
ATOM      6  C   UNL     1      35.993 -24.942 -15.243  0.00  0.00    +0.061 C 
ATOM      7  C   UNL     1      34.867 -24.144 -13.281  0.00  0.00    +0.125 C 
ATOM      8  C   UNL     1      32.642 -23.627 -14.267  0.00  0.00    +0.308 C 
ATOM      9  H   UNL     1      32.467 -23.578 -16.289  0.00  0.00    +0.156 HD
ENDROOT
BRANCH   3  11
ATOM     10 CL   UNL     1      26.225 -22.093 -16.176  0.00  0.00    -0.082 Cl
ATOM     11  C   UNL     1      30.577 -23.131 -15.634  0.00  0.00    +0.052 C 
ATOM     12  C   UNL     1      29.919 -22.376 -14.667  0.00  0.00    +0.016 C 
ATOM     13  C   UNL     1      29.896 -23.568 -16.768  0.00  0.00    +0.016 C 
ATOM     14  C   UNL     1      28.571 -22.054 -14.834  0.00  0.00    +0.013 C 
ATOM     15  C   UNL     1      28.549 -23.247 -16.935  0.00  0.00    +0.013 C 
ATOM     16  C   UNL     1      27.887 -22.490 -15.968  0.00  0.00    +0.058 C 
ENDBRANCH   3  11
BRANCH   4  19
ATOM     17  O   UNL     1      35.499 -22.039 -15.851  0.00  0.00    -0.273 OA
ATOM     18  N   UNL     1      34.560 -23.076 -17.743  0.00  0.00    -0.281 N 
ATOM     19  C   UNL     1      34.973 -22.990 -16.420  0.00  0.00    +0.244 C 
ATOM     20  H   UNL     1      34.152 -23.929 -18.018  0.00  0.00    +0.155 HD
BRANCH  18  22
ATOM     21  F   UNL     1      37.025 -22.114 -18.585  0.00  0.00    -0.203 F 
ATOM     22  C   UNL     1      34.656 -22.079 -18.742  0.00  0.00    +0.078 C 
ATOM     23  C   UNL     1      35.903 -21.626 -19.135  0.00  0.00    +0.155 C 
ATOM     24  C   UNL     1      33.494 -21.576 -19.306  0.00  0.00    +0.018 C 
ATOM     25  C   UNL     1      34.835 -20.125 -20.697  0.00  0.00    +0.061 C 
ATOM     26  C   UNL     1      35.994 -20.642 -20.119  0.00  0.00    +0.046 C 
ATOM     27  C   UNL     1      33.585 -20.592 -20.291  0.00  0.00    +0.017 C 
BRANCH  25  29
ATOM     28  O   UNL     1      35.412 -17.331 -20.219  0.00  0.00    -0.269 OA
ATOM     29  N   UNL     1      34.929 -19.101 -21.721  0.00  0.00    -0.233 N 
ATOM     30  C   UNL     1      35.259 -17.770 -21.360  0.00  0.00    +0.257 C 
ATOM     31  C   UNL     1      34.676 -19.411 -23.058  0.00  0.00    +0.072 C 
ATOM     32  C   UNL     1      35.383 -16.788 -22.481  0.00  0.00    +0.059 C 
ATOM     33  C   UNL     1      34.760 -18.507 -24.039  0.00  0.00    +0.017 C 
ATOM     34  C   UNL     1      35.133 -17.158 -23.739  0.00  0.00    +0.006 C 
ENDBRANCH  25  29
ENDBRANCH  18  22
ENDBRANCH   4  19
BRANCH   5  35
ATOM     35  O   UNL     1      36.945 -23.123 -13.976  0.00  0.00    -0.352 OA
ATOM     36  C   UNL     1      37.520 -22.723 -12.740  0.00  0.00    +0.174 C 
ENDBRANCH   5  35
TORSDOF 5
ENDMDL
MODEL 2
REMARK VINA RESULT:      -9.6      4.364     10.231
REMARK  Name = 11634458
REMARK  5 active torsions:
REMARK  status: ('A' for Active; 'I' for Inactive)
REMARK    1  A    between atoms: N_3  and  C_11
REMARK    2  A    between atoms: C_4  and  C_19
REMARK    3  A    between atoms: C_5  and  O_35
REMARK    4  A    between atoms: N_18  and  C_22
REMARK    5  A    between atoms: C_25  and  N_29
REMARK                            x       y       z     vdW  Elec       q    Type
REMARK                         _______ _______ _______ _____ _____    ______ ____
ROOT
ATOM      1  O   UNL     1      32.001 -13.898 -24.573  0.00  0.00    -0.252 OA
ATOM      2  N   UNL     1      33.671 -15.445 -24.270  0.00  0.00    -0.255 N 
ATOM      3  N   UNL     1      33.320 -13.780 -22.655  0.00  0.00    -0.268 N 
ATOM      4  C   UNL     1      34.882 -15.978 -23.649  0.00  0.00    +0.156 C 
ATOM      5  C   UNL     1      34.310 -17.333 -25.555  0.00  0.00    +0.137 C 
ATOM      6  C   UNL     1      35.502 -16.887 -24.711  0.00  0.00    +0.061 C 
ATOM      7  C   UNL     1      33.374 -16.135 -25.523  0.00  0.00    +0.125 C 
ATOM      8  C   UNL     1      32.923 -14.325 -23.876  0.00  0.00    +0.308 C 
ATOM      9  H   UNL     1      34.074 -14.227 -22.206  0.00  0.00    +0.156 HD
ENDROOT
BRANCH   3  11
ATOM     10 CL   UNL     1      31.017  -9.104 -19.841  0.00  0.00    -0.082 Cl
ATOM     11  C   UNL     1      32.769 -12.661 -21.982  0.00  0.00    +0.052 C 
ATOM     12  C   UNL     1      32.292 -12.801 -20.682  0.00  0.00    +0.016 C 
ATOM     13  C   UNL     1      32.708 -11.427 -22.625  0.00  0.00    +0.016 C 
ATOM     14  C   UNL     1      31.749 -11.700 -20.018  0.00  0.00    +0.013 C 
ATOM     15  C   UNL     1      32.165 -10.327 -21.962  0.00  0.00    +0.013 C 
ATOM     16  C   UNL     1      31.686 -10.463 -20.659  0.00  0.00    +0.058 C 
ENDBRANCH   3  11
BRANCH   4  19
ATOM     17  O   UNL     1      33.677 -16.309 -21.631  0.00  0.00    -0.273 OA
ATOM     18  N   UNL     1      35.159 -17.976 -22.380  0.00  0.00    -0.281 N 
ATOM     19  C   UNL     1      34.490 -16.760 -22.431  0.00  0.00    +0.244 C 
ATOM     20  H   UNL     1      35.781 -18.163 -23.120  0.00  0.00    +0.155 HD
BRANCH  18  22
ATOM     21  F   UNL     1      37.412 -19.024 -21.140  0.00  0.00    -0.203 F 
ATOM     22  C   UNL     1      35.050 -18.979 -21.387  0.00  0.00    +0.078 C 
ATOM     23  C   UNL     1      36.198 -19.474 -20.793  0.00  0.00    +0.155 C 
ATOM     24  C   UNL     1      33.794 -19.442 -21.032  0.00  0.00    +0.018 C 
ATOM     25  C   UNL     1      34.830 -20.942 -19.446  0.00  0.00    +0.061 C 
ATOM     26  C   UNL     1      36.087 -20.463 -19.815  0.00  0.00    +0.046 C 
ATOM     27  C   UNL     1      33.684 -20.431 -20.054  0.00  0.00    +0.017 C 
BRANCH  25  29
ATOM     28  O   UNL     1      36.851 -21.578 -17.476  0.00  0.00    -0.269 OA
ATOM     29  N   UNL     1      34.716 -21.970 -18.429  0.00  0.00    -0.233 N 
ATOM     30  C   UNL     1      35.764 -22.158 -17.492  0.00  0.00    +0.257 C 
ATOM     31  C   UNL     1      33.589 -22.794 -18.378  0.00  0.00    +0.072 C 
ATOM     32  C   UNL     1      35.545 -23.206 -16.449  0.00  0.00    +0.059 C 
ATOM     33  C   UNL     1      33.432 -23.748 -17.455  0.00  0.00    +0.017 C 
ATOM     34  C   UNL     1      34.439 -23.953 -16.457  0.00  0.00    +0.006 C 
ENDBRANCH  25  29
ENDBRANCH  18  22
ENDBRANCH   4  19
BRANCH   5  35
ATOM     35  O   UNL     1      33.689 -18.462 -24.950  0.00  0.00    -0.352 OA
ATOM     36  C   UNL     1      34.467 -19.639 -25.122  0.00  0.00    +0.174 C 
ENDBRANCH   5  35
TORSDOF 5
ENDMDL
