MODEL 1
REMARK VINA RESULT:      -7.1      0.000      0.000
REMARK  Name = 46937179
REMARK  4 active torsions:
REMARK  status: ('A' for Active; 'I' for Inactive)
REMARK    1  A    between atoms: C_3  and  C_12
REMARK    2  A    between atoms: C_4  and  O_10
REMARK    3  A    between atoms: C_5  and  S_8
REMARK    4  A    between atoms: C_12  and  C_14
REMARK                            x       y       z     vdW  Elec       q    Type
REMARK                         _______ _______ _______ _____ _____    ______ ____
ROOT
ATOM      1  N   UNL     1      35.557 -18.101 -23.212  0.00  0.00    -0.310 N 
ATOM      2  N   UNL     1      34.653 -16.161 -22.620  0.00  0.00    -0.281 N 
ATOM      3  C   UNL     1      35.697 -18.021 -21.855  0.00  0.00    +0.077 C 
ATOM      4  C   UNL     1      35.133 -16.815 -21.513  0.00  0.00    +0.198 C 
ATOM      5  C   UNL     1      34.925 -16.961 -23.627  0.00  0.00    +0.197 C 
ATOM      6  H   UNL     1      35.855 -18.844 -23.786  0.00  0.00    +0.149 HD
ATOM      7  H   UNL     1      34.206 -15.285 -22.654  0.00  0.00    +0.152 HD
ENDROOT
BRANCH   5   8
ATOM      8  S   UNL     1      34.576 -16.707 -25.293  0.00  0.00    -0.100 S 
ATOM      9  C   UNL     1      33.473 -15.249 -25.282  0.00  0.00    +0.072 C 
ENDBRANCH   5   8
BRANCH   4  10
ATOM     10  O   UNL     1      35.072 -16.360 -20.251  0.00  0.00    -0.494 OA
ATOM     11  H   UNL     1      34.701 -15.517 -20.073  0.00  0.00    +0.294 HD
ENDBRANCH   4  10
BRANCH   3  12
ATOM     12  C   UNL     1      36.341 -19.083 -21.064  0.00  0.00    +0.078 C 
BRANCH  12  14
ATOM     13  S   UNL     1      35.992 -21.390 -19.522  0.00  0.00    -0.090 S 
ATOM     14  C   UNL     1      35.376 -20.089 -20.450  0.00  0.00    +0.013 C 
ATOM     15  C   UNL     1      34.000 -20.117 -20.528  0.00  0.00    +0.003 C 
ATOM     16  C   UNL     1      33.446 -21.221 -19.819  0.00  0.00    +0.007 C 
ATOM     17  C   UNL     1      34.418 -21.995 -19.224  0.00  0.00    +0.035 C 
ENDBRANCH  12  14
ENDBRANCH   3  12
TORSDOF 4
ENDMDL
MODEL 2
REMARK VINA RESULT:      -6.9      2.062      2.247
REMARK  Name = 46937179
REMARK  4 active torsions:
REMARK  status: ('A' for Active; 'I' for Inactive)
REMARK    1  A    between atoms: C_3  and  C_12
REMARK    2  A    between atoms: C_4  and  O_10
REMARK    3  A    between atoms: C_5  and  S_8
REMARK    4  A    between atoms: C_12  and  C_14
REMARK                            x       y       z     vdW  Elec       q    Type
REMARK                         _______ _______ _______ _____ _____    ______ ____
ROOT
ATOM      1  N   UNL     1      35.062 -16.323 -22.405  0.00  0.00    -0.310 N 
ATOM      2  N   UNL     1      34.299 -16.619 -24.470  0.00  0.00    -0.281 N 
ATOM      3  C   UNL     1      35.302 -17.633 -22.709  0.00  0.00    +0.077 C 
ATOM      4  C   UNL     1      34.822 -17.792 -23.988  0.00  0.00    +0.198 C 
ATOM      5  C   UNL     1      34.458 -15.754 -23.493  0.00  0.00    +0.197 C 
ATOM      6  H   UNL     1      35.284 -15.870 -21.559  0.00  0.00    +0.149 HD
ATOM      7  H   UNL     1      33.893 -16.459 -25.352  0.00  0.00    +0.152 HD
ENDROOT
BRANCH   5   8
ATOM      8  S   UNL     1      34.002 -14.094 -23.476  0.00  0.00    -0.100 S 
ATOM      9  C   UNL     1      32.617 -14.042 -22.284  0.00  0.00    +0.072 C 
ENDBRANCH   5   8
BRANCH   4  10
ATOM     10  O   UNL     1      34.872 -18.957 -24.655  0.00  0.00    -0.494 OA
ATOM     11  H   UNL     1      34.985 -18.959 -25.586  0.00  0.00    +0.294 HD
ENDBRANCH   4  10
BRANCH   3  12
ATOM     12  C   UNL     1      35.947 -18.557 -21.762  0.00  0.00    +0.078 C 
BRANCH  12  14
ATOM     13  S   UNL     1      35.604 -20.846 -20.191  0.00  0.00    -0.090 S 
ATOM     14  C   UNL     1      34.987 -19.486 -21.028  0.00  0.00    +0.013 C 
ATOM     15  C   UNL     1      33.616 -19.395 -20.928  0.00  0.00    +0.003 C 
ATOM     16  C   UNL     1      33.065 -20.457 -20.153  0.00  0.00    +0.007 C 
ATOM     17  C   UNL     1      34.036 -21.318 -19.691  0.00  0.00    +0.035 C 
ENDBRANCH  12  14
ENDBRANCH   3  12
TORSDOF 4
ENDMDL
MODEL 3
REMARK VINA RESULT:      -6.8      2.105      2.243
REMARK  Name = 46937179
REMARK  4 active torsions:
REMARK  status: ('A' for Active; 'I' for Inactive)
REMARK    1  A    between atoms: C_3  and  C_12
REMARK    2  A    between atoms: C_4  and  O_10
REMARK    3  A    between atoms: C_5  and  S_8
REMARK    4  A    between atoms: C_12  and  C_14
REMARK                            x       y       z     vdW  Elec       q    Type
REMARK                         _______ _______ _______ _____ _____    ______ ____
ROOT
ATOM      1  N   UNL     1      35.265 -17.250 -20.714  0.00  0.00    -0.310 N 
ATOM      2  N   UNL     1      34.657 -16.760 -22.793  0.00  0.00    -0.281 N 
ATOM      3  C   UNL     1      35.598 -18.340 -21.468  0.00  0.00    +0.077 C 
ATOM      4  C   UNL     1      35.212 -18.014 -22.748  0.00  0.00    +0.198 C 
ATOM      5  C   UNL     1      34.703 -16.327 -21.553  0.00  0.00    +0.197 C 
ATOM      6  H   UNL     1      35.406 -17.146 -19.745  0.00  0.00    +0.149 HD
ATOM      7  H   UNL     1      34.301 -16.289 -23.581  0.00  0.00    +0.152 HD
ENDROOT
BRANCH   5   8
ATOM      8  S   UNL     1      34.154 -14.810 -20.950  0.00  0.00    -0.100 S 
ATOM      9  C   UNL     1      32.703 -14.434 -21.996  0.00  0.00    +0.072 C 
ENDBRANCH   5   8
BRANCH   4  10
ATOM     10  O   UNL     1      35.370 -18.836 -23.798  0.00  0.00    -0.494 OA
ATOM     11  H   UNL     1      34.661 -19.382 -24.077  0.00  0.00    +0.294 HD
ENDBRANCH   4  10
BRANCH   3  12
ATOM     12  C   UNL     1      36.229 -19.537 -20.889  0.00  0.00    +0.078 C 
BRANCH  12  14
ATOM     13  S   UNL     1      35.876 -21.665 -19.109  0.00  0.00    -0.090 S 
ATOM     14  C   UNL     1      35.265 -20.491 -20.197  0.00  0.00    +0.013 C 
ATOM     15  C   UNL     1      33.894 -20.561 -20.317  0.00  0.00    +0.003 C 
ATOM     16  C   UNL     1      33.338 -21.593 -19.506  0.00  0.00    +0.007 C 
ATOM     17  C   UNL     1      34.305 -22.271 -18.796  0.00  0.00    +0.035 C 
ENDBRANCH  12  14
ENDBRANCH   3  12
TORSDOF 4
ENDMDL
MODEL 4
REMARK VINA RESULT:      -6.4      1.981      5.873
REMARK  Name = 46937179
REMARK  4 active torsions:
REMARK  status: ('A' for Active; 'I' for Inactive)
REMARK    1  A    between atoms: C_3  and  C_12
REMARK    2  A    between atoms: C_4  and  O_10
REMARK    3  A    between atoms: C_5  and  S_8
REMARK    4  A    between atoms: C_12  and  C_14
REMARK                            x       y       z     vdW  Elec       q    Type
REMARK                         _______ _______ _______ _____ _____    ______ ____
ROOT
ATOM      1  N   UNL     1      33.771 -18.045 -21.147  0.00  0.00    -0.310 N 
ATOM      2  N   UNL     1      35.235 -19.642 -21.635  0.00  0.00    -0.281 N 
ATOM      3  C   UNL     1      34.784 -17.429 -21.826  0.00  0.00    +0.077 C 
ATOM      4  C   UNL     1      35.677 -18.435 -22.116  0.00  0.00    +0.198 C 
ATOM      5  C   UNL     1      34.086 -19.373 -21.056  0.00  0.00    +0.197 C 
ATOM      6  H   UNL     1      32.962 -17.613 -20.789  0.00  0.00    +0.149 HD
ATOM      7  H   UNL     1      35.682 -20.517 -21.705  0.00  0.00    +0.152 HD
ENDROOT
BRANCH   5   8
ATOM      8  S   UNL     1      33.031 -20.474 -20.256  0.00  0.00    -0.100 S 
ATOM      9  C   UNL     1      34.173 -21.658 -19.459  0.00  0.00    +0.072 C 
ENDBRANCH   5   8
BRANCH   4  10
ATOM     10  O   UNL     1      36.824 -18.234 -22.785  0.00  0.00    -0.494 OA
ATOM     11  H   UNL     1      36.971 -18.667 -23.603  0.00  0.00    +0.294 HD
ENDBRANCH   4  10
BRANCH   3  12
ATOM     12  C   UNL     1      34.781 -15.985 -22.110  0.00  0.00    +0.078 C 
BRANCH  12  14
ATOM     13  S   UNL     1      33.407 -14.104 -23.659  0.00  0.00    -0.090 S 
ATOM     14  C   UNL     1      34.205 -15.607 -23.469  0.00  0.00    +0.013 C 
ATOM     15  C   UNL     1      34.229 -16.332 -24.641  0.00  0.00    +0.003 C 
ATOM     16  C   UNL     1      33.583 -15.643 -25.708  0.00  0.00    +0.007 C 
ATOM     17  C   UNL     1      33.090 -14.419 -25.312  0.00  0.00    +0.035 C 
ENDBRANCH  12  14
ENDBRANCH   3  12
TORSDOF 4
ENDMDL
MODEL 5
REMARK VINA RESULT:      -6.4      3.523      4.622
REMARK  Name = 46937179
REMARK  4 active torsions:
REMARK  status: ('A' for Active; 'I' for Inactive)
REMARK    1  A    between atoms: C_3  and  C_12
REMARK    2  A    between atoms: C_4  and  O_10
REMARK    3  A    between atoms: C_5  and  S_8
REMARK    4  A    between atoms: C_12  and  C_14
REMARK                            x       y       z     vdW  Elec       q    Type
REMARK                         _______ _______ _______ _____ _____    ______ ____
ROOT
ATOM      1  N   UNL     1      34.440 -13.643 -23.138  0.00  0.00    -0.310 N 
ATOM      2  N   UNL     1      32.325 -13.292 -22.558  0.00  0.00    -0.281 N 
ATOM      3  C   UNL     1      34.059 -14.745 -22.427  0.00  0.00    +0.077 C 
ATOM      4  C   UNL     1      32.750 -14.505 -22.079  0.00  0.00    +0.198 C 
ATOM      5  C   UNL     1      33.366 -12.798 -23.190  0.00  0.00    +0.197 C 
ATOM      6  H   UNL     1      35.325 -13.486 -23.540  0.00  0.00    +0.149 HD
ATOM      7  H   UNL     1      31.437 -12.881 -22.451  0.00  0.00    +0.152 HD
ENDROOT
BRANCH   5   8
ATOM      8  S   UNL     1      33.474 -11.289 -24.013  0.00  0.00    -0.100 S 
ATOM      9  C   UNL     1      33.929 -11.763 -25.719  0.00  0.00    +0.072 C 
ENDBRANCH   5   8
BRANCH   4  10
ATOM     10  O   UNL     1      32.007 -15.365 -21.362  0.00  0.00    -0.494 OA
ATOM     11  H   UNL     1      32.153 -15.455 -20.440  0.00  0.00    +0.294 HD
ENDBRANCH   4  10
BRANCH   3  12
ATOM     12  C   UNL     1      34.970 -15.872 -22.169  0.00  0.00    +0.078 C 
BRANCH  12  14
ATOM     13  S   UNL     1      34.434 -16.738 -24.774  0.00  0.00    -0.090 S 
ATOM     14  C   UNL     1      34.822 -17.042 -23.134  0.00  0.00    +0.013 C 
ATOM     15  C   UNL     1      34.960 -18.388 -22.876  0.00  0.00    +0.003 C 
ATOM     16  C   UNL     1      34.744 -19.180 -24.041  0.00  0.00    +0.007 C 
ATOM     17  C   UNL     1      34.450 -18.410 -25.143  0.00  0.00    +0.035 C 
ENDBRANCH  12  14
ENDBRANCH   3  12
TORSDOF 4
ENDMDL
MODEL 6
REMARK VINA RESULT:      -6.4      2.795      5.698
REMARK  Name = 46937179
REMARK  4 active torsions:
REMARK  status: ('A' for Active; 'I' for Inactive)
REMARK    1  A    between atoms: C_3  and  C_12
REMARK    2  A    between atoms: C_4  and  O_10
REMARK    3  A    between atoms: C_5  and  S_8
REMARK    4  A    between atoms: C_12  and  C_14
REMARK                            x       y       z     vdW  Elec       q    Type
REMARK                         _______ _______ _______ _____ _____    ______ ____
ROOT
ATOM      1  N   UNL     1      34.859 -17.553 -22.071  0.00  0.00    -0.310 N 
ATOM      2  N   UNL     1      34.666 -19.200 -23.549  0.00  0.00    -0.281 N 
ATOM      3  C   UNL     1      34.806 -16.952 -23.297  0.00  0.00    +0.077 C 
ATOM      4  C   UNL     1      34.688 -17.989 -24.193  0.00  0.00    +0.198 C 
ATOM      5  C   UNL     1      34.772 -18.903 -22.273  0.00  0.00    +0.197 C 
ATOM      6  H   UNL     1      34.943 -17.098 -21.202  0.00  0.00    +0.149 HD
ATOM      7  H   UNL     1      34.590 -20.094 -23.953  0.00  0.00    +0.152 HD
ENDROOT
BRANCH   5   8
ATOM      8  S   UNL     1      34.807 -19.995 -20.941  0.00  0.00    -0.100 S 
ATOM      9  C   UNL     1      33.042 -20.205 -20.513  0.00  0.00    +0.072 C 
ENDBRANCH   5   8
BRANCH   4  10
ATOM     10  O   UNL     1      34.606 -17.810 -25.522  0.00  0.00    -0.494 OA
ATOM     11  H   UNL     1      33.907 -17.302 -25.884  0.00  0.00    +0.294 HD
ENDBRANCH   4  10
BRANCH   3  12
ATOM     12  C   UNL     1      34.874 -15.491 -23.463  0.00  0.00    +0.078 C 
BRANCH  12  14
ATOM     13  S   UNL     1      32.832 -13.584 -23.338  0.00  0.00    -0.090 S 
ATOM     14  C   UNL     1      33.893 -14.708 -22.600  0.00  0.00    +0.013 C 
ATOM     15  C   UNL     1      33.716 -14.767 -21.235  0.00  0.00    +0.003 C 
ATOM     16  C   UNL     1      32.696 -13.877 -20.790  0.00  0.00    +0.007 C 
ATOM     17  C   UNL     1      32.132 -13.173 -21.830  0.00  0.00    +0.035 C 
ENDBRANCH  12  14
ENDBRANCH   3  12
TORSDOF 4
ENDMDL
MODEL 7
REMARK VINA RESULT:      -6.3      2.236      5.675
REMARK  Name = 46937179
REMARK  4 active torsions:
REMARK  status: ('A' for Active; 'I' for Inactive)
REMARK    1  A    between atoms: C_3  and  C_12
REMARK    2  A    between atoms: C_4  and  O_10
REMARK    3  A    between atoms: C_5  and  S_8
REMARK    4  A    between atoms: C_12  and  C_14
REMARK                            x       y       z     vdW  Elec       q    Type
REMARK                         _______ _______ _______ _____ _____    ______ ____
ROOT
ATOM      1  N   UNL     1      33.910 -19.692 -21.322  0.00  0.00    -0.310 N 
ATOM      2  N   UNL     1      35.562 -20.388 -20.011  0.00  0.00    -0.281 N 
ATOM      3  C   UNL     1      35.025 -19.020 -21.736  0.00  0.00    +0.077 C 
ATOM      4  C   UNL     1      36.032 -19.465 -20.911  0.00  0.00    +0.198 C 
ATOM      5  C   UNL     1      34.282 -20.502 -20.284  0.00  0.00    +0.197 C 
ATOM      6  H   UNL     1      33.006 -19.611 -21.702  0.00  0.00    +0.149 HD
ATOM      7  H   UNL     1      36.072 -20.860 -19.313  0.00  0.00    +0.152 HD
ENDROOT
BRANCH   5   8
ATOM      8  S   UNL     1      33.127 -21.510 -19.499  0.00  0.00    -0.100 S 
ATOM      9  C   UNL     1      34.155 -22.613 -18.465  0.00  0.00    +0.072 C 
ENDBRANCH   5   8
BRANCH   4  10
ATOM     10  O   UNL     1      37.302 -19.036 -20.998  0.00  0.00    -0.494 OA
ATOM     11  H   UNL     1      37.622 -18.395 -20.394  0.00  0.00    +0.294 HD
ENDBRANCH   4  10
BRANCH   3  12
ATOM     12  C   UNL     1      34.997 -18.052 -22.845  0.00  0.00    +0.078 C 
BRANCH  12  14
ATOM     13  S   UNL     1      34.459 -15.423 -23.632  0.00  0.00    -0.090 S 
ATOM     14  C   UNL     1      34.692 -16.618 -22.428  0.00  0.00    +0.013 C 
ATOM     15  C   UNL     1      34.568 -16.103 -21.157  0.00  0.00    +0.003 C 
ATOM     16  C   UNL     1      34.278 -14.708 -21.171  0.00  0.00    +0.007 C 
ATOM     17  C   UNL     1      34.191 -14.211 -22.452  0.00  0.00    +0.035 C 
ENDBRANCH  12  14
ENDBRANCH   3  12
TORSDOF 4
ENDMDL
MODEL 8
REMARK VINA RESULT:      -6.3      2.735      3.841
REMARK  Name = 46937179
REMARK  4 active torsions:
REMARK  status: ('A' for Active; 'I' for Inactive)
REMARK    1  A    between atoms: C_3  and  C_12
REMARK    2  A    between atoms: C_4  and  O_10
REMARK    3  A    between atoms: C_5  and  S_8
REMARK    4  A    between atoms: C_12  and  C_14
REMARK                            x       y       z     vdW  Elec       q    Type
REMARK                         _______ _______ _______ _____ _____    ______ ____
ROOT
ATOM      1  N   UNL     1      33.967 -15.945 -22.882  0.00  0.00    -0.310 N 
ATOM      2  N   UNL     1      33.158 -14.565 -24.422  0.00  0.00    -0.281 N 
ATOM      3  C   UNL     1      34.294 -16.497 -24.088  0.00  0.00    +0.077 C 
ATOM      4  C   UNL     1      33.783 -15.628 -25.023  0.00  0.00    +0.198 C 
ATOM      5  C   UNL     1      33.286 -14.786 -23.132  0.00  0.00    +0.197 C 
ATOM      6  H   UNL     1      34.184 -16.313 -21.994  0.00  0.00    +0.149 HD
ATOM      7  H   UNL     1      32.711 -13.805 -24.859  0.00  0.00    +0.152 HD
ENDROOT
BRANCH   5   8
ATOM      8  S   UNL     1      32.707 -13.809 -21.838  0.00  0.00    -0.100 S 
ATOM      9  C   UNL     1      32.830 -14.909 -20.383  0.00  0.00    +0.072 C 
ENDBRANCH   5   8
BRANCH   4  10
ATOM     10  O   UNL     1      33.897 -15.819 -26.348  0.00  0.00    -0.494 OA
ATOM     11  H   UNL     1      33.462 -16.542 -26.756  0.00  0.00    +0.294 HD
ENDBRANCH   4  10
BRANCH   3  12
ATOM     12  C   UNL     1      35.038 -17.762 -24.201  0.00  0.00    +0.078 C 
BRANCH  12  14
ATOM     13  S   UNL     1      34.218 -19.394 -22.082  0.00  0.00    -0.090 S 
ATOM     14  C   UNL     1      35.384 -18.417 -22.869  0.00  0.00    +0.013 C 
ATOM     15  C   UNL     1      36.560 -18.340 -22.157  0.00  0.00    +0.003 C 
ATOM     16  C   UNL     1      36.504 -19.093 -20.948  0.00  0.00    +0.007 C 
ATOM     17  C   UNL     1      35.287 -19.717 -20.784  0.00  0.00    +0.035 C 
ENDBRANCH  12  14
ENDBRANCH   3  12
TORSDOF 4
ENDMDL
MODEL 9
REMARK VINA RESULT:      -6.3      5.018      7.710
REMARK  Name = 46937179
REMARK  4 active torsions:
REMARK  status: ('A' for Active; 'I' for Inactive)
REMARK    1  A    between atoms: C_3  and  C_12
REMARK    2  A    between atoms: C_4  and  O_10
REMARK    3  A    between atoms: C_5  and  S_8
REMARK    4  A    between atoms: C_12  and  C_14
REMARK                            x       y       z     vdW  Elec       q    Type
REMARK                         _______ _______ _______ _____ _____    ______ ____
ROOT
ATOM      1  N   UNL     1      32.264 -23.088 -17.059  0.00  0.00    -0.310 N 
ATOM      2  N   UNL     1      33.544 -23.117 -15.245  0.00  0.00    -0.281 N 
ATOM      3  C   UNL     1      33.550 -23.178 -17.510  0.00  0.00    +0.077 C 
ATOM      4  C   UNL     1      34.322 -23.194 -16.372  0.00  0.00    +0.198 C 
ATOM      5  C   UNL     1      32.310 -23.054 -15.693  0.00  0.00    +0.197 C 
ATOM      6  H   UNL     1      31.452 -23.054 -17.616  0.00  0.00    +0.149 HD
ATOM      7  H   UNL     1      33.843 -23.110 -14.307  0.00  0.00    +0.152 HD
ENDROOT
BRANCH   5   8
ATOM      8  S   UNL     1      30.862 -22.939 -14.768  0.00  0.00    -0.100 S 
ATOM      9  C   UNL     1      29.549 -22.845 -16.036  0.00  0.00    +0.072 C 
ENDBRANCH   5   8
BRANCH   4  10
ATOM     10  O   UNL     1      35.663 -23.276 -16.390  0.00  0.00    -0.494 OA
ATOM     11  H   UNL     1      36.130 -23.136 -17.191  0.00  0.00    +0.294 HD
ENDBRANCH   4  10
BRANCH   3  12
ATOM     12  C   UNL     1      33.883 -23.237 -18.943  0.00  0.00    +0.078 C 
BRANCH  12  14
ATOM     13  S   UNL     1      35.692 -21.329 -19.897  0.00  0.00    -0.090 S 
ATOM     14  C   UNL     1      34.098 -21.879 -19.601  0.00  0.00    +0.013 C 
ATOM     15  C   UNL     1      33.151 -20.970 -20.020  0.00  0.00    +0.003 C 
ATOM     16  C   UNL     1      33.743 -19.807 -20.591  0.00  0.00    +0.007 C 
ATOM     17  C   UNL     1      35.119 -19.871 -20.587  0.00  0.00    +0.035 C 
ENDBRANCH  12  14
ENDBRANCH   3  12
TORSDOF 4
ENDMDL
