MODEL 1
REMARK VINA RESULT:      -7.8      0.000      0.000
REMARK  Name = 446382
REMARK  7 active torsions:
REMARK  status: ('A' for Active; 'I' for Inactive)
REMARK    1  A    between atoms: C_1  and  C_3
REMARK    2  A    between atoms: C_1  and  N_6
REMARK    3  A    between atoms: C_1  and  C_14
REMARK    4  A    between atoms: C_3  and  O_4
REMARK    5  A    between atoms: N_6  and  S_8
REMARK    6  A    between atoms: S_8  and  N_11
REMARK    7  A    between atoms: C_14  and  C_15
REMARK                            x       y       z     vdW  Elec       q    Type
REMARK                         _______ _______ _______ _____ _____    ______ ____
ROOT
ATOM      1  C   UNL     1      38.160 -24.730 -13.497  0.00  0.00    +0.179 C 
ENDROOT
BRANCH   1   3
ATOM      2  O   UNL     1      37.359 -24.706 -11.214  0.00  0.00    -0.249 OA
ATOM      3  C   UNL     1      38.144 -24.266 -12.048  0.00  0.00    +0.330 C 
BRANCH   3   4
ATOM      4  O   UNL     1      39.072 -23.328 -11.742  0.00  0.00    -0.479 OA
ATOM      5  H   UNL     1      39.839 -23.568 -11.259  0.00  0.00    +0.295 HD
ENDBRANCH   3   4
ENDBRANCH   1   3
BRANCH   1   6
ATOM      6  N   UNL     1      38.969 -25.913 -13.655  0.00  0.00    -0.160 NA
ATOM      7  H   UNL     1      39.082 -26.323 -12.728  0.00  0.00    +0.150 HD
BRANCH   6   8
ATOM      8  S   UNL     1      40.554 -25.769 -14.339  0.00  0.00    +0.093 S 
ATOM      9  O   UNL     1      41.087 -24.458 -14.026  0.00  0.00    -0.142 OA
ATOM     10  O   UNL     1      41.308 -26.967 -14.019  0.00  0.00    -0.142 OA
BRANCH   8  11
ATOM     11  N   UNL     1      40.163 -25.801 -16.010  0.00  0.00    -0.193 NA
ATOM     12  H   UNL     1      40.523 -24.960 -16.460  0.00  0.00    +0.145 HD
ATOM     13  H   UNL     1      39.150 -25.840 -16.121  0.00  0.00    +0.145 HD
ENDBRANCH   8  11
ENDBRANCH   6   8
ENDBRANCH   1   6
BRANCH   1  14
ATOM     14  C   UNL     1      36.726 -24.973 -13.985  0.00  0.00    +0.055 C 
BRANCH  14  15
ATOM     15  C   UNL     1      36.311 -24.024 -15.085  0.00  0.00    -0.020 C 
ATOM     16  C   UNL     1      34.992 -24.018 -15.513  0.00  0.00    -0.004 C 
ATOM     17  C   UNL     1      37.254 -23.179 -15.646  0.00  0.00    -0.004 C 
ATOM     18  C   UNL     1      34.608 -23.142 -16.529  0.00  0.00    -0.000 C 
ATOM     19  C   UNL     1      36.869 -22.304 -16.661  0.00  0.00    -0.000 C 
ATOM     20  C   UNL     1      35.546 -22.284 -17.103  0.00  0.00    -0.000 C 
ENDBRANCH  14  15
ENDBRANCH   1  14
TORSDOF 7
ENDMDL
MODEL 2
REMARK VINA RESULT:      -7.7     10.078     11.411
REMARK  Name = 446382
REMARK  7 active torsions:
REMARK  status: ('A' for Active; 'I' for Inactive)
REMARK    1  A    between atoms: C_1  and  C_3
REMARK    2  A    between atoms: C_1  and  N_6
REMARK    3  A    between atoms: C_1  and  C_14
REMARK    4  A    between atoms: C_3  and  O_4
REMARK    5  A    between atoms: N_6  and  S_8
REMARK    6  A    between atoms: S_8  and  N_11
REMARK    7  A    between atoms: C_14  and  C_15
REMARK                            x       y       z     vdW  Elec       q    Type
REMARK                         _______ _______ _______ _____ _____    ______ ____
ROOT
ATOM      1  C   UNL     1      35.020 -17.295 -22.222  0.00  0.00    +0.179 C 
ENDROOT
BRANCH   1   3
ATOM      2  O   UNL     1      35.057 -16.148 -20.092  0.00  0.00    -0.249 OA
ATOM      3  C   UNL     1      34.882 -16.088 -21.305  0.00  0.00    +0.330 C 
BRANCH   3   4
ATOM      4  O   UNL     1      34.556 -14.932 -21.931  0.00  0.00    -0.479 OA
ATOM      5  H   UNL     1      33.718 -14.842 -22.341  0.00  0.00    +0.295 HD
ENDBRANCH   3   4
ENDBRANCH   1   3
BRANCH   1   6
ATOM      6  N   UNL     1      35.574 -16.916 -23.499  0.00  0.00    -0.160 NA
ATOM      7  H   UNL     1      35.881 -15.947 -23.415  0.00  0.00    +0.150 HD
BRANCH   6   8
ATOM      8  S   UNL     1      34.580 -17.009 -24.914  0.00  0.00    +0.093 S 
ATOM      9  O   UNL     1      35.378 -16.668 -26.076  0.00  0.00    -0.142 OA
ATOM     10  O   UNL     1      33.832 -18.252 -24.873  0.00  0.00    -0.142 OA
BRANCH   8  11
ATOM     11  N   UNL     1      33.500 -15.711 -24.608  0.00  0.00    -0.193 NA
ATOM     12  H   UNL     1      33.242 -15.708 -23.621  0.00  0.00    +0.145 HD
ATOM     13  H   UNL     1      32.662 -15.825 -25.178  0.00  0.00    +0.145 HD
ENDBRANCH   8  11
ENDBRANCH   6   8
ENDBRANCH   1   6
BRANCH   1  14
ATOM     14  C   UNL     1      35.876 -18.372 -21.546  0.00  0.00    +0.055 C 
BRANCH  14  15
ATOM     15  C   UNL     1      35.050 -19.453 -20.889  0.00  0.00    -0.020 C 
ATOM     16  C   UNL     1      35.692 -20.477 -20.208  0.00  0.00    -0.004 C 
ATOM     17  C   UNL     1      33.668 -19.402 -20.977  0.00  0.00    -0.004 C 
ATOM     18  C   UNL     1      34.929 -21.475 -19.601  0.00  0.00    -0.000 C 
ATOM     19  C   UNL     1      32.908 -20.400 -20.369  0.00  0.00    -0.000 C 
ATOM     20  C   UNL     1      33.537 -21.436 -19.681  0.00  0.00    -0.000 C 
ENDBRANCH  14  15
ENDBRANCH   1  14
TORSDOF 7
ENDMDL
MODEL 3
REMARK VINA RESULT:      -7.6      2.859      3.762
REMARK  Name = 446382
REMARK  7 active torsions:
REMARK  status: ('A' for Active; 'I' for Inactive)
REMARK    1  A    between atoms: C_1  and  C_3
REMARK    2  A    between atoms: C_1  and  N_6
REMARK    3  A    between atoms: C_1  and  C_14
REMARK    4  A    between atoms: C_3  and  O_4
REMARK    5  A    between atoms: N_6  and  S_8
REMARK    6  A    between atoms: S_8  and  N_11
REMARK    7  A    between atoms: C_14  and  C_15
REMARK                            x       y       z     vdW  Elec       q    Type
REMARK                         _______ _______ _______ _____ _____    ______ ____
ROOT
ATOM      1  C   UNL     1      34.931 -24.211 -14.549  0.00  0.00    +0.179 C 
ENDROOT
BRANCH   1   3
ATOM      2  O   UNL     1      34.911 -24.620 -12.165  0.00  0.00    -0.249 OA
ATOM      3  C   UNL     1      34.356 -24.130 -13.143  0.00  0.00    +0.330 C 
BRANCH   3   4
ATOM      4  O   UNL     1      33.179 -23.467 -13.047  0.00  0.00    -0.479 OA
ATOM      5  H   UNL     1      32.437 -23.755 -13.543  0.00  0.00    +0.295 HD
ENDBRANCH   3   4
ENDBRANCH   1   3
BRANCH   1   6
ATOM      6  N   UNL     1      35.162 -25.580 -14.938  0.00  0.00    -0.160 NA
ATOM      7  H   UNL     1      34.630 -26.166 -14.296  0.00  0.00    +0.150 HD
BRANCH   6   8
ATOM      8  S   UNL     1      36.782 -26.193 -14.957  0.00  0.00    +0.093 S 
ATOM      9  O   UNL     1      36.883 -27.234 -15.961  0.00  0.00    -0.142 OA
ATOM     10  O   UNL     1      37.702 -25.071 -14.964  0.00  0.00    -0.142 OA
BRANCH   8  11
ATOM     11  N   UNL     1      36.840 -26.935 -13.410  0.00  0.00    -0.193 NA
ATOM     12  H   UNL     1      37.732 -26.722 -12.964  0.00  0.00    +0.145 HD
ATOM     13  H   UNL     1      36.743 -27.945 -13.514  0.00  0.00    +0.145 HD
ENDBRANCH   8  11
ENDBRANCH   6   8
ENDBRANCH   1   6
BRANCH   1  14
ATOM     14  C   UNL     1      33.996 -23.505 -15.539  0.00  0.00    +0.055 C 
BRANCH  14  15
ATOM     15  C   UNL     1      34.734 -22.867 -16.693  0.00  0.00    -0.020 C 
ATOM     16  C   UNL     1      36.041 -22.444 -16.511  0.00  0.00    -0.004 C 
ATOM     17  C   UNL     1      34.090 -22.717 -17.911  0.00  0.00    -0.004 C 
ATOM     18  C   UNL     1      36.722 -21.854 -17.577  0.00  0.00    -0.000 C 
ATOM     19  C   UNL     1      34.772 -22.128 -18.975  0.00  0.00    -0.000 C 
ATOM     20  C   UNL     1      36.088 -21.697 -18.809  0.00  0.00    -0.000 C 
ENDBRANCH  14  15
ENDBRANCH   1  14
TORSDOF 7
ENDMDL
MODEL 4
REMARK VINA RESULT:      -7.6      2.524      3.158
REMARK  Name = 446382
REMARK  7 active torsions:
REMARK  status: ('A' for Active; 'I' for Inactive)
REMARK    1  A    between atoms: C_1  and  C_3
REMARK    2  A    between atoms: C_1  and  N_6
REMARK    3  A    between atoms: C_1  and  C_14
REMARK    4  A    between atoms: C_3  and  O_4
REMARK    5  A    between atoms: N_6  and  S_8
REMARK    6  A    between atoms: S_8  and  N_11
REMARK    7  A    between atoms: C_14  and  C_15
REMARK                            x       y       z     vdW  Elec       q    Type
REMARK                         _______ _______ _______ _____ _____    ______ ____
ROOT
ATOM      1  C   UNL     1      35.485 -24.297 -14.397  0.00  0.00    +0.179 C 
ENDROOT
BRANCH   1   3
ATOM      2  O   UNL     1      36.056 -23.295 -12.270  0.00  0.00    -0.249 OA
ATOM      3  C   UNL     1      35.385 -24.115 -12.890  0.00  0.00    +0.330 C 
BRANCH   3   4
ATOM      4  O   UNL     1      34.489 -24.925 -12.277  0.00  0.00    -0.479 OA
ATOM      5  H   UNL     1      34.704 -25.823 -12.117  0.00  0.00    +0.295 HD
ENDBRANCH   3   4
ENDBRANCH   1   3
BRANCH   1   6
ATOM      6  N   UNL     1      35.430 -25.692 -14.757  0.00  0.00    -0.160 NA
ATOM      7  H   UNL     1      34.936 -26.174 -14.006  0.00  0.00    +0.150 HD
BRANCH   6   8
ATOM      8  S   UNL     1      36.907 -26.556 -15.025  0.00  0.00    +0.093 S 
ATOM      9  O   UNL     1      37.326 -27.176 -13.783  0.00  0.00    -0.142 OA
ATOM     10  O   UNL     1      36.768 -27.348 -16.233  0.00  0.00    -0.142 OA
BRANCH   8  11
ATOM     11  N   UNL     1      37.966 -25.245 -15.351  0.00  0.00    -0.193 NA
ATOM     12  H   UNL     1      37.767 -24.869 -16.279  0.00  0.00    +0.145 HD
ATOM     13  H   UNL     1      38.931 -25.571 -15.316  0.00  0.00    +0.145 HD
ENDBRANCH   8  11
ENDBRANCH   6   8
ENDBRANCH   1   6
BRANCH   1  14
ATOM     14  C   UNL     1      34.376 -23.501 -15.096  0.00  0.00    +0.055 C 
BRANCH  14  15
ATOM     15  C   UNL     1      34.809 -22.929 -16.425  0.00  0.00    -0.020 C 
ATOM     16  C   UNL     1      33.921 -22.939 -17.489  0.00  0.00    -0.004 C 
ATOM     17  C   UNL     1      36.085 -22.405 -16.556  0.00  0.00    -0.004 C 
ATOM     18  C   UNL     1      34.320 -22.410 -18.717  0.00  0.00    -0.000 C 
ATOM     19  C   UNL     1      36.483 -21.877 -17.783  0.00  0.00    -0.000 C 
ATOM     20  C   UNL     1      35.602 -21.879 -18.864  0.00  0.00    -0.000 C 
ENDBRANCH  14  15
ENDBRANCH   1  14
TORSDOF 7
ENDMDL
MODEL 5
REMARK VINA RESULT:      -7.5      2.750      4.093
REMARK  Name = 446382
REMARK  7 active torsions:
REMARK  status: ('A' for Active; 'I' for Inactive)
REMARK    1  A    between atoms: C_1  and  C_3
REMARK    2  A    between atoms: C_1  and  N_6
REMARK    3  A    between atoms: C_1  and  C_14
REMARK    4  A    between atoms: C_3  and  O_4
REMARK    5  A    between atoms: N_6  and  S_8
REMARK    6  A    between atoms: S_8  and  N_11
REMARK    7  A    between atoms: C_14  and  C_15
REMARK                            x       y       z     vdW  Elec       q    Type
REMARK                         _______ _______ _______ _____ _____    ______ ____
ROOT
ATOM      1  C   UNL     1      36.152 -24.778 -14.572  0.00  0.00    +0.179 C 
ENDROOT
BRANCH   1   3
ATOM      2  O   UNL     1      36.143 -26.856 -15.810  0.00  0.00    -0.249 OA
ATOM      3  C   UNL     1      36.794 -25.960 -15.282  0.00  0.00    +0.330 C 
BRANCH   3   4
ATOM      4  O   UNL     1      38.149 -25.949 -15.295  0.00  0.00    -0.479 OA
ATOM      5  H   UNL     1      38.627 -26.391 -14.621  0.00  0.00    +0.295 HD
ENDBRANCH   3   4
ENDBRANCH   1   3
BRANCH   1   6
ATOM      6  N   UNL     1      36.958 -24.341 -13.458  0.00  0.00    -0.160 NA
ATOM      7  H   UNL     1      37.926 -24.567 -13.684  0.00  0.00    +0.150 HD
BRANCH   6   8
ATOM      8  S   UNL     1      36.643 -24.985 -11.881  0.00  0.00    +0.093 S 
ATOM      9  O   UNL     1      37.013 -26.387 -11.861  0.00  0.00    -0.142 OA
ATOM     10  O   UNL     1      37.175 -24.068 -10.891  0.00  0.00    -0.142 OA
BRANCH   8  11
ATOM     11  N   UNL     1      34.930 -24.885 -11.853  0.00  0.00    -0.193 NA
ATOM     12  H   UNL     1      34.552 -25.280 -12.714  0.00  0.00    +0.145 HD
ATOM     13  H   UNL     1      34.648 -23.908 -11.774  0.00  0.00    +0.145 HD
ENDBRANCH   8  11
ENDBRANCH   6   8
ENDBRANCH   1   6
BRANCH   1  14
ATOM     14  C   UNL     1      35.917 -23.634 -15.566  0.00  0.00    +0.055 C 
BRANCH  14  15
ATOM     15  C   UNL     1      34.456 -23.426 -15.889  0.00  0.00    -0.020 C 
ATOM     16  C   UNL     1      33.517 -23.517 -14.874  0.00  0.00    -0.004 C 
ATOM     17  C   UNL     1      34.082 -23.149 -17.194  0.00  0.00    -0.004 C 
ATOM     18  C   UNL     1      32.167 -23.326 -15.172  0.00  0.00    -0.000 C 
ATOM     19  C   UNL     1      32.733 -22.957 -17.492  0.00  0.00    -0.000 C 
ATOM     20  C   UNL     1      31.776 -23.045 -16.481  0.00  0.00    -0.000 C 
ENDBRANCH  14  15
ENDBRANCH   1  14
TORSDOF 7
ENDMDL
MODEL 6
REMARK VINA RESULT:      -7.4      2.454      3.136
REMARK  Name = 446382
REMARK  7 active torsions:
REMARK  status: ('A' for Active; 'I' for Inactive)
REMARK    1  A    between atoms: C_1  and  C_3
REMARK    2  A    between atoms: C_1  and  N_6
REMARK    3  A    between atoms: C_1  and  C_14
REMARK    4  A    between atoms: C_3  and  O_4
REMARK    5  A    between atoms: N_6  and  S_8
REMARK    6  A    between atoms: S_8  and  N_11
REMARK    7  A    between atoms: C_14  and  C_15
REMARK                            x       y       z     vdW  Elec       q    Type
REMARK                         _______ _______ _______ _____ _____    ______ ____
ROOT
ATOM      1  C   UNL     1      36.264 -24.500 -13.074  0.00  0.00    +0.179 C 
ENDROOT
BRANCH   1   3
ATOM      2  O   UNL     1      36.804 -24.082 -10.753  0.00  0.00    -0.249 OA
ATOM      3  C   UNL     1      37.136 -24.000 -11.931  0.00  0.00    +0.330 C 
BRANCH   3   4
ATOM      4  O   UNL     1      38.318 -23.459 -12.312  0.00  0.00    -0.479 OA
ATOM      5  H   UNL     1      38.854 -23.901 -12.942  0.00  0.00    +0.295 HD
ENDBRANCH   3   4
ENDBRANCH   1   3
BRANCH   1   6
ATOM      6  N   UNL     1      36.517 -25.893 -13.348  0.00  0.00    -0.160 NA
ATOM      7  H   UNL     1      37.126 -26.237 -12.607  0.00  0.00    +0.150 HD
BRANCH   6   8
ATOM      8  S   UNL     1      37.249 -26.340 -14.853  0.00  0.00    +0.093 S 
ATOM      9  O   UNL     1      38.310 -27.295 -14.598  0.00  0.00    -0.142 OA
ATOM     10  O   UNL     1      36.200 -26.642 -15.808  0.00  0.00    -0.142 OA
BRANCH   8  11
ATOM     11  N   UNL     1      37.971 -24.845 -15.290  0.00  0.00    -0.193 NA
ATOM     12  H   UNL     1      38.932 -25.007 -15.593  0.00  0.00    +0.145 HD
ATOM     13  H   UNL     1      37.969 -24.218 -14.486  0.00  0.00    +0.145 HD
ENDBRANCH   8  11
ENDBRANCH   6   8
ENDBRANCH   1   6
BRANCH   1  14
ATOM     14  C   UNL     1      34.785 -24.260 -12.748  0.00  0.00    +0.055 C 
BRANCH  14  15
ATOM     15  C   UNL     1      33.958 -23.937 -13.971  0.00  0.00    -0.020 C 
ATOM     16  C   UNL     1      34.597 -23.559 -15.141  0.00  0.00    -0.004 C 
ATOM     17  C   UNL     1      32.577 -24.026 -13.899  0.00  0.00    -0.004 C 
ATOM     18  C   UNL     1      33.833 -23.261 -16.271  0.00  0.00    -0.000 C 
ATOM     19  C   UNL     1      31.815 -23.728 -15.029  0.00  0.00    -0.000 C 
ATOM     20  C   UNL     1      32.442 -23.346 -16.214  0.00  0.00    -0.000 C 
ENDBRANCH  14  15
ENDBRANCH   1  14
TORSDOF 7
ENDMDL
MODEL 7
REMARK VINA RESULT:      -7.4      2.841      4.337
REMARK  Name = 446382
REMARK  7 active torsions:
REMARK  status: ('A' for Active; 'I' for Inactive)
REMARK    1  A    between atoms: C_1  and  C_3
REMARK    2  A    between atoms: C_1  and  N_6
REMARK    3  A    between atoms: C_1  and  C_14
REMARK    4  A    between atoms: C_3  and  O_4
REMARK    5  A    between atoms: N_6  and  S_8
REMARK    6  A    between atoms: S_8  and  N_11
REMARK    7  A    between atoms: C_14  and  C_15
REMARK                            x       y       z     vdW  Elec       q    Type
REMARK                         _______ _______ _______ _____ _____    ______ ____
ROOT
ATOM      1  C   UNL     1      35.839 -24.665 -14.528  0.00  0.00    +0.179 C 
ENDROOT
BRANCH   1   3
ATOM      2  O   UNL     1      36.127 -26.755 -15.711  0.00  0.00    -0.249 OA
ATOM      3  C   UNL     1      36.642 -25.758 -15.217  0.00  0.00    +0.330 C 
BRANCH   3   4
ATOM      4  O   UNL     1      37.980 -25.544 -15.252  0.00  0.00    -0.479 OA
ATOM      5  H   UNL     1      38.552 -26.071 -14.729  0.00  0.00    +0.295 HD
ENDBRANCH   3   4
ENDBRANCH   1   3
BRANCH   1   6
ATOM      6  N   UNL     1      36.555 -24.128 -13.397  0.00  0.00    -0.160 NA
ATOM      7  H   UNL     1      37.546 -24.300 -13.563  0.00  0.00    +0.150 HD
BRANCH   6   8
ATOM      8  S   UNL     1      36.198 -24.721 -11.809  0.00  0.00    +0.093 S 
ATOM      9  O   UNL     1      37.001 -23.998 -10.842  0.00  0.00    -0.142 OA
ATOM     10  O   UNL     1      34.758 -24.802 -11.658  0.00  0.00    -0.142 OA
BRANCH   8  11
ATOM     11  N   UNL     1      36.824 -26.314 -11.937  0.00  0.00    -0.193 NA
ATOM     12  H   UNL     1      37.593 -26.432 -11.277  0.00  0.00    +0.145 HD
ATOM     13  H   UNL     1      37.164 -26.471 -12.886  0.00  0.00    +0.145 HD
ENDBRANCH   8  11
ENDBRANCH   6   8
ENDBRANCH   1   6
BRANCH   1  14
ATOM     14  C   UNL     1      35.485 -23.562 -15.533  0.00  0.00    +0.055 C 
BRANCH  14  15
ATOM     15  C   UNL     1      33.995 -23.378 -15.705  0.00  0.00    -0.020 C 
ATOM     16  C   UNL     1      33.475 -23.215 -16.979  0.00  0.00    -0.004 C 
ATOM     17  C   UNL     1      33.177 -23.377 -14.586  0.00  0.00    -0.004 C 
ATOM     18  C   UNL     1      32.099 -23.045 -17.138  0.00  0.00    -0.000 C 
ATOM     19  C   UNL     1      31.802 -23.208 -14.746  0.00  0.00    -0.000 C 
ATOM     20  C   UNL     1      31.262 -23.042 -16.022  0.00  0.00    -0.000 C 
ENDBRANCH  14  15
ENDBRANCH   1  14
TORSDOF 7
ENDMDL
MODEL 8
REMARK VINA RESULT:      -7.4      2.840      4.137
REMARK  Name = 446382
REMARK  7 active torsions:
REMARK  status: ('A' for Active; 'I' for Inactive)
REMARK    1  A    between atoms: C_1  and  C_3
REMARK    2  A    between atoms: C_1  and  N_6
REMARK    3  A    between atoms: C_1  and  C_14
REMARK    4  A    between atoms: C_3  and  O_4
REMARK    5  A    between atoms: N_6  and  S_8
REMARK    6  A    between atoms: S_8  and  N_11
REMARK    7  A    between atoms: C_14  and  C_15
REMARK                            x       y       z     vdW  Elec       q    Type
REMARK                         _______ _______ _______ _____ _____    ______ ____
ROOT
ATOM      1  C   UNL     1      36.409 -25.330 -14.050  0.00  0.00    +0.179 C 
ENDROOT
BRANCH   1   3
ATOM      2  O   UNL     1      36.327 -26.968 -15.828  0.00  0.00    -0.249 OA
ATOM      3  C   UNL     1      36.928 -26.507 -14.863  0.00  0.00    +0.330 C 
BRANCH   3   4
ATOM      4  O   UNL     1      38.114 -27.008 -14.443  0.00  0.00    -0.479 OA
ATOM      5  H   UNL     1      38.491 -27.747 -14.880  0.00  0.00    +0.295 HD
ENDBRANCH   3   4
ENDBRANCH   1   3
BRANCH   1   6
ATOM      6  N   UNL     1      36.487 -25.601 -12.635  0.00  0.00    -0.160 NA
ATOM      7  H   UNL     1      36.124 -26.542 -12.492  0.00  0.00    +0.150 HD
BRANCH   6   8
ATOM      8  S   UNL     1      35.651 -24.563 -11.528  0.00  0.00    +0.093 S 
ATOM      9  O   UNL     1      34.662 -23.793 -12.256  0.00  0.00    -0.142 OA
ATOM     10  O   UNL     1      35.270 -25.339 -10.364  0.00  0.00    -0.142 OA
BRANCH   8  11
ATOM     11  N   UNL     1      36.929 -23.507 -11.085  0.00  0.00    -0.193 NA
ATOM     12  H   UNL     1      37.231 -23.718 -10.133  0.00  0.00    +0.145 HD
ATOM     13  H   UNL     1      36.605 -22.541 -11.133  0.00  0.00    +0.145 HD
ENDBRANCH   8  11
ENDBRANCH   6   8
ENDBRANCH   1   6
BRANCH   1  14
ATOM     14  C   UNL     1      37.187 -24.059 -14.413  0.00  0.00    +0.055 C 
BRANCH  14  15
ATOM     15  C   UNL     1      36.606 -23.333 -15.603  0.00  0.00    -0.020 C 
ATOM     16  C   UNL     1      37.422 -22.503 -16.356  0.00  0.00    -0.004 C 
ATOM     17  C   UNL     1      35.268 -23.510 -15.921  0.00  0.00    -0.004 C 
ATOM     18  C   UNL     1      36.885 -21.832 -17.456  0.00  0.00    -0.000 C 
ATOM     19  C   UNL     1      34.734 -22.839 -17.021  0.00  0.00    -0.000 C 
ATOM     20  C   UNL     1      35.541 -22.001 -17.788  0.00  0.00    -0.000 C 
ENDBRANCH  14  15
ENDBRANCH   1  14
TORSDOF 7
ENDMDL
MODEL 9
REMARK VINA RESULT:      -7.3      1.533      2.262
REMARK  Name = 446382
REMARK  7 active torsions:
REMARK  status: ('A' for Active; 'I' for Inactive)
REMARK    1  A    between atoms: C_1  and  C_3
REMARK    2  A    between atoms: C_1  and  N_6
REMARK    3  A    between atoms: C_1  and  C_14
REMARK    4  A    between atoms: C_3  and  O_4
REMARK    5  A    between atoms: N_6  and  S_8
REMARK    6  A    between atoms: S_8  and  N_11
REMARK    7  A    between atoms: C_14  and  C_15
REMARK                            x       y       z     vdW  Elec       q    Type
REMARK                         _______ _______ _______ _____ _____    ______ ____
ROOT
ATOM      1  C   UNL     1      37.698 -24.284 -13.008  0.00  0.00    +0.179 C 
ENDROOT
BRANCH   1   3
ATOM      2  O   UNL     1      38.183 -22.254 -11.784  0.00  0.00    -0.249 OA
ATOM      3  C   UNL     1      37.646 -23.357 -11.802  0.00  0.00    +0.330 C 
BRANCH   3   4
ATOM      4  O   UNL     1      36.951 -23.839 -10.744  0.00  0.00    -0.479 OA
ATOM      5  H   UNL     1      36.083 -24.172 -10.866  0.00  0.00    +0.295 HD
ENDBRANCH   3   4
ENDBRANCH   1   3
BRANCH   1   6
ATOM      6  N   UNL     1      38.875 -25.116 -12.973  0.00  0.00    -0.160 NA
ATOM      7  H   UNL     1      39.598 -24.589 -12.485  0.00  0.00    +0.150 HD
BRANCH   6   8
ATOM      8  S   UNL     1      39.569 -25.663 -14.463  0.00  0.00    +0.093 S 
ATOM      9  O   UNL     1      41.010 -25.724 -14.320  0.00  0.00    -0.142 OA
ATOM     10  O   UNL     1      38.825 -26.820 -14.923  0.00  0.00    -0.142 OA
BRANCH   8  11
ATOM     11  N   UNL     1      39.188 -24.332 -15.477  0.00  0.00    -0.193 NA
ATOM     12  H   UNL     1      38.343 -23.874 -15.136  0.00  0.00    +0.145 HD
ATOM     13  H   UNL     1      39.035 -24.662 -16.430  0.00  0.00    +0.145 HD
ENDBRANCH   8  11
ENDBRANCH   6   8
ENDBRANCH   1   6
BRANCH   1  14
ATOM     14  C   UNL     1      36.422 -25.133 -13.071  0.00  0.00    +0.055 C 
BRANCH  14  15
ATOM     15  C   UNL     1      35.329 -24.493 -13.894  0.00  0.00    -0.020 C 
ATOM     16  C   UNL     1      35.597 -24.112 -15.200  0.00  0.00    -0.004 C 
ATOM     17  C   UNL     1      34.079 -24.299 -13.329  0.00  0.00    -0.004 C 
ATOM     18  C   UNL     1      34.587 -23.521 -15.960  0.00  0.00    -0.000 C 
ATOM     19  C   UNL     1      33.070 -23.708 -14.089  0.00  0.00    -0.000 C 
ATOM     20  C   UNL     1      33.323 -23.320 -15.404  0.00  0.00    -0.000 C 
ENDBRANCH  14  15
ENDBRANCH   1  14
TORSDOF 7
ENDMDL
