MODEL 1
REMARK VINA RESULT:      -7.4      0.000      0.000
REMARK  Name = 167842
REMARK  5 active torsions:
REMARK  status: ('A' for Active; 'I' for Inactive)
REMARK    1  A    between atoms: N_4  and  C_11
REMARK    2  A    between atoms: C_11  and  CA_12
REMARK    3  A    between atoms: CA_12  and  N_13
REMARK    4  A    between atoms: CA_12  and  C_18
REMARK    5  A    between atoms: C_18  and  O_19
REMARK                            x       y       z     vdW  Elec       q    Type
REMARK                         _______ _______ _______ _____ _____    ______ ____
ROOT
ATOM      1 BR   UNL     1      33.786 -23.371 -16.234  0.00  0.00    -0.043 Br
ATOM      2  O   UNL     1      36.475 -25.245 -11.264  0.00  0.00    -0.252 OA
ATOM      3  O   UNL     1      32.596 -24.214 -13.505  0.00  0.00    -0.269 OA
ATOM      4  N   UNL     1      36.633 -24.505 -13.472  0.00  0.00    -0.243 N 
ATOM      5  N   UNL     1      34.550 -24.725 -12.398  0.00  0.00    -0.235 N 
ATOM      6  C   UNL     1      35.940 -24.853 -12.304  0.00  0.00    +0.314 C 
ATOM      7  C   UNL     1      35.975 -24.075 -14.605  0.00  0.00    +0.080 C 
ATOM      8  C   UNL     1      34.646 -23.955 -14.688  0.00  0.00    +0.103 C 
ATOM      9  C   UNL     1      33.821 -24.301 -13.500  0.00  0.00    +0.260 C 
ATOM     10  H   UNL     1      34.032 -24.961 -11.595  0.00  0.00    +0.159 HD
ENDROOT
BRANCH   4  11
ATOM     11  C   UNL     1      38.088 -24.590 -13.521  0.00  0.00    +0.089 C 
BRANCH  11  12
ATOM     12  CA  UNL     1      38.567 -25.454 -14.690  0.00  0.00    +0.056 C 
BRANCH  12  13
ATOM     13  N   UNL     1      38.295 -26.863 -14.413  0.00  0.00    +0.390 N 
ATOM     14  H1  UNL     1      39.148 -27.406 -14.548  0.00  0.00    -0.088 HD
ATOM     15  H2  UNL     1      37.571 -27.202 -15.046  0.00  0.00    -0.088 HD
ATOM     16  H3  UNL     1      37.979 -26.964 -13.448  0.00  0.00    -0.088 HD
ENDBRANCH  12  13
BRANCH  12  18
ATOM     17  OXT UNL     1      40.855 -24.766 -14.191  0.00  0.00    -0.253 OA
ATOM     18  C   UNL     1      40.063 -25.338 -14.929  0.00  0.00    +0.295 C 
BRANCH  18  19
ATOM     19  O   UNL     1      40.447 -25.964 -16.075  0.00  0.00    -0.482 OA
ATOM     20  H   UNL     1      40.434 -26.899 -16.125  0.00  0.00    +0.295 HD
ENDBRANCH  18  19
ENDBRANCH  12  18
ENDBRANCH  11  12
ENDBRANCH   4  11
TORSDOF 5
ENDMDL
MODEL 2
REMARK VINA RESULT:      -6.9      2.414      3.039
REMARK  Name = 167842
REMARK  5 active torsions:
REMARK  status: ('A' for Active; 'I' for Inactive)
REMARK    1  A    between atoms: N_4  and  C_11
REMARK    2  A    between atoms: C_11  and  CA_12
REMARK    3  A    between atoms: CA_12  and  N_13
REMARK    4  A    between atoms: CA_12  and  C_18
REMARK    5  A    between atoms: C_18  and  O_19
REMARK                            x       y       z     vdW  Elec       q    Type
REMARK                         _______ _______ _______ _____ _____    ______ ____
ROOT
ATOM      1 BR   UNL     1      33.623 -22.494 -18.651  0.00  0.00    -0.043 Br
ATOM      2  O   UNL     1      32.725 -24.578 -13.148  0.00  0.00    -0.252 OA
ATOM      3  O   UNL     1      31.015 -22.760 -17.009  0.00  0.00    -0.269 OA
ATOM      4  N   UNL     1      34.197 -24.096 -14.893  0.00  0.00    -0.243 N 
ATOM      5  N   UNL     1      31.890 -23.670 -15.082  0.00  0.00    -0.235 N 
ATOM      6  C   UNL     1      32.935 -24.150 -14.286  0.00  0.00    +0.314 C 
ATOM      7  C   UNL     1      34.366 -23.607 -16.172  0.00  0.00    +0.080 C 
ATOM      8  C   UNL     1      33.362 -23.149 -16.927  0.00  0.00    +0.103 C 
ATOM      9  C   UNL     1      31.983 -23.164 -16.371  0.00  0.00    +0.260 C 
ATOM     10  H   UNL     1      30.989 -23.693 -14.685  0.00  0.00    +0.159 HD
ENDROOT
BRANCH   4  11
ATOM     11  C   UNL     1      35.381 -24.564 -14.182  0.00  0.00    +0.089 C 
BRANCH  11  12
ATOM     12  CA  UNL     1      36.325 -25.343 -15.101  0.00  0.00    +0.056 C 
BRANCH  12  13
ATOM     13  N   UNL     1      36.103 -26.778 -14.942  0.00  0.00    +0.390 N 
ATOM     14  H1  UNL     1      36.780 -27.155 -14.278  0.00  0.00    -0.088 HD
ATOM     15  H2  UNL     1      36.215 -27.243 -15.843  0.00  0.00    -0.088 HD
ATOM     16  H3  UNL     1      35.159 -26.940 -14.591  0.00  0.00    -0.088 HD
ENDBRANCH  12  13
BRANCH  12  18
ATOM     17  OXT UNL     1      38.214 -24.187 -14.076  0.00  0.00    -0.253 OA
ATOM     18  C   UNL     1      37.790 -25.090 -14.785  0.00  0.00    +0.295 C 
BRANCH  18  19
ATOM     19  O   UNL     1      38.604 -26.005 -15.378  0.00  0.00    -0.482 OA
ATOM     20  H   UNL     1      38.737 -25.983 -16.305  0.00  0.00    +0.295 HD
ENDBRANCH  18  19
ENDBRANCH  12  18
ENDBRANCH  11  12
ENDBRANCH   4  11
TORSDOF 5
ENDMDL
MODEL 3
REMARK VINA RESULT:      -6.9      3.135      4.068
REMARK  Name = 167842
REMARK  5 active torsions:
REMARK  status: ('A' for Active; 'I' for Inactive)
REMARK    1  A    between atoms: N_4  and  C_11
REMARK    2  A    between atoms: C_11  and  CA_12
REMARK    3  A    between atoms: CA_12  and  N_13
REMARK    4  A    between atoms: CA_12  and  C_18
REMARK    5  A    between atoms: C_18  and  O_19
REMARK                            x       y       z     vdW  Elec       q    Type
REMARK                         _______ _______ _______ _____ _____    ______ ____
ROOT
ATOM      1 BR   UNL     1      33.807 -22.512 -18.590  0.00  0.00    -0.043 Br
ATOM      2  O   UNL     1      32.636 -24.650 -13.159  0.00  0.00    -0.252 OA
ATOM      3  O   UNL     1      31.133 -22.708 -17.045  0.00  0.00    -0.269 OA
ATOM      4  N   UNL     1      34.186 -24.194 -14.842  0.00  0.00    -0.243 N 
ATOM      5  N   UNL     1      31.904 -23.681 -15.105  0.00  0.00    -0.235 N 
ATOM      6  C   UNL     1      32.902 -24.211 -14.281  0.00  0.00    +0.314 C 
ATOM      7  C   UNL     1      34.420 -23.690 -16.105  0.00  0.00    +0.080 C 
ATOM      8  C   UNL     1      33.460 -23.185 -16.888  0.00  0.00    +0.103 C 
ATOM      9  C   UNL     1      32.063 -23.158 -16.381  0.00  0.00    +0.260 C 
ATOM     10  H   UNL     1      30.990 -23.677 -14.740  0.00  0.00    +0.159 HD
ENDROOT
BRANCH   4  11
ATOM     11  C   UNL     1      35.327 -24.716 -14.097  0.00  0.00    +0.089 C 
BRANCH  11  12
ATOM     12  CA  UNL     1      35.852 -23.702 -13.079  0.00  0.00    +0.056 C 
BRANCH  12  13
ATOM     13  N   UNL     1      37.190 -23.258 -13.462  0.00  0.00    +0.390 N 
ATOM     14  H1  UNL     1      37.680 -24.020 -13.931  0.00  0.00    -0.088 HD
ATOM     15  H2  UNL     1      37.709 -22.980 -12.630  0.00  0.00    -0.088 HD
ATOM     16  H3  UNL     1      37.115 -22.463 -14.098  0.00  0.00    -0.088 HD
ENDBRANCH  12  13
BRANCH  12  18
ATOM     17  OXT UNL     1      36.886 -24.064 -10.898  0.00  0.00    -0.253 OA
ATOM     18  C   UNL     1      35.971 -24.285 -11.681  0.00  0.00    +0.295 C 
BRANCH  18  19
ATOM     19  O   UNL     1      34.918 -25.091 -11.373  0.00  0.00    -0.482 OA
ATOM     20  H   UNL     1      34.471 -25.556 -12.051  0.00  0.00    +0.295 HD
ENDBRANCH  18  19
ENDBRANCH  12  18
ENDBRANCH  11  12
ENDBRANCH   4  11
TORSDOF 5
ENDMDL
MODEL 4
REMARK VINA RESULT:      -6.8      3.943      5.096
REMARK  Name = 167842
REMARK  5 active torsions:
REMARK  status: ('A' for Active; 'I' for Inactive)
REMARK    1  A    between atoms: N_4  and  C_11
REMARK    2  A    between atoms: C_11  and  CA_12
REMARK    3  A    between atoms: CA_12  and  N_13
REMARK    4  A    between atoms: CA_12  and  C_18
REMARK    5  A    between atoms: C_18  and  O_19
REMARK                            x       y       z     vdW  Elec       q    Type
REMARK                         _______ _______ _______ _____ _____    ______ ____
ROOT
ATOM      1 BR   UNL     1      40.009 -25.433 -14.641  0.00  0.00    -0.043 Br
ATOM      2  O   UNL     1      34.182 -24.338 -15.169  0.00  0.00    -0.252 OA
ATOM      3  O   UNL     1      37.567 -27.214 -13.983  0.00  0.00    -0.269 OA
ATOM      4  N   UNL     1      36.387 -23.617 -15.416  0.00  0.00    -0.243 N 
ATOM      5  N   UNL     1      35.883 -25.760 -14.583  0.00  0.00    -0.235 N 
ATOM      6  C   UNL     1      35.394 -24.543 -15.069  0.00  0.00    +0.314 C 
ATOM      7  C   UNL     1      37.729 -23.906 -15.280  0.00  0.00    +0.080 C 
ATOM      8  C   UNL     1      38.190 -25.072 -14.814  0.00  0.00    +0.103 C 
ATOM      9  C   UNL     1      37.214 -26.122 -14.418  0.00  0.00    +0.260 C 
ATOM     10  H   UNL     1      35.212 -26.434 -14.330  0.00  0.00    +0.159 HD
ENDROOT
BRANCH   4  11
ATOM     11  C   UNL     1      36.024 -22.304 -15.937  0.00  0.00    +0.089 C 
BRANCH  11  12
ATOM     12  CA  UNL     1      36.870 -21.922 -17.153  0.00  0.00    +0.056 C 
BRANCH  12  13
ATOM     13  N   UNL     1      37.500 -20.622 -16.934  0.00  0.00    +0.390 N 
ATOM     14  H1  UNL     1      38.202 -20.704 -16.198  0.00  0.00    -0.088 HD
ATOM     15  H2  UNL     1      36.793 -19.942 -16.656  0.00  0.00    -0.088 HD
ATOM     16  H3  UNL     1      37.950 -20.312 -17.796  0.00  0.00    -0.088 HD
ENDBRANCH  12  13
BRANCH  12  18
ATOM     17  OXT UNL     1      35.163 -22.570 -18.772  0.00  0.00    -0.253 OA
ATOM     18  C   UNL     1      36.046 -21.798 -18.424  0.00  0.00    +0.295 C 
BRANCH  18  19
ATOM     19  O   UNL     1      36.393 -20.701 -19.151  0.00  0.00    -0.482 OA
ATOM     20  H   UNL     1      37.025 -20.774 -19.838  0.00  0.00    +0.295 HD
ENDBRANCH  18  19
ENDBRANCH  12  18
ENDBRANCH  11  12
ENDBRANCH   4  11
TORSDOF 5
ENDMDL
MODEL 5
REMARK VINA RESULT:      -6.8     13.918     15.274
REMARK  Name = 167842
REMARK  5 active torsions:
REMARK  status: ('A' for Active; 'I' for Inactive)
REMARK    1  A    between atoms: N_4  and  C_11
REMARK    2  A    between atoms: C_11  and  CA_12
REMARK    3  A    between atoms: CA_12  and  N_13
REMARK    4  A    between atoms: CA_12  and  C_18
REMARK    5  A    between atoms: C_18  and  O_19
REMARK                            x       y       z     vdW  Elec       q    Type
REMARK                         _______ _______ _______ _____ _____    ______ ____
ROOT
ATOM      1 BR   UNL     1      35.014 -17.116 -21.123  0.00  0.00    -0.043 Br
ATOM      2  O   UNL     1      33.512 -15.514 -26.656  0.00  0.00    -0.252 OA
ATOM      3  O   UNL     1      35.503 -18.540 -23.826  0.00  0.00    -0.269 OA
ATOM      4  N   UNL     1      33.515 -15.057 -24.368  0.00  0.00    -0.243 N 
ATOM      5  N   UNL     1      34.501 -17.012 -25.229  0.00  0.00    -0.235 N 
ATOM      6  C   UNL     1      33.814 -15.825 -25.501  0.00  0.00    +0.314 C 
ATOM      7  C   UNL     1      33.879 -15.460 -23.100  0.00  0.00    +0.080 C 
ATOM      8  C   UNL     1      34.536 -16.597 -22.847  0.00  0.00    +0.103 C 
ATOM      9  C   UNL     1      34.900 -17.483 -23.985  0.00  0.00    +0.260 C 
ATOM     10  H   UNL     1      34.728 -17.576 -26.004  0.00  0.00    +0.159 HD
ENDROOT
BRANCH   4  11
ATOM     11  C   UNL     1      32.799 -13.792 -24.499  0.00  0.00    +0.089 C 
BRANCH  11  12
ATOM     12  CA  UNL     1      33.045 -12.874 -23.300  0.00  0.00    +0.056 C 
BRANCH  12  13
ATOM     13  N   UNL     1      31.814 -12.723 -22.527  0.00  0.00    +0.390 N 
ATOM     14  H1  UNL     1      31.360 -13.632 -22.430  0.00  0.00    -0.088 HD
ATOM     15  H2  UNL     1      31.187 -12.079 -23.007  0.00  0.00    -0.088 HD
ATOM     16  H3  UNL     1      32.037 -12.356 -21.602  0.00  0.00    -0.088 HD
ENDBRANCH  12  13
BRANCH  12  18
ATOM     17  OXT UNL     1      32.915 -10.438 -23.382  0.00  0.00    -0.253 OA
ATOM     18  C   UNL     1      33.474 -11.476 -23.712  0.00  0.00    +0.295 C 
BRANCH  18  19
ATOM     19  O   UNL     1      34.585 -11.494 -24.499  0.00  0.00    -0.482 OA
ATOM     20  H   UNL     1      34.500 -11.589 -25.427  0.00  0.00    +0.295 HD
ENDBRANCH  18  19
ENDBRANCH  12  18
ENDBRANCH  11  12
ENDBRANCH   4  11
TORSDOF 5
ENDMDL
MODEL 6
REMARK VINA RESULT:      -6.8      3.457      4.166
REMARK  Name = 167842
REMARK  5 active torsions:
REMARK  status: ('A' for Active; 'I' for Inactive)
REMARK    1  A    between atoms: N_4  and  C_11
REMARK    2  A    between atoms: C_11  and  CA_12
REMARK    3  A    between atoms: CA_12  and  N_13
REMARK    4  A    between atoms: CA_12  and  C_18
REMARK    5  A    between atoms: C_18  and  O_19
REMARK                            x       y       z     vdW  Elec       q    Type
REMARK                         _______ _______ _______ _____ _____    ______ ____
ROOT
ATOM      1 BR   UNL     1      36.000 -21.248 -19.926  0.00  0.00    -0.043 Br
ATOM      2  O   UNL     1      33.171 -23.886 -15.400  0.00  0.00    -0.252 OA
ATOM      3  O   UNL     1      33.057 -22.167 -19.663  0.00  0.00    -0.269 OA
ATOM      4  N   UNL     1      35.132 -22.980 -16.284  0.00  0.00    -0.243 N 
ATOM      5  N   UNL     1      33.133 -23.023 -17.525  0.00  0.00    -0.235 N 
ATOM      6  C   UNL     1      33.778 -23.338 -16.324  0.00  0.00    +0.314 C 
ATOM      7  C   UNL     1      35.754 -22.371 -17.353  0.00  0.00    +0.080 C 
ATOM      8  C   UNL     1      35.132 -22.072 -18.499  0.00  0.00    +0.103 C 
ATOM      9  C   UNL     1      33.691 -22.412 -18.640  0.00  0.00    +0.260 C 
ATOM     10  H   UNL     1      32.180 -23.261 -17.587  0.00  0.00    +0.159 HD
ENDROOT
BRANCH   4  11
ATOM     11  C   UNL     1      35.932 -23.248 -15.094  0.00  0.00    +0.089 C 
BRANCH  11  12
ATOM     12  CA  UNL     1      36.363 -24.715 -15.018  0.00  0.00    +0.056 C 
BRANCH  12  13
ATOM     13  N   UNL     1      35.665 -25.383 -13.921  0.00  0.00    +0.390 N 
ATOM     14  H1  UNL     1      36.341 -25.664 -13.210  0.00  0.00    -0.088 HD
ATOM     15  H2  UNL     1      35.182 -26.207 -14.276  0.00  0.00    -0.088 HD
ATOM     16  H3  UNL     1      34.987 -24.742 -13.509  0.00  0.00    -0.088 HD
ENDBRANCH  12  13
BRANCH  12  18
ATOM     17  OXT UNL     1      38.517 -24.158 -14.015  0.00  0.00    -0.253 OA
ATOM     18  C   UNL     1      37.850 -24.875 -14.750  0.00  0.00    +0.295 C 
BRANCH  18  19
ATOM     19  O   UNL     1      38.377 -25.936 -15.420  0.00  0.00    -0.482 OA
ATOM     20  H   UNL     1      39.298 -25.973 -15.588  0.00  0.00    +0.295 HD
ENDBRANCH  18  19
ENDBRANCH  12  18
ENDBRANCH  11  12
ENDBRANCH   4  11
TORSDOF 5
ENDMDL
MODEL 7
REMARK VINA RESULT:      -6.7     11.795     13.249
REMARK  Name = 167842
REMARK  5 active torsions:
REMARK  status: ('A' for Active; 'I' for Inactive)
REMARK    1  A    between atoms: N_4  and  C_11
REMARK    2  A    between atoms: C_11  and  CA_12
REMARK    3  A    between atoms: CA_12  and  N_13
REMARK    4  A    between atoms: CA_12  and  C_18
REMARK    5  A    between atoms: C_18  and  O_19
REMARK                            x       y       z     vdW  Elec       q    Type
REMARK                         _______ _______ _______ _____ _____    ______ ____
ROOT
ATOM      1 BR   UNL     1      34.836 -19.365 -24.567  0.00  0.00    -0.043 Br
ATOM      2  O   UNL     1      34.908 -15.528 -20.017  0.00  0.00    -0.252 OA
ATOM      3  O   UNL     1      35.291 -19.846 -21.545  0.00  0.00    -0.269 OA
ATOM      4  N   UNL     1      34.663 -15.920 -22.304  0.00  0.00    -0.243 N 
ATOM      5  N   UNL     1      35.096 -17.676 -20.797  0.00  0.00    -0.235 N 
ATOM      6  C   UNL     1      34.887 -16.304 -20.975  0.00  0.00    +0.314 C 
ATOM      7  C   UNL     1      34.655 -16.838 -23.333  0.00  0.00    +0.080 C 
ATOM      8  C   UNL     1      34.854 -18.149 -23.156  0.00  0.00    +0.103 C 
ATOM      9  C   UNL     1      35.100 -18.656 -21.780  0.00  0.00    +0.260 C 
ATOM     10  H   UNL     1      35.256 -17.981 -19.875  0.00  0.00    +0.159 HD
ENDROOT
BRANCH   4  11
ATOM     11  C   UNL     1      34.432 -14.520 -22.640  0.00  0.00    +0.089 C 
BRANCH  11  12
ATOM     12  CA  UNL     1      32.952 -14.238 -22.909  0.00  0.00    +0.056 C 
BRANCH  12  13
ATOM     13  N   UNL     1      32.804 -13.516 -24.171  0.00  0.00    +0.390 N 
ATOM     14  H1  UNL     1      32.843 -12.512 -23.994  0.00  0.00    -0.088 HD
ATOM     15  H2  UNL     1      31.908 -13.752 -24.596  0.00  0.00    -0.088 HD
ATOM     16  H3  UNL     1      33.560 -13.778 -24.803  0.00  0.00    -0.088 HD
ENDBRANCH  12  13
BRANCH  12  18
ATOM     17  OXT UNL     1      32.507 -13.486 -20.631  0.00  0.00    -0.253 OA
ATOM     18  C   UNL     1      32.316 -13.372 -21.834  0.00  0.00    +0.295 C 
BRANCH  18  19
ATOM     19  O   UNL     1      31.498 -12.422 -22.363  0.00  0.00    -0.482 OA
ATOM     20  H   UNL     1      31.103 -11.782 -21.806  0.00  0.00    +0.295 HD
ENDBRANCH  18  19
ENDBRANCH  12  18
ENDBRANCH  11  12
ENDBRANCH   4  11
TORSDOF 5
ENDMDL
MODEL 8
REMARK VINA RESULT:      -6.7      3.259      4.380
REMARK  Name = 167842
REMARK  5 active torsions:
REMARK  status: ('A' for Active; 'I' for Inactive)
REMARK    1  A    between atoms: N_4  and  C_11
REMARK    2  A    between atoms: C_11  and  CA_12
REMARK    3  A    between atoms: CA_12  and  N_13
REMARK    4  A    between atoms: CA_12  and  C_18
REMARK    5  A    between atoms: C_18  and  O_19
REMARK                            x       y       z     vdW  Elec       q    Type
REMARK                         _______ _______ _______ _____ _____    ______ ____
ROOT
ATOM      1 BR   UNL     1      30.274 -23.779 -14.602  0.00  0.00    -0.043 Br
ATOM      2  O   UNL     1      36.045 -23.668 -16.058  0.00  0.00    -0.252 OA
ATOM      3  O   UNL     1      31.675 -22.780 -17.174  0.00  0.00    -0.269 OA
ATOM      4  N   UNL     1      34.378 -24.195 -14.514  0.00  0.00    -0.243 N 
ATOM      5  N   UNL     1      33.859 -23.233 -16.598  0.00  0.00    -0.235 N 
ATOM      6  C   UNL     1      34.855 -23.702 -15.736  0.00  0.00    +0.314 C 
ATOM      7  C   UNL     1      33.032 -24.204 -14.211  0.00  0.00    +0.080 C 
ATOM      8  C   UNL     1      32.085 -23.753 -15.040  0.00  0.00    +0.103 C 
ATOM      9  C   UNL     1      32.491 -23.210 -16.363  0.00  0.00    +0.260 C 
ATOM     10  H   UNL     1      34.160 -22.880 -17.466  0.00  0.00    +0.159 HD
ENDROOT
BRANCH   4  11
ATOM     11  C   UNL     1      35.303 -24.717 -13.514  0.00  0.00    +0.089 C 
BRANCH  11  12
ATOM     12  CA  UNL     1      35.861 -23.606 -12.621  0.00  0.00    +0.056 C 
BRANCH  12  13
ATOM     13  N   UNL     1      37.180 -23.197 -13.099  0.00  0.00    +0.390 N 
ATOM     14  H1  UNL     1      37.073 -22.489 -13.825  0.00  0.00    -0.088 HD
ATOM     15  H2  UNL     1      37.670 -24.005 -13.481  0.00  0.00    -0.088 HD
ATOM     16  H3  UNL     1      37.717 -22.809 -12.323  0.00  0.00    -0.088 HD
ENDBRANCH  12  13
BRANCH  12  18
ATOM     17  OXT UNL     1      35.418 -24.954 -10.636  0.00  0.00    -0.253 OA
ATOM     18  C   UNL     1      36.038 -24.049 -11.179  0.00  0.00    +0.295 C 
BRANCH  18  19
ATOM     19  O   UNL     1      36.994 -23.323 -10.537  0.00  0.00    -0.482 OA
ATOM     20  H   UNL     1      37.762 -23.048 -10.997  0.00  0.00    +0.295 HD
ENDBRANCH  18  19
ENDBRANCH  12  18
ENDBRANCH  11  12
ENDBRANCH   4  11
TORSDOF 5
ENDMDL
MODEL 9
REMARK VINA RESULT:      -6.7     12.589     13.624
REMARK  Name = 167842
REMARK  5 active torsions:
REMARK  status: ('A' for Active; 'I' for Inactive)
REMARK    1  A    between atoms: N_4  and  C_11
REMARK    2  A    between atoms: C_11  and  CA_12
REMARK    3  A    between atoms: CA_12  and  N_13
REMARK    4  A    between atoms: CA_12  and  C_18
REMARK    5  A    between atoms: C_18  and  O_19
REMARK                            x       y       z     vdW  Elec       q    Type
REMARK                         _______ _______ _______ _____ _____    ______ ____
ROOT
ATOM      1 BR   UNL     1      33.376 -12.283 -23.728  0.00  0.00    -0.043 Br
ATOM      2  O   UNL     1      34.424 -17.860 -25.525  0.00  0.00    -0.252 OA
ATOM      3  O   UNL     1      32.540 -13.744 -26.323  0.00  0.00    -0.269 OA
ATOM      4  N   UNL     1      34.673 -16.195 -23.909  0.00  0.00    -0.243 N 
ATOM      5  N   UNL     1      33.491 -15.800 -25.906  0.00  0.00    -0.235 N 
ATOM      6  C   UNL     1      34.218 -16.710 -25.131  0.00  0.00    +0.314 C 
ATOM      7  C   UNL     1      34.411 -14.896 -23.526  0.00  0.00    +0.080 C 
ATOM      8  C   UNL     1      33.714 -14.032 -24.272  0.00  0.00    +0.103 C 
ATOM      9  C   UNL     1      33.188 -14.484 -25.588  0.00  0.00    +0.260 C 
ATOM     10  H   UNL     1      33.156 -16.130 -26.771  0.00  0.00    +0.159 HD
ENDROOT
BRANCH   4  11
ATOM     11  C   UNL     1      35.447 -17.030 -22.997  0.00  0.00    +0.089 C 
BRANCH  11  12
ATOM     12  CA  UNL     1      34.583 -17.582 -21.862  0.00  0.00    +0.056 C 
BRANCH  12  13
ATOM     13  N   UNL     1      35.261 -17.393 -20.581  0.00  0.00    +0.390 N 
ATOM     14  H1  UNL     1      34.689 -16.802 -19.978  0.00  0.00    -0.088 HD
ATOM     15  H2  UNL     1      36.165 -16.948 -20.737  0.00  0.00    -0.088 HD
ATOM     16  H3  UNL     1      35.401 -18.299 -20.134  0.00  0.00    -0.088 HD
ENDBRANCH  12  13
BRANCH  12  18
ATOM     17  OXT UNL     1      33.693 -19.756 -21.200  0.00  0.00    -0.253 OA
ATOM     18  C   UNL     1      34.319 -19.072 -21.999  0.00  0.00    +0.295 C 
BRANCH  18  19
ATOM     19  O   UNL     1      34.855 -19.582 -23.142  0.00  0.00    -0.482 OA
ATOM     20  H   UNL     1      35.705 -19.308 -23.423  0.00  0.00    +0.295 HD
ENDBRANCH  18  19
ENDBRANCH  12  18
ENDBRANCH  11  12
ENDBRANCH   4  11
TORSDOF 5
ENDMDL
