MODEL 1
REMARK VINA RESULT:      -5.8      0.000      0.000
REMARK  Name = 448719
REMARK  4 active torsions:
REMARK  status: ('A' for Active; 'I' for Inactive)
REMARK    1  A    between atoms: C_2  and  O_7
REMARK    2  A    between atoms: C_2  and  O_9
REMARK    3  A    between atoms: C_3  and  O_11
REMARK    4  A    between atoms: C_4  and  O_13
REMARK                            x       y       z     vdW  Elec       q    Type
REMARK                         _______ _______ _______ _____ _____    ______ ____
ROOT
ATOM      1  O   UNL     1      37.915 -23.490 -13.590  0.00  0.00    -0.328 OA
ATOM      2  C   UNL     1      37.312 -25.531 -14.607  0.00  0.00    +0.257 C 
ATOM      3  C   UNL     1      37.742 -24.085 -14.892  0.00  0.00    +0.234 C 
ATOM      4  C   UNL     1      38.143 -25.859 -13.376  0.00  0.00    +0.196 C 
ATOM      5  C   UNL     1      38.096 -24.540 -12.616  0.00  0.00    +0.179 C 
ATOM      6  C   UNL     1      36.734 -23.257 -15.677  0.00  0.00    +0.066 C 
ENDROOT
BRANCH   2   7
ATOM      7  O   UNL     1      35.925 -25.555 -14.268  0.00  0.00    -0.358 OA
ATOM      8  H   UNL     1      35.742 -24.864 -13.613  0.00  0.00    +0.213 HD
ENDBRANCH   2   7
BRANCH   2   9
ATOM      9  O   UNL     1      37.559 -26.375 -15.714  0.00  0.00    -0.358 OA
ATOM     10  H   UNL     1      38.434 -26.786 -15.619  0.00  0.00    +0.213 HD
ENDBRANCH   2   9
BRANCH   3  11
ATOM     11  O   UNL     1      38.977 -24.031 -15.612  0.00  0.00    -0.360 OA
ATOM     12  H   UNL     1      38.990 -23.241 -16.172  0.00  0.00    +0.213 HD
ENDBRANCH   3  11
BRANCH   4  13
ATOM     13  O   UNL     1      39.488 -26.150 -13.740  0.00  0.00    -0.378 OA
ATOM     14  H   UNL     1      39.592 -26.052 -14.698  0.00  0.00    +0.211 HD
ENDBRANCH   4  13
TORSDOF 4
ENDMDL
MODEL 2
REMARK VINA RESULT:      -5.7      1.993      3.372
REMARK  Name = 448719
REMARK  4 active torsions:
REMARK  status: ('A' for Active; 'I' for Inactive)
REMARK    1  A    between atoms: C_2  and  O_7
REMARK    2  A    between atoms: C_2  and  O_9
REMARK    3  A    between atoms: C_3  and  O_11
REMARK    4  A    between atoms: C_4  and  O_13
REMARK                            x       y       z     vdW  Elec       q    Type
REMARK                         _______ _______ _______ _____ _____    ______ ____
ROOT
ATOM      1  O   UNL     1      37.654 -24.500 -11.370  0.00  0.00    -0.328 OA
ATOM      2  C   UNL     1      36.400 -24.611 -13.364  0.00  0.00    +0.257 C 
ATOM      3  C   UNL     1      37.427 -25.362 -12.504  0.00  0.00    +0.234 C 
ATOM      4  C   UNL     1      35.517 -23.977 -12.301  0.00  0.00    +0.196 C 
ATOM      5  C   UNL     1      36.543 -23.588 -11.245  0.00  0.00    +0.179 C 
ATOM      6  C   UNL     1      38.761 -25.634 -13.185  0.00  0.00    +0.066 C 
ENDROOT
BRANCH   2   7
ATOM      7  O   UNL     1      37.063 -23.588 -14.108  0.00  0.00    -0.358 OA
ATOM      8  H   UNL     1      36.417 -23.121 -14.660  0.00  0.00    +0.213 HD
ENDBRANCH   2   7
BRANCH   2   9
ATOM      9  O   UNL     1      35.715 -25.486 -14.239  0.00  0.00    -0.358 OA
ATOM     10  H   UNL     1      35.621 -25.066 -15.108  0.00  0.00    +0.213 HD
ENDBRANCH   2   9
BRANCH   3  11
ATOM     11  O   UNL     1      36.922 -26.623 -12.056  0.00  0.00    -0.360 OA
ATOM     12  H   UNL     1      36.428 -27.046 -12.774  0.00  0.00    +0.213 HD
ENDBRANCH   3  11
BRANCH   4  13
ATOM     13  O   UNL     1      34.616 -24.935 -11.758  0.00  0.00    -0.378 OA
ATOM     14  H   UNL     1      33.788 -24.922 -12.262  0.00  0.00    +0.211 HD
ENDBRANCH   4  13
TORSDOF 4
ENDMDL
MODEL 3
REMARK VINA RESULT:      -5.6      1.301      2.737
REMARK  Name = 448719
REMARK  4 active torsions:
REMARK  status: ('A' for Active; 'I' for Inactive)
REMARK    1  A    between atoms: C_2  and  O_7
REMARK    2  A    between atoms: C_2  and  O_9
REMARK    3  A    between atoms: C_3  and  O_11
REMARK    4  A    between atoms: C_4  and  O_13
REMARK                            x       y       z     vdW  Elec       q    Type
REMARK                         _______ _______ _______ _____ _____    ______ ____
ROOT
ATOM      1  O   UNL     1      38.220 -26.362 -13.462  0.00  0.00    -0.328 OA
ATOM      2  C   UNL     1      37.413 -24.449 -14.579  0.00  0.00    +0.257 C 
ATOM      3  C   UNL     1      38.326 -25.674 -14.725  0.00  0.00    +0.234 C 
ATOM      4  C   UNL     1      36.267 -25.018 -13.758  0.00  0.00    +0.196 C 
ATOM      5  C   UNL     1      37.008 -25.942 -12.800  0.00  0.00    +0.179 C 
ATOM      6  C   UNL     1      39.792 -25.356 -14.987  0.00  0.00    +0.066 C 
ENDROOT
BRANCH   2   7
ATOM      7  O   UNL     1      38.088 -23.441 -13.825  0.00  0.00    -0.358 OA
ATOM      8  H   UNL     1      38.106 -23.696 -12.890  0.00  0.00    +0.213 HD
ENDBRANCH   2   7
BRANCH   2   9
ATOM      9  O   UNL     1      37.023 -23.937 -15.839  0.00  0.00    -0.358 OA
ATOM     10  H   UNL     1      36.357 -23.243 -15.714  0.00  0.00    +0.213 HD
ENDBRANCH   2   9
BRANCH   3  11
ATOM     11  O   UNL     1      37.892 -26.536 -15.780  0.00  0.00    -0.360 OA
ATOM     12  H   UNL     1      37.288 -27.204 -15.423  0.00  0.00    +0.213 HD
ENDBRANCH   3  11
BRANCH   4  13
ATOM     13  O   UNL     1      35.393 -25.785 -14.577  0.00  0.00    -0.378 OA
ATOM     14  H   UNL     1      35.430 -25.455 -15.488  0.00  0.00    +0.211 HD
ENDBRANCH   4  13
TORSDOF 4
ENDMDL
MODEL 4
REMARK VINA RESULT:      -5.5      1.357      2.743
REMARK  Name = 448719
REMARK  4 active torsions:
REMARK  status: ('A' for Active; 'I' for Inactive)
REMARK    1  A    between atoms: C_2  and  O_7
REMARK    2  A    between atoms: C_2  and  O_9
REMARK    3  A    between atoms: C_3  and  O_11
REMARK    4  A    between atoms: C_4  and  O_13
REMARK                            x       y       z     vdW  Elec       q    Type
REMARK                         _______ _______ _______ _____ _____    ______ ____
ROOT
ATOM      1  O   UNL     1      38.186 -23.965 -14.651  0.00  0.00    -0.328 OA
ATOM      2  C   UNL     1      37.288 -26.142 -14.521  0.00  0.00    +0.257 C 
ATOM      3  C   UNL     1      38.412 -25.234 -14.003  0.00  0.00    +0.234 C 
ATOM      4  C   UNL     1      36.123 -25.168 -14.603  0.00  0.00    +0.196 C 
ATOM      5  C   UNL     1      36.814 -23.905 -15.097  0.00  0.00    +0.179 C 
ATOM      6  C   UNL     1      39.822 -25.704 -14.331  0.00  0.00    +0.066 C 
ENDROOT
BRANCH   2   7
ATOM      7  O   UNL     1      37.618 -26.604 -15.831  0.00  0.00    -0.358 OA
ATOM      8  H   UNL     1      37.299 -25.966 -16.488  0.00  0.00    +0.213 HD
ENDBRANCH   2   7
BRANCH   2   9
ATOM      9  O   UNL     1      37.066 -27.240 -13.657  0.00  0.00    -0.358 OA
ATOM     10  H   UNL     1      37.155 -28.067 -14.157  0.00  0.00    +0.213 HD
ENDBRANCH   2   9
BRANCH   3  11
ATOM     11  O   UNL     1      38.348 -25.067 -12.584  0.00  0.00    -0.360 OA
ATOM     12  H   UNL     1      37.504 -24.653 -12.346  0.00  0.00    +0.213 HD
ENDBRANCH   3  11
BRANCH   4  13
ATOM     13  O   UNL     1      35.571 -24.935 -13.312  0.00  0.00    -0.378 OA
ATOM     14  H   UNL     1      36.092 -24.256 -12.856  0.00  0.00    +0.211 HD
ENDBRANCH   4  13
TORSDOF 4
ENDMDL
MODEL 5
REMARK VINA RESULT:      -5.5      1.584      2.383
REMARK  Name = 448719
REMARK  4 active torsions:
REMARK  status: ('A' for Active; 'I' for Inactive)
REMARK    1  A    between atoms: C_2  and  O_7
REMARK    2  A    between atoms: C_2  and  O_9
REMARK    3  A    between atoms: C_3  and  O_11
REMARK    4  A    between atoms: C_4  and  O_13
REMARK                            x       y       z     vdW  Elec       q    Type
REMARK                         _______ _______ _______ _____ _____    ______ ____
ROOT
ATOM      1  O   UNL     1      39.029 -24.329 -12.903  0.00  0.00    -0.328 OA
ATOM      2  C   UNL     1      36.914 -25.350 -13.117  0.00  0.00    +0.257 C 
ATOM      3  C   UNL     1      37.626 -24.000 -12.950  0.00  0.00    +0.234 C 
ATOM      4  C   UNL     1      37.877 -26.091 -14.032  0.00  0.00    +0.196 C 
ATOM      5  C   UNL     1      39.225 -25.632 -13.493  0.00  0.00    +0.179 C 
ATOM      6  C   UNL     1      37.262 -23.232 -11.686  0.00  0.00    +0.066 C 
ENDROOT
BRANCH   2   7
ATOM      7  O   UNL     1      36.851 -26.011 -11.853  0.00  0.00    -0.358 OA
ATOM      8  H   UNL     1      36.343 -25.469 -11.230  0.00  0.00    +0.213 HD
ENDBRANCH   2   7
BRANCH   2   9
ATOM      9  O   UNL     1      35.614 -25.190 -13.650  0.00  0.00    -0.358 OA
ATOM     10  H   UNL     1      35.038 -24.786 -12.982  0.00  0.00    +0.213 HD
ENDBRANCH   2   9
BRANCH   3  11
ATOM     11  O   UNL     1      37.373 -23.127 -14.055  0.00  0.00    -0.360 OA
ATOM     12  H   UNL     1      36.419 -23.073 -14.211  0.00  0.00    +0.213 HD
ENDBRANCH   3  11
BRANCH   4  13
ATOM     13  O   UNL     1      37.728 -25.653 -15.378  0.00  0.00    -0.378 OA
ATOM     14  H   UNL     1      38.043 -24.740 -15.457  0.00  0.00    +0.211 HD
ENDBRANCH   4  13
TORSDOF 4
ENDMDL
MODEL 6
REMARK VINA RESULT:      -5.5      1.356      1.969
REMARK  Name = 448719
REMARK  4 active torsions:
REMARK  status: ('A' for Active; 'I' for Inactive)
REMARK    1  A    between atoms: C_2  and  O_7
REMARK    2  A    between atoms: C_2  and  O_9
REMARK    3  A    between atoms: C_3  and  O_11
REMARK    4  A    between atoms: C_4  and  O_13
REMARK                            x       y       z     vdW  Elec       q    Type
REMARK                         _______ _______ _______ _____ _____    ______ ____
ROOT
ATOM      1  O   UNL     1      38.380 -24.189 -13.907  0.00  0.00    -0.328 OA
ATOM      2  C   UNL     1      36.055 -24.492 -13.655  0.00  0.00    +0.257 C 
ATOM      3  C   UNL     1      37.181 -24.364 -14.690  0.00  0.00    +0.234 C 
ATOM      4  C   UNL     1      36.743 -25.279 -12.550  0.00  0.00    +0.196 C 
ATOM      5  C   UNL     1      38.140 -24.673 -12.569  0.00  0.00    +0.179 C 
ATOM      6  C   UNL     1      37.046 -23.186 -15.645  0.00  0.00    +0.066 C 
ENDROOT
BRANCH   2   7
ATOM      7  O   UNL     1      35.706 -23.194 -13.171  0.00  0.00    -0.358 OA
ATOM      8  H   UNL     1      36.129 -23.047 -12.311  0.00  0.00    +0.213 HD
ENDBRANCH   2   7
BRANCH   2   9
ATOM      9  O   UNL     1      34.917 -25.132 -14.200  0.00  0.00    -0.358 OA
ATOM     10  H   UNL     1      35.168 -25.601 -15.012  0.00  0.00    +0.213 HD
ENDBRANCH   2   9
BRANCH   3  11
ATOM     11  O   UNL     1      37.299 -25.541 -15.493  0.00  0.00    -0.360 OA
ATOM     12  H   UNL     1      37.409 -26.314 -14.919  0.00  0.00    +0.213 HD
ENDBRANCH   3  11
BRANCH   4  13
ATOM     13  O   UNL     1      36.820 -26.659 -12.890  0.00  0.00    -0.378 OA
ATOM     14  H   UNL     1      36.413 -27.188 -12.187  0.00  0.00    +0.211 HD
ENDBRANCH   4  13
TORSDOF 4
ENDMDL
MODEL 7
REMARK VINA RESULT:      -5.5      1.383      3.013
REMARK  Name = 448719
REMARK  4 active torsions:
REMARK  status: ('A' for Active; 'I' for Inactive)
REMARK    1  A    between atoms: C_2  and  O_7
REMARK    2  A    between atoms: C_2  and  O_9
REMARK    3  A    between atoms: C_3  and  O_11
REMARK    4  A    between atoms: C_4  and  O_13
REMARK                            x       y       z     vdW  Elec       q    Type
REMARK                         _______ _______ _______ _____ _____    ______ ____
ROOT
ATOM      1  O   UNL     1      35.995 -24.531 -13.266  0.00  0.00    -0.328 OA
ATOM      2  C   UNL     1      37.798 -25.520 -14.419  0.00  0.00    +0.257 C 
ATOM      3  C   UNL     1      37.186 -25.308 -13.027  0.00  0.00    +0.234 C 
ATOM      4  C   UNL     1      36.554 -25.694 -15.276  0.00  0.00    +0.196 C 
ATOM      5  C   UNL     1      35.607 -24.681 -14.648  0.00  0.00    +0.179 C 
ATOM      6  C   UNL     1      38.071 -24.555 -12.043  0.00  0.00    +0.066 C 
ENDROOT
BRANCH   2   7
ATOM      7  O   UNL     1      38.492 -24.338 -14.817  0.00  0.00    -0.358 OA
ATOM      8  H   UNL     1      39.401 -24.368 -14.481  0.00  0.00    +0.213 HD
ENDBRANCH   2   7
BRANCH   2   9
ATOM      9  O   UNL     1      38.674 -26.630 -14.437  0.00  0.00    -0.358 OA
ATOM     10  H   UNL     1      38.519 -27.179 -13.652  0.00  0.00    +0.213 HD
ENDBRANCH   2   9
BRANCH   3  11
ATOM     11  O   UNL     1      36.834 -26.548 -12.407  0.00  0.00    -0.360 OA
ATOM     12  H   UNL     1      37.637 -27.066 -12.245  0.00  0.00    +0.213 HD
ENDBRANCH   3  11
BRANCH   4  13
ATOM     13  O   UNL     1      36.018 -27.004 -15.124  0.00  0.00    -0.378 OA
ATOM     14  H   UNL     1      36.742 -27.639 -15.013  0.00  0.00    +0.211 HD
ENDBRANCH   4  13
TORSDOF 4
ENDMDL
MODEL 8
REMARK VINA RESULT:      -5.4      1.379      2.129
REMARK  Name = 448719
REMARK  4 active torsions:
REMARK  status: ('A' for Active; 'I' for Inactive)
REMARK    1  A    between atoms: C_2  and  O_7
REMARK    2  A    between atoms: C_2  and  O_9
REMARK    3  A    between atoms: C_3  and  O_11
REMARK    4  A    between atoms: C_4  and  O_13
REMARK                            x       y       z     vdW  Elec       q    Type
REMARK                         _______ _______ _______ _____ _____    ______ ____
ROOT
ATOM      1  O   UNL     1      37.009 -25.637 -12.899  0.00  0.00    -0.328 OA
ATOM      2  C   UNL     1      37.897 -24.791 -14.913  0.00  0.00    +0.257 C 
ATOM      3  C   UNL     1      37.709 -24.488 -13.420  0.00  0.00    +0.234 C 
ATOM      4  C   UNL     1      38.156 -26.290 -14.890  0.00  0.00    +0.196 C 
ATOM      5  C   UNL     1      37.196 -26.748 -13.800  0.00  0.00    +0.179 C 
ATOM      6  C   UNL     1      36.893 -23.240 -13.114  0.00  0.00    +0.066 C 
ENDROOT
BRANCH   2   7
ATOM      7  O   UNL     1      36.678 -24.527 -15.607  0.00  0.00    -0.358 OA
ATOM      8  H   UNL     1      36.719 -23.644 -16.006  0.00  0.00    +0.213 HD
ENDBRANCH   2   7
BRANCH   2   9
ATOM      9  O   UNL     1      38.951 -24.030 -15.469  0.00  0.00    -0.358 OA
ATOM     10  H   UNL     1      38.612 -23.498 -16.207  0.00  0.00    +0.213 HD
ENDBRANCH   2   9
BRANCH   3  11
ATOM     11  O   UNL     1      38.962 -24.343 -12.746  0.00  0.00    -0.360 OA
ATOM     12  H   UNL     1      39.039 -23.442 -12.399  0.00  0.00    +0.213 HD
ENDBRANCH   3  11
BRANCH   4  13
ATOM     13  O   UNL     1      39.494 -26.563 -14.491  0.00  0.00    -0.378 OA
ATOM     14  H   UNL     1      40.095 -26.389 -15.232  0.00  0.00    +0.211 HD
ENDBRANCH   4  13
TORSDOF 4
ENDMDL
MODEL 9
REMARK VINA RESULT:      -5.4      1.368      2.615
REMARK  Name = 448719
REMARK  4 active torsions:
REMARK  status: ('A' for Active; 'I' for Inactive)
REMARK    1  A    between atoms: C_2  and  O_7
REMARK    2  A    between atoms: C_2  and  O_9
REMARK    3  A    between atoms: C_3  and  O_11
REMARK    4  A    between atoms: C_4  and  O_13
REMARK                            x       y       z     vdW  Elec       q    Type
REMARK                         _______ _______ _______ _____ _____    ______ ____
ROOT
ATOM      1  O   UNL     1      36.261 -25.154 -15.583  0.00  0.00    -0.328 OA
ATOM      2  C   UNL     1      38.226 -25.096 -14.280  0.00  0.00    +0.257 C 
ATOM      3  C   UNL     1      37.053 -24.247 -14.789  0.00  0.00    +0.234 C 
ATOM      4  C   UNL     1      37.548 -26.434 -14.030  0.00  0.00    +0.196 C 
ATOM      5  C   UNL     1      36.579 -26.509 -15.202  0.00  0.00    +0.179 C 
ATOM      6  C   UNL     1      37.447 -23.057 -15.653  0.00  0.00    +0.066 C 
ENDROOT
BRANCH   2   7
ATOM      7  O   UNL     1      39.194 -25.238 -15.319  0.00  0.00    -0.358 OA
ATOM      8  H   UNL     1      39.756 -24.448 -15.346  0.00  0.00    +0.213 HD
ENDBRANCH   2   7
BRANCH   2   9
ATOM      9  O   UNL     1      38.822 -24.525 -13.131  0.00  0.00    -0.358 OA
ATOM     10  H   UNL     1      39.611 -24.024 -13.392  0.00  0.00    +0.213 HD
ENDBRANCH   2   9
BRANCH   3  11
ATOM     11  O   UNL     1      36.262 -23.736 -13.712  0.00  0.00    -0.360 OA
ATOM     12  H   UNL     1      35.499 -24.315 -13.568  0.00  0.00    +0.213 HD
ENDBRANCH   3  11
BRANCH   4  13
ATOM     13  O   UNL     1      36.816 -26.407 -12.810  0.00  0.00    -0.378 OA
ATOM     14  H   UNL     1      36.911 -27.259 -12.356  0.00  0.00    +0.211 HD
ENDBRANCH   4  13
TORSDOF 4
ENDMDL
