MODEL 1
REMARK VINA RESULT:     -10.7      0.000      0.000
REMARK  Name = 23647652
REMARK  4 active torsions:
REMARK  status: ('A' for Active; 'I' for Inactive)
REMARK    1  A    between atoms: C_2  and  C_16
REMARK    2  A    between atoms: C_4  and  C_10
REMARK    3  A    between atoms: C_17  and  S_22
REMARK    4  A    between atoms: S_22  and  N_25
REMARK                            x       y       z     vdW  Elec       q    Type
REMARK                         _______ _______ _______ _____ _____    ______ ____
ROOT
ATOM      1  O   UNL     1      34.456 -18.754 -22.552  0.00  0.00    -0.453 OA
ATOM      2  C   UNL     1      35.367 -19.143 -21.621  0.00  0.00    +0.145 C 
ATOM      3  C   UNL     1      36.560 -18.486 -21.809  0.00  0.00    +0.041 C 
ATOM      4  C   UNL     1      35.075 -17.840 -23.343  0.00  0.00    +0.147 C 
ATOM      5  C   UNL     1      36.371 -17.639 -22.927  0.00  0.00    +0.041 C 
ENDROOT
BRANCH   4  10
ATOM      6  S   UNL     1      34.291 -14.760 -23.233  0.00  0.00    -0.027 S 
ATOM      7  O   UNL     1      33.066 -15.903 -26.649  0.00  0.00    -0.209 OA
ATOM      8  N   UNL     1      33.102 -13.955 -25.392  0.00  0.00    -0.311 NA
ATOM      9  N   UNL     1      33.407 -12.288 -23.711  0.00  0.00    -0.327 N 
ATOM     10  C   UNL     1      34.418 -17.217 -24.429  0.00  0.00    +0.057 C 
ATOM     11  C   UNL     1      34.049 -15.919 -24.472  0.00  0.00    +0.131 C 
ATOM     12  C   UNL     1      33.358 -15.293 -25.628  0.00  0.00    +0.213 C 
ATOM     13  C   UNL     1      33.512 -13.542 -24.232  0.00  0.00    +0.222 C 
ATOM     14  H   UNL     1      33.760 -12.097 -22.812  0.00  0.00    +0.145 HD
ATOM     15  H   UNL     1      32.979 -11.572 -24.234  0.00  0.00    +0.145 HD
ENDBRANCH   4  10
BRANCH   2  16
ATOM     16  C   UNL     1      34.901 -20.124 -20.672  0.00  0.00    +0.035 C 
ATOM     17  C   UNL     1      34.003 -22.025 -18.839  0.00  0.00    +0.122 C 
ATOM     18  C   UNL     1      33.534 -20.296 -20.458  0.00  0.00    +0.004 C 
ATOM     19  C   UNL     1      35.820 -20.903 -19.969  0.00  0.00    +0.004 C 
ATOM     20  C   UNL     1      33.084 -21.246 -19.542  0.00  0.00    +0.020 C 
ATOM     21  C   UNL     1      35.370 -21.854 -19.052  0.00  0.00    +0.020 C 
BRANCH  17  22
ATOM     22  S   UNL     1      33.441 -23.212 -17.688  0.00  0.00    +0.060 S 
ATOM     23  O   UNL     1      33.501 -24.530 -18.307  0.00  0.00    -0.153 OA
ATOM     24  O   UNL     1      34.142 -22.981 -16.433  0.00  0.00    -0.153 OA
BRANCH  22  25
ATOM     25  N   UNL     1      31.800 -22.778 -17.484  0.00  0.00    -0.178 NA
ATOM     26  C   UNL     1      31.096 -23.141 -16.245  0.00  0.00    +0.110 C 
ATOM     27  H   UNL     1      31.284 -23.205 -18.252  0.00  0.00    +0.149 HD
ENDBRANCH  22  25
ENDBRANCH  17  22
ENDBRANCH   2  16
TORSDOF 4
ENDMDL
MODEL 2
REMARK VINA RESULT:     -10.4      1.532      2.109
REMARK  Name = 23647652
REMARK  4 active torsions:
REMARK  status: ('A' for Active; 'I' for Inactive)
REMARK    1  A    between atoms: C_2  and  C_16
REMARK    2  A    between atoms: C_4  and  C_10
REMARK    3  A    between atoms: C_17  and  S_22
REMARK    4  A    between atoms: S_22  and  N_25
REMARK                            x       y       z     vdW  Elec       q    Type
REMARK                         _______ _______ _______ _____ _____    ______ ____
ROOT
ATOM      1  O   UNL     1      34.318 -17.490 -21.849  0.00  0.00    -0.453 OA
ATOM      2  C   UNL     1      34.777 -18.725 -22.181  0.00  0.00    +0.145 C 
ATOM      3  C   UNL     1      35.396 -18.696 -23.408  0.00  0.00    +0.041 C 
ATOM      4  C   UNL     1      34.647 -16.664 -22.875  0.00  0.00    +0.147 C 
ATOM      5  C   UNL     1      35.313 -17.357 -23.859  0.00  0.00    +0.041 C 
ENDROOT
BRANCH   4  10
ATOM      6  S   UNL     1      33.689 -15.194 -25.527  0.00  0.00    -0.027 S 
ATOM      7  O   UNL     1      33.641 -12.456 -22.886  0.00  0.00    -0.209 OA
ATOM      8  N   UNL     1      33.178 -12.681 -25.147  0.00  0.00    -0.311 NA
ATOM      9  N   UNL     1      32.851 -13.464 -27.378  0.00  0.00    -0.327 N 
ATOM     10  C   UNL     1      34.321 -15.288 -22.868  0.00  0.00    +0.057 C 
ATOM     11  C   UNL     1      33.906 -14.583 -23.941  0.00  0.00    +0.131 C 
ATOM     12  C   UNL     1      33.572 -13.136 -23.902  0.00  0.00    +0.213 C 
ATOM     13  C   UNL     1      33.185 -13.599 -26.064  0.00  0.00    +0.222 C 
ATOM     14  H   UNL     1      32.898 -14.241 -27.980  0.00  0.00    +0.145 HD
ATOM     15  H   UNL     1      32.563 -12.589 -27.725  0.00  0.00    +0.145 HD
ENDBRANCH   4  10
BRANCH   2  16
ATOM     16  C   UNL     1      34.524 -19.762 -21.210  0.00  0.00    +0.035 C 
ATOM     17  C   UNL     1      34.035 -21.761 -19.327  0.00  0.00    +0.122 C 
ATOM     18  C   UNL     1      35.587 -20.483 -20.667  0.00  0.00    +0.004 C 
ATOM     19  C   UNL     1      33.217 -20.039 -20.811  0.00  0.00    +0.004 C 
ATOM     20  C   UNL     1      35.343 -21.483 -19.725  0.00  0.00    +0.020 C 
ATOM     21  C   UNL     1      32.972 -21.039 -19.870  0.00  0.00    +0.020 C 
BRANCH  17  22
ATOM     22  S   UNL     1      33.728 -23.016 -18.152  0.00  0.00    +0.060 S 
ATOM     23  O   UNL     1      33.683 -24.300 -18.839  0.00  0.00    -0.153 OA
ATOM     24  O   UNL     1      34.661 -22.829 -17.049  0.00  0.00    -0.153 OA
BRANCH  22  25
ATOM     25  N   UNL     1      32.155 -22.632 -17.605  0.00  0.00    -0.178 NA
ATOM     26  C   UNL     1      31.650 -23.221 -16.357  0.00  0.00    +0.110 C 
ATOM     27  H   UNL     1      31.510 -22.908 -18.344  0.00  0.00    +0.149 HD
ENDBRANCH  22  25
ENDBRANCH  17  22
ENDBRANCH   2  16
TORSDOF 4
ENDMDL
MODEL 3
REMARK VINA RESULT:     -10.2      4.421     10.610
REMARK  Name = 23647652
REMARK  4 active torsions:
REMARK  status: ('A' for Active; 'I' for Inactive)
REMARK    1  A    between atoms: C_2  and  C_16
REMARK    2  A    between atoms: C_4  and  C_10
REMARK    3  A    between atoms: C_17  and  S_22
REMARK    4  A    between atoms: S_22  and  N_25
REMARK                            x       y       z     vdW  Elec       q    Type
REMARK                         _______ _______ _______ _____ _____    ______ ____
ROOT
ATOM      1  O   UNL     1      35.284 -23.520 -16.889  0.00  0.00    -0.453 OA
ATOM      2  C   UNL     1      34.196 -22.869 -17.376  0.00  0.00    +0.145 C 
ATOM      3  C   UNL     1      33.062 -23.246 -16.695  0.00  0.00    +0.041 C 
ATOM      4  C   UNL     1      34.841 -24.324 -15.887  0.00  0.00    +0.147 C 
ATOM      5  C   UNL     1      33.480 -24.191 -15.728  0.00  0.00    +0.041 C 
ENDROOT
BRANCH   4  10
ATOM      6  S   UNL     1      35.723 -23.556 -12.930  0.00  0.00    -0.027 S 
ATOM      7  O   UNL     1      37.504 -26.850 -13.599  0.00  0.00    -0.209 OA
ATOM      8  N   UNL     1      37.322 -25.306 -11.879  0.00  0.00    -0.311 NA
ATOM      9  N   UNL     1      36.785 -23.445 -10.484  0.00  0.00    -0.327 N 
ATOM     10  C   UNL     1      35.712 -25.156 -15.148  0.00  0.00    +0.057 C 
ATOM     11  C   UNL     1      36.139 -24.913 -13.891  0.00  0.00    +0.131 C 
ATOM     12  C   UNL     1      37.056 -25.807 -13.140  0.00  0.00    +0.213 C 
ATOM     13  C   UNL     1      36.723 -24.182 -11.628  0.00  0.00    +0.222 C 
ATOM     14  H   UNL     1      36.281 -22.603 -10.414  0.00  0.00    +0.145 HD
ATOM     15  H   UNL     1      37.333 -23.756  -9.727  0.00  0.00    +0.145 HD
ENDBRANCH   4  10
BRANCH   2  16
ATOM     16  C   UNL     1      34.456 -21.954 -18.461  0.00  0.00    +0.035 C 
ATOM     17  C   UNL     1      34.962 -20.182 -20.555  0.00  0.00    +0.122 C 
ATOM     18  C   UNL     1      33.395 -21.393 -19.171  0.00  0.00    +0.004 C 
ATOM     19  C   UNL     1      35.770 -21.630 -18.798  0.00  0.00    +0.004 C 
ATOM     20  C   UNL     1      33.647 -20.506 -20.217  0.00  0.00    +0.020 C 
ATOM     21  C   UNL     1      36.022 -20.744 -19.845  0.00  0.00    +0.020 C 
BRANCH  17  22
ATOM     22  S   UNL     1      35.278 -19.076 -21.869  0.00  0.00    +0.060 S 
ATOM     23  O   UNL     1      36.663 -18.632 -21.785  0.00  0.00    -0.153 OA
ATOM     24  O   UNL     1      34.801 -19.698 -23.097  0.00  0.00    -0.153 OA
BRANCH  22  25
ATOM     25  N   UNL     1      34.256 -17.758 -21.494  0.00  0.00    -0.178 NA
ATOM     26  C   UNL     1      34.841 -16.449 -21.166  0.00  0.00    +0.110 C 
ATOM     27  H   UNL     1      33.693 -18.039 -20.693  0.00  0.00    +0.149 HD
ENDBRANCH  22  25
ENDBRANCH  17  22
ENDBRANCH   2  16
TORSDOF 4
ENDMDL
MODEL 4
REMARK VINA RESULT:     -10.1      3.594      8.861
REMARK  Name = 23647652
REMARK  4 active torsions:
REMARK  status: ('A' for Active; 'I' for Inactive)
REMARK    1  A    between atoms: C_2  and  C_16
REMARK    2  A    between atoms: C_4  and  C_10
REMARK    3  A    between atoms: C_17  and  S_22
REMARK    4  A    between atoms: S_22  and  N_25
REMARK                            x       y       z     vdW  Elec       q    Type
REMARK                         _______ _______ _______ _____ _____    ______ ____
ROOT
ATOM      1  O   UNL     1      34.777 -17.075 -21.687  0.00  0.00    -0.453 OA
ATOM      2  C   UNL     1      34.307 -16.301 -22.700  0.00  0.00    +0.145 C 
ATOM      3  C   UNL     1      34.601 -16.868 -23.918  0.00  0.00    +0.041 C 
ATOM      4  C   UNL     1      35.380 -18.147 -22.264  0.00  0.00    +0.147 C 
ATOM      5  C   UNL     1      35.298 -18.067 -23.635  0.00  0.00    +0.041 C 
ENDROOT
BRANCH   4  10
ATOM      6  S   UNL     1      33.626 -20.173 -20.551  0.00  0.00    -0.027 S 
ATOM      7  O   UNL     1      37.207 -21.290 -19.919  0.00  0.00    -0.209 OA
ATOM      8  N   UNL     1      35.067 -21.913 -19.280  0.00  0.00    -0.311 NA
ATOM      9  N   UNL     1      32.710 -22.112 -18.964  0.00  0.00    -0.327 N 
ATOM     10  C   UNL     1      35.987 -19.171 -21.501  0.00  0.00    +0.057 C 
ATOM     11  C   UNL     1      35.326 -20.073 -20.747  0.00  0.00    +0.131 C 
ATOM     12  C   UNL     1      35.993 -21.138 -19.954  0.00  0.00    +0.213 C 
ATOM     13  C   UNL     1      33.838 -21.551 -19.482  0.00  0.00    +0.222 C 
ATOM     14  H   UNL     1      31.827 -21.744 -19.193  0.00  0.00    +0.145 HD
ATOM     15  H   UNL     1      32.779 -22.887 -18.359  0.00  0.00    +0.145 HD
ENDBRANCH   4  10
BRANCH   2  16
ATOM     16  C   UNL     1      33.625 -15.097 -22.294  0.00  0.00    +0.035 C 
ATOM     17  C   UNL     1      32.300 -12.772 -21.506  0.00  0.00    +0.122 C 
ATOM     18  C   UNL     1      33.359 -14.095 -23.227  0.00  0.00    +0.004 C 
ATOM     19  C   UNL     1      33.228 -14.936 -20.966  0.00  0.00    +0.004 C 
ATOM     20  C   UNL     1      32.697 -12.933 -22.834  0.00  0.00    +0.020 C 
ATOM     21  C   UNL     1      32.566 -13.773 -20.573  0.00  0.00    +0.020 C 
BRANCH  17  22
ATOM     22  S   UNL     1      31.475 -11.314 -21.012  0.00  0.00    +0.060 S 
ATOM     23  O   UNL     1      30.049 -11.475 -21.263  0.00  0.00    -0.153 OA
ATOM     24  O   UNL     1      31.930 -10.979 -19.670  0.00  0.00    -0.153 OA
BRANCH  22  25
ATOM     25  N   UNL     1      32.095 -10.153 -22.103  0.00  0.00    -0.178 NA
ATOM     26  C   UNL     1      32.178  -8.741 -21.699  0.00  0.00    +0.110 C 
ATOM     27  H   UNL     1      31.509 -10.187 -22.936  0.00  0.00    +0.149 HD
ENDBRANCH  22  25
ENDBRANCH  17  22
ENDBRANCH   2  16
TORSDOF 4
ENDMDL
MODEL 5
REMARK VINA RESULT:     -10.1      3.475      9.118
REMARK  Name = 23647652
REMARK  4 active torsions:
REMARK  status: ('A' for Active; 'I' for Inactive)
REMARK    1  A    between atoms: C_2  and  C_16
REMARK    2  A    between atoms: C_4  and  C_10
REMARK    3  A    between atoms: C_17  and  S_22
REMARK    4  A    between atoms: S_22  and  N_25
REMARK                            x       y       z     vdW  Elec       q    Type
REMARK                         _______ _______ _______ _____ _____    ______ ____
ROOT
ATOM      1  O   UNL     1      34.744 -16.449 -22.325  0.00  0.00    -0.453 OA
ATOM      2  C   UNL     1      34.180 -15.823 -23.390  0.00  0.00    +0.145 C 
ATOM      3  C   UNL     1      34.301 -16.592 -24.523  0.00  0.00    +0.041 C 
ATOM      4  C   UNL     1      35.231 -17.632 -22.783  0.00  0.00    +0.147 C 
ATOM      5  C   UNL     1      34.983 -17.768 -24.129  0.00  0.00    +0.041 C 
ENDROOT
BRANCH   4  10
ATOM      6  S   UNL     1      33.586 -19.704 -21.018  0.00  0.00    -0.027 S 
ATOM      7  O   UNL     1      37.220 -20.461 -20.184  0.00  0.00    -0.209 OA
ATOM      8  N   UNL     1      35.117 -21.235 -19.590  0.00  0.00    -0.311 NA
ATOM      9  N   UNL     1      32.774 -21.624 -19.352  0.00  0.00    -0.327 N 
ATOM     10  C   UNL     1      35.891 -18.552 -21.936  0.00  0.00    +0.057 C 
ATOM     11  C   UNL     1      35.278 -19.466 -21.154  0.00  0.00    +0.131 C 
ATOM     12  C   UNL     1      36.000 -20.420 -20.274  0.00  0.00    +0.213 C 
ATOM     13  C   UNL     1      33.870 -20.995 -19.860  0.00  0.00    +0.222 C 
ATOM     14  H   UNL     1      31.873 -21.349 -19.637  0.00  0.00    +0.145 HD
ATOM     15  H   UNL     1      32.883 -22.354 -18.700  0.00  0.00    +0.145 HD
ENDBRANCH   4  10
BRANCH   2  16
ATOM     16  C   UNL     1      33.597 -14.533 -23.112  0.00  0.00    +0.035 C 
ATOM     17  C   UNL     1      32.475 -12.036 -22.573  0.00  0.00    +0.122 C 
ATOM     18  C   UNL     1      32.700 -14.385 -22.054  0.00  0.00    +0.004 C 
ATOM     19  C   UNL     1      33.933 -13.432 -23.899  0.00  0.00    +0.004 C 
ATOM     20  C   UNL     1      32.139 -13.137 -21.784  0.00  0.00    +0.020 C 
ATOM     21  C   UNL     1      33.372 -12.184 -23.630  0.00  0.00    +0.020 C 
BRANCH  17  22
ATOM     22  S   UNL     1      31.769 -10.475 -22.237  0.00  0.00    +0.060 S 
ATOM     23  O   UNL     1      32.614  -9.443 -22.824  0.00  0.00    -0.153 OA
ATOM     24  O   UNL     1      30.360 -10.536 -22.603  0.00  0.00    -0.153 OA
BRANCH  22  25
ATOM     25  N   UNL     1      31.886 -10.375 -20.535  0.00  0.00    -0.178 NA
ATOM     26  C   UNL     1      32.089  -9.070 -19.890  0.00  0.00    +0.110 C 
ATOM     27  H   UNL     1      32.669 -10.966 -20.257  0.00  0.00    +0.149 HD
ENDBRANCH  22  25
ENDBRANCH  17  22
ENDBRANCH   2  16
TORSDOF 4
ENDMDL
MODEL 6
REMARK VINA RESULT:     -10.0      3.265      4.256
REMARK  Name = 23647652
REMARK  4 active torsions:
REMARK  status: ('A' for Active; 'I' for Inactive)
REMARK    1  A    between atoms: C_2  and  C_16
REMARK    2  A    between atoms: C_4  and  C_10
REMARK    3  A    between atoms: C_17  and  S_22
REMARK    4  A    between atoms: S_22  and  N_25
REMARK                            x       y       z     vdW  Elec       q    Type
REMARK                         _______ _______ _______ _____ _____    ______ ____
ROOT
ATOM      1  O   UNL     1      35.125 -20.669 -20.105  0.00  0.00    -0.453 OA
ATOM      2  C   UNL     1      34.407 -21.313 -19.149  0.00  0.00    +0.145 C 
ATOM      3  C   UNL     1      33.062 -21.239 -19.423  0.00  0.00    +0.041 C 
ATOM      4  C   UNL     1      34.229 -20.177 -21.000  0.00  0.00    +0.147 C 
ATOM      5  C   UNL     1      32.946 -20.502 -20.626  0.00  0.00    +0.041 C 
ENDROOT
BRANCH   4  10
ATOM      6  S   UNL     1      34.286 -16.998 -20.960  0.00  0.00    -0.027 S 
ATOM      7  O   UNL     1      35.449 -17.898 -24.469  0.00  0.00    -0.209 OA
ATOM      8  N   UNL     1      35.067 -15.985 -23.215  0.00  0.00    -0.311 NA
ATOM      9  N   UNL     1      34.531 -14.399 -21.514  0.00  0.00    -0.327 N 
ATOM     10  C   UNL     1      34.629 -19.442 -22.140  0.00  0.00    +0.057 C 
ATOM     11  C   UNL     1      34.685 -18.095 -22.214  0.00  0.00    +0.131 C 
ATOM     12  C   UNL     1      35.109 -17.350 -23.428  0.00  0.00    +0.213 C 
ATOM     13  C   UNL     1      34.674 -15.654 -22.023  0.00  0.00    +0.222 C 
ATOM     14  H   UNL     1      34.223 -14.276 -20.587  0.00  0.00    +0.145 HD
ATOM     15  H   UNL     1      34.737 -13.615 -22.072  0.00  0.00    +0.145 HD
ENDBRANCH   4  10
BRANCH   2  16
ATOM     16  C   UNL     1      35.183 -21.914 -18.092  0.00  0.00    +0.035 C 
ATOM     17  C   UNL     1      36.687 -23.079 -16.052  0.00  0.00    +0.122 C 
ATOM     18  C   UNL     1      34.580 -22.799 -17.199  0.00  0.00    +0.004 C 
ATOM     19  C   UNL     1      36.539 -21.611 -17.965  0.00  0.00    +0.004 C 
ATOM     20  C   UNL     1      35.331 -23.382 -16.179  0.00  0.00    +0.020 C 
ATOM     21  C   UNL     1      37.290 -22.193 -16.944  0.00  0.00    +0.020 C 
BRANCH  17  22
ATOM     22  S   UNL     1      37.627 -23.805 -14.772  0.00  0.00    +0.060 S 
ATOM     23  O   UNL     1      38.968 -24.076 -15.272  0.00  0.00    -0.153 OA
ATOM     24  O   UNL     1      37.463 -22.984 -13.579  0.00  0.00    -0.153 OA
BRANCH  22  25
ATOM     25  N   UNL     1      36.824 -25.293 -14.523  0.00  0.00    -0.178 NA
ATOM     26  C   UNL     1      37.562 -26.556 -14.668  0.00  0.00    +0.110 C 
ATOM     27  H   UNL     1      36.050 -25.326 -15.186  0.00  0.00    +0.149 HD
ENDBRANCH  22  25
ENDBRANCH  17  22
ENDBRANCH   2  16
TORSDOF 4
ENDMDL
MODEL 7
REMARK VINA RESULT:      -9.4      7.736      9.745
REMARK  Name = 23647652
REMARK  4 active torsions:
REMARK  status: ('A' for Active; 'I' for Inactive)
REMARK    1  A    between atoms: C_2  and  C_16
REMARK    2  A    between atoms: C_4  and  C_10
REMARK    3  A    between atoms: C_17  and  S_22
REMARK    4  A    between atoms: S_22  and  N_25
REMARK                            x       y       z     vdW  Elec       q    Type
REMARK                         _______ _______ _______ _____ _____    ______ ____
ROOT
ATOM      1  O   UNL     1      33.147 -22.946 -16.247  0.00  0.00    -0.453 OA
ATOM      2  C   UNL     1      34.425 -23.067 -16.694  0.00  0.00    +0.145 C 
ATOM      3  C   UNL     1      34.494 -22.799 -18.040  0.00  0.00    +0.041 C 
ATOM      4  C   UNL     1      32.391 -22.598 -17.321  0.00  0.00    +0.147 C 
ATOM      5  C   UNL     1      33.173 -22.494 -18.449  0.00  0.00    +0.041 C 
ENDROOT
BRANCH   4  10
ATOM      6  S   UNL     1      30.567 -24.500 -15.543  0.00  0.00    -0.027 S 
ATOM      7  O   UNL     1      28.123 -21.975 -16.999  0.00  0.00    -0.209 OA
ATOM      8  N   UNL     1      28.066 -23.819 -15.595  0.00  0.00    -0.311 NA
ATOM      9  N   UNL     1      28.578 -25.722 -14.249  0.00  0.00    -0.327 N 
ATOM     10  C   UNL     1      30.997 -22.386 -17.223  0.00  0.00    +0.057 C 
ATOM     11  C   UNL     1      30.147 -23.139 -16.494  0.00  0.00    +0.131 C 
ATOM     12  C   UNL     1      28.684 -22.891 -16.412  0.00  0.00    +0.213 C 
ATOM     13  C   UNL     1      28.881 -24.691 -15.086  0.00  0.00    +0.222 C 
ATOM     14  H   UNL     1      29.291 -26.320 -13.927  0.00  0.00    +0.145 HD
ATOM     15  H   UNL     1      27.647 -25.868 -13.965  0.00  0.00    +0.145 HD
ENDBRANCH   4  10
BRANCH   2  16
ATOM     16  C   UNL     1      35.397 -23.436 -15.694  0.00  0.00    +0.035 C 
ATOM     17  C   UNL     1      37.282 -24.151 -13.765  0.00  0.00    +0.122 C 
ATOM     18  C   UNL     1      35.106 -24.442 -14.773  0.00  0.00    +0.004 C 
ATOM     19  C   UNL     1      36.632 -22.788 -15.651  0.00  0.00    +0.004 C 
ATOM     20  C   UNL     1      36.048 -24.800 -13.809  0.00  0.00    +0.020 C 
ATOM     21  C   UNL     1      37.573 -23.145 -14.686  0.00  0.00    +0.020 C 
BRANCH  17  22
ATOM     22  S   UNL     1      38.459 -24.596 -12.556  0.00  0.00    +0.060 S 
ATOM     23  O   UNL     1      38.696 -23.450 -11.688  0.00  0.00    -0.153 OA
ATOM     24  O   UNL     1      38.036 -25.860 -11.968  0.00  0.00    -0.153 OA
BRANCH  22  25
ATOM     25  N   UNL     1      39.863 -24.873 -13.492  0.00  0.00    -0.178 NA
ATOM     26  C   UNL     1      39.850 -25.902 -14.542  0.00  0.00    +0.110 C 
ATOM     27  H   UNL     1      40.606 -25.124 -12.842  0.00  0.00    +0.149 HD
ENDBRANCH  22  25
ENDBRANCH  17  22
ENDBRANCH   2  16
TORSDOF 4
ENDMDL
MODEL 8
REMARK VINA RESULT:      -9.4      4.827      7.289
REMARK  Name = 23647652
REMARK  4 active torsions:
REMARK  status: ('A' for Active; 'I' for Inactive)
REMARK    1  A    between atoms: C_2  and  C_16
REMARK    2  A    between atoms: C_4  and  C_10
REMARK    3  A    between atoms: C_17  and  S_22
REMARK    4  A    between atoms: S_22  and  N_25
REMARK                            x       y       z     vdW  Elec       q    Type
REMARK                         _______ _______ _______ _____ _____    ______ ____
ROOT
ATOM      1  O   UNL     1      32.388 -12.302 -22.464  0.00  0.00    -0.453 OA
ATOM      2  C   UNL     1      32.479 -13.202 -21.451  0.00  0.00    +0.145 C 
ATOM      3  C   UNL     1      31.870 -12.717 -20.318  0.00  0.00    +0.041 C 
ATOM      4  C   UNL     1      31.714 -11.230 -21.973  0.00  0.00    +0.147 C 
ATOM      5  C   UNL     1      31.373 -11.436 -20.656  0.00  0.00    +0.041 C 
ENDROOT
BRANCH   4  10
ATOM      6  S   UNL     1      32.221  -8.297 -20.851  0.00  0.00    -0.027 S 
ATOM      7  O   UNL     1      30.871  -7.722 -24.361  0.00  0.00    -0.209 OA
ATOM      8  N   UNL     1      31.599  -6.452 -22.563  0.00  0.00    -0.311 NA
ATOM      9  N   UNL     1      32.433  -5.665 -20.470  0.00  0.00    -0.327 N 
ATOM     10  C   UNL     1      31.435 -10.090 -22.762  0.00  0.00    +0.057 C 
ATOM     11  C   UNL     1      31.618  -8.811 -22.371  0.00  0.00    +0.131 C 
ATOM     12  C   UNL     1      31.314  -7.633 -23.223  0.00  0.00    +0.213 C 
ATOM     13  C   UNL     1      32.062  -6.625 -21.363  0.00  0.00    +0.222 C 
ATOM     14  H   UNL     1      32.772  -5.923 -19.583  0.00  0.00    +0.145 HD
ATOM     15  H   UNL     1      32.362  -4.713 -20.712  0.00  0.00    +0.145 HD
ENDBRANCH   4  10
BRANCH   2  16
ATOM     16  C   UNL     1      33.169 -14.428 -21.772  0.00  0.00    +0.035 C 
ATOM     17  C   UNL     1      34.507 -16.796 -22.389  0.00  0.00    +0.122 C 
ATOM     18  C   UNL     1      33.434 -14.753 -23.102  0.00  0.00    +0.004 C 
ATOM     19  C   UNL     1      33.574 -15.287 -20.750  0.00  0.00    +0.004 C 
ATOM     20  C   UNL     1      34.103 -15.937 -23.411  0.00  0.00    +0.020 C 
ATOM     21  C   UNL     1      34.243 -16.471 -21.059  0.00  0.00    +0.020 C 
BRANCH  17  22
ATOM     22  S   UNL     1      35.342 -18.280 -22.777  0.00  0.00    +0.060 S 
ATOM     23  O   UNL     1      35.241 -18.514 -24.211  0.00  0.00    -0.153 OA
ATOM     24  O   UNL     1      36.657 -18.226 -22.153  0.00  0.00    -0.153 OA
BRANCH  22  25
ATOM     25  N   UNL     1      34.402 -19.454 -21.963  0.00  0.00    -0.178 NA
ATOM     26  C   UNL     1      34.935 -20.114 -20.762  0.00  0.00    +0.110 C 
ATOM     27  H   UNL     1      34.199 -20.190 -22.638  0.00  0.00    +0.149 HD
ENDBRANCH  22  25
ENDBRANCH  17  22
ENDBRANCH   2  16
TORSDOF 4
ENDMDL
MODEL 9
REMARK VINA RESULT:      -9.3      4.414     10.501
REMARK  Name = 23647652
REMARK  4 active torsions:
REMARK  status: ('A' for Active; 'I' for Inactive)
REMARK    1  A    between atoms: C_2  and  C_16
REMARK    2  A    between atoms: C_4  and  C_10
REMARK    3  A    between atoms: C_17  and  S_22
REMARK    4  A    between atoms: S_22  and  N_25
REMARK                            x       y       z     vdW  Elec       q    Type
REMARK                         _______ _______ _______ _____ _____    ______ ____
ROOT
ATOM      1  O   UNL     1      35.376 -22.190 -16.610  0.00  0.00    -0.453 OA
ATOM      2  C   UNL     1      34.665 -22.470 -17.733  0.00  0.00    +0.145 C 
ATOM      3  C   UNL     1      33.903 -23.600 -17.554  0.00  0.00    +0.041 C 
ATOM      4  C   UNL     1      35.065 -23.152 -15.703  0.00  0.00    +0.147 C 
ATOM      5  C   UNL     1      34.162 -24.044 -16.235  0.00  0.00    +0.041 C 
ENDROOT
BRANCH   4  10
ATOM      6  S   UNL     1      37.614 -24.940 -15.055  0.00  0.00    -0.027 S 
ATOM      7  O   UNL     1      36.812 -23.242 -11.746  0.00  0.00    -0.209 OA
ATOM      8  N   UNL     1      38.373 -24.737 -12.584  0.00  0.00    -0.311 NA
ATOM      9  N   UNL     1      39.684 -26.200 -13.940  0.00  0.00    -0.327 N 
ATOM     10  C   UNL     1      35.628 -23.175 -14.406  0.00  0.00    +0.057 C 
ATOM     11  C   UNL     1      36.706 -23.900 -14.040  0.00  0.00    +0.131 C 
ATOM     12  C   UNL     1      37.274 -23.903 -12.668  0.00  0.00    +0.213 C 
ATOM     13  C   UNL     1      38.666 -25.327 -13.703  0.00  0.00    +0.222 C 
ATOM     14  H   UNL     1      39.805 -26.584 -14.838  0.00  0.00    +0.145 HD
ATOM     15  H   UNL     1      40.300 -26.447 -13.212  0.00  0.00    +0.145 HD
ENDBRANCH   4  10
BRANCH   2  16
ATOM     16  C   UNL     1      34.856 -21.554 -18.831  0.00  0.00    +0.035 C 
ATOM     17  C   UNL     1      35.224 -19.786 -20.958  0.00  0.00    +0.122 C 
ATOM     18  C   UNL     1      36.142 -21.145 -19.184  0.00  0.00    +0.004 C 
ATOM     19  C   UNL     1      33.754 -21.079 -19.542  0.00  0.00    +0.004 C 
ATOM     20  C   UNL     1      36.326 -20.261 -20.247  0.00  0.00    +0.020 C 
ATOM     21  C   UNL     1      33.938 -20.195 -20.605  0.00  0.00    +0.020 C 
BRANCH  17  22
ATOM     22  S   UNL     1      35.453 -18.677 -22.286  0.00  0.00    +0.060 S 
ATOM     23  O   UNL     1      34.632 -17.495 -22.057  0.00  0.00    -0.153 OA
ATOM     24  O   UNL     1      36.887 -18.520 -22.491  0.00  0.00    -0.153 OA
BRANCH  22  25
ATOM     25  N   UNL     1      34.806 -19.545 -23.608  0.00  0.00    -0.178 NA
ATOM     26  C   UNL     1      34.410 -18.830 -24.830  0.00  0.00    +0.110 C 
ATOM     27  H   UNL     1      33.976 -20.028 -23.267  0.00  0.00    +0.149 HD
ENDBRANCH  22  25
ENDBRANCH  17  22
ENDBRANCH   2  16
TORSDOF 4
ENDMDL
