MODEL 1
REMARK VINA RESULT:      -9.8      0.000      0.000
REMARK  Name = 2335
REMARK  12 active torsions:
REMARK  status: ('A' for Active; 'I' for Inactive)
REMARK    1  A    between atoms: O_1  and  C_7
REMARK    2  A    between atoms: O_1  and  C_16
REMARK    3  A    between atoms: C_2  and  C_8
REMARK    4  A    between atoms: C_8  and  C_11
REMARK    5  A    between atoms: C_11  and  C_12
REMARK    6  A    between atoms: C_16  and  C_17
REMARK    7  A    between atoms: C_17  and  O_18
REMARK    8  A    between atoms: O_18  and  C_19
REMARK    9  A    between atoms: C_19  and  C_20
REMARK   10  A    between atoms: C_20  and  N_21
REMARK   11  A    between atoms: N_21  and  C_24
REMARK   12  A    between atoms: C_24  and  C_25
REMARK                            x       y       z     vdW  Elec       q    Type
REMARK                         _______ _______ _______ _____ _____    ______ ____
ROOT
ATOM      1  O   UNL     1      33.278 -13.951 -24.380  0.00  0.00    -0.473 OA
ENDROOT
BRANCH   1   7
ATOM      2  C   UNL     1      32.942 -10.044 -23.182  0.00  0.00    -0.023 C 
ATOM      3  C   UNL     1      32.252 -10.998 -22.479  0.00  0.00    -0.001 C 
ATOM      4  C   UNL     1      33.738 -10.323 -24.260  0.00  0.00    -0.001 C 
ATOM      5  C   UNL     1      32.367 -12.327 -22.886  0.00  0.00    +0.037 C 
ATOM      6  C   UNL     1      33.852 -11.652 -24.668  0.00  0.00    +0.037 C 
ATOM      7  C   UNL     1      33.166 -12.654 -23.981  0.00  0.00    +0.139 C 
BRANCH   2   8
ATOM      8  C   UNL     1      32.815  -8.575 -22.730  0.00  0.00    +0.019 C 
ATOM      9  C   UNL     1      32.522  -8.409 -21.224  0.00  0.00    +0.004 C 
ATOM     10  C   UNL     1      34.210  -7.921 -22.959  0.00  0.00    +0.004 C 
BRANCH   8  11
ATOM     11  C   UNL     1      31.782  -7.757 -23.586  0.00  0.00    +0.004 C 
BRANCH  11  12
ATOM     12  C   UNL     1      31.947  -6.226 -23.865  0.00  0.00    +0.000 C 
ATOM     13  C   UNL     1      32.073  -5.372 -22.599  0.00  0.00    +0.000 C 
ATOM     14  C   UNL     1      33.145  -5.938 -24.792  0.00  0.00    +0.000 C 
ATOM     15  C   UNL     1      30.677  -5.761 -24.620  0.00  0.00    +0.000 C 
ENDBRANCH  11  12
ENDBRANCH   8  11
ENDBRANCH   2   8
ENDBRANCH   1   7
BRANCH   1  16
ATOM     16  C   UNL     1      33.103 -14.220 -25.770  0.00  0.00    +0.237 C 
BRANCH  16  17
ATOM     17  C   UNL     1      33.157 -15.719 -25.994  0.00  0.00    +0.189 C 
BRANCH  17  18
ATOM     18  O   UNL     1      34.504 -16.160 -25.871  0.00  0.00    -0.352 OA
BRANCH  18  19
ATOM     19  C   UNL     1      34.595 -17.339 -25.084  0.00  0.00    +0.120 C 
BRANCH  19  20
ATOM     20  C   UNL     1      34.730 -16.961 -23.621  0.00  0.00    -0.040 C 
BRANCH  20  21
ATOM     21  N   UNL     1      35.053 -18.176 -22.830  0.00  0.00    +0.392 N 
ATOM     22  C   UNL     1      34.630 -19.445 -23.584  0.00  0.00    -0.095 C 
ATOM     23  C   UNL     1      36.561 -18.262 -22.557  0.00  0.00    -0.095 C 
BRANCH  21  24
ATOM     24  C   UNL     1      34.324 -18.156 -21.480  0.00  0.00    -0.046 C 
BRANCH  24  25
ATOM     25  C   UNL     1      34.348 -19.482 -20.779  0.00  0.00    -0.043 C 
ATOM     26  C   UNL     1      33.152 -20.120 -20.469  0.00  0.00    -0.006 C 
ATOM     27  C   UNL     1      35.568 -20.062 -20.446  0.00  0.00    -0.006 C 
ATOM     28  C   UNL     1      33.175 -21.352 -19.817  0.00  0.00    -0.000 C 
ATOM     29  C   UNL     1      35.590 -21.295 -19.794  0.00  0.00    -0.000 C 
ATOM     30  C   UNL     1      34.394 -21.941 -19.479  0.00  0.00    -0.000 C 
ENDBRANCH  24  25
ENDBRANCH  21  24
ENDBRANCH  20  21
ENDBRANCH  19  20
ENDBRANCH  18  19
ENDBRANCH  17  18
ENDBRANCH  16  17
ENDBRANCH   1  16
TORSDOF 12
ENDMDL
MODEL 2
REMARK VINA RESULT:      -9.8      6.312     10.994
REMARK  Name = 2335
REMARK  12 active torsions:
REMARK  status: ('A' for Active; 'I' for Inactive)
REMARK    1  A    between atoms: O_1  and  C_7
REMARK    2  A    between atoms: O_1  and  C_16
REMARK    3  A    between atoms: C_2  and  C_8
REMARK    4  A    between atoms: C_8  and  C_11
REMARK    5  A    between atoms: C_11  and  C_12
REMARK    6  A    between atoms: C_16  and  C_17
REMARK    7  A    between atoms: C_17  and  O_18
REMARK    8  A    between atoms: O_18  and  C_19
REMARK    9  A    between atoms: C_19  and  C_20
REMARK   10  A    between atoms: C_20  and  N_21
REMARK   11  A    between atoms: N_21  and  C_24
REMARK   12  A    between atoms: C_24  and  C_25
REMARK                            x       y       z     vdW  Elec       q    Type
REMARK                         _______ _______ _______ _____ _____    ______ ____
ROOT
ATOM      1  O   UNL     1      34.287 -23.253 -18.060  0.00  0.00    -0.473 OA
ENDROOT
BRANCH   1   7
ATOM      2  C   UNL     1      34.622 -20.034 -20.578  0.00  0.00    -0.023 C 
ATOM      3  C   UNL     1      33.365 -20.442 -20.213  0.00  0.00    -0.001 C 
ATOM      4  C   UNL     1      35.772 -20.640 -20.147  0.00  0.00    -0.001 C 
ATOM      5  C   UNL     1      33.251 -21.536 -19.356  0.00  0.00    +0.037 C 
ATOM      6  C   UNL     1      35.658 -21.735 -19.292  0.00  0.00    +0.037 C 
ATOM      7  C   UNL     1      34.398 -22.184 -18.896  0.00  0.00    +0.139 C 
BRANCH   2   8
ATOM      8  C   UNL     1      34.747 -18.823 -21.525  0.00  0.00    +0.019 C 
ATOM      9  C   UNL     1      36.146 -18.171 -21.519  0.00  0.00    +0.004 C 
ATOM     10  C   UNL     1      34.548 -19.370 -22.969  0.00  0.00    +0.004 C 
BRANCH   8  11
ATOM     11  C   UNL     1      33.633 -17.741 -21.288  0.00  0.00    +0.004 C 
BRANCH  11  12
ATOM     12  C   UNL     1      33.914 -16.206 -21.409  0.00  0.00    +0.000 C 
ATOM     13  C   UNL     1      34.810 -15.647 -20.297  0.00  0.00    +0.000 C 
ATOM     14  C   UNL     1      34.518 -15.838 -22.778  0.00  0.00    +0.000 C 
ATOM     15  C   UNL     1      32.546 -15.485 -21.315  0.00  0.00    +0.000 C 
ENDBRANCH  11  12
ENDBRANCH   8  11
ENDBRANCH   2   8
ENDBRANCH   1   7
BRANCH   1  16
ATOM     16  C   UNL     1      33.373 -23.135 -16.972  0.00  0.00    +0.237 C 
BRANCH  16  17
ATOM     17  C   UNL     1      34.135 -23.272 -15.668  0.00  0.00    +0.189 C 
BRANCH  17  18
ATOM     18  O   UNL     1      33.514 -24.272 -14.869  0.00  0.00    -0.352 OA
BRANCH  18  19
ATOM     19  C   UNL     1      33.982 -24.231 -13.528  0.00  0.00    +0.120 C 
BRANCH  19  20
ATOM     20  C   UNL     1      35.287 -23.462 -13.470  0.00  0.00    -0.040 C 
BRANCH  20  21
ATOM     21  N   UNL     1      36.167 -24.068 -12.439  0.00  0.00    +0.392 N 
ATOM     22  C   UNL     1      37.358 -23.149 -12.130  0.00  0.00    -0.095 C 
ATOM     23  C   UNL     1      35.395 -24.304 -11.135  0.00  0.00    -0.095 C 
BRANCH  21  24
ATOM     24  C   UNL     1      36.718 -25.417 -12.920  0.00  0.00    -0.046 C 
BRANCH  24  25
ATOM     25  C   UNL     1      37.988 -25.288 -13.707  0.00  0.00    -0.043 C 
ATOM     26  C   UNL     1      39.145 -25.913 -13.256  0.00  0.00    -0.006 C 
ATOM     27  C   UNL     1      37.996 -24.544 -14.883  0.00  0.00    -0.006 C 
ATOM     28  C   UNL     1      40.326 -25.793 -13.988  0.00  0.00    -0.000 C 
ATOM     29  C   UNL     1      39.177 -24.425 -15.615  0.00  0.00    -0.000 C 
ATOM     30  C   UNL     1      40.342 -25.049 -15.169  0.00  0.00    -0.000 C 
ENDBRANCH  24  25
ENDBRANCH  21  24
ENDBRANCH  20  21
ENDBRANCH  19  20
ENDBRANCH  18  19
ENDBRANCH  17  18
ENDBRANCH  16  17
ENDBRANCH   1  16
TORSDOF 12
ENDMDL
MODEL 3
REMARK VINA RESULT:      -9.8      0.736      1.550
REMARK  Name = 2335
REMARK  12 active torsions:
REMARK  status: ('A' for Active; 'I' for Inactive)
REMARK    1  A    between atoms: O_1  and  C_7
REMARK    2  A    between atoms: O_1  and  C_16
REMARK    3  A    between atoms: C_2  and  C_8
REMARK    4  A    between atoms: C_8  and  C_11
REMARK    5  A    between atoms: C_11  and  C_12
REMARK    6  A    between atoms: C_16  and  C_17
REMARK    7  A    between atoms: C_17  and  O_18
REMARK    8  A    between atoms: O_18  and  C_19
REMARK    9  A    between atoms: C_19  and  C_20
REMARK   10  A    between atoms: C_20  and  N_21
REMARK   11  A    between atoms: N_21  and  C_24
REMARK   12  A    between atoms: C_24  and  C_25
REMARK                            x       y       z     vdW  Elec       q    Type
REMARK                         _______ _______ _______ _____ _____    ______ ____
ROOT
ATOM      1  O   UNL     1      33.673 -13.353 -24.751  0.00  0.00    -0.473 OA
ENDROOT
BRANCH   1   7
ATOM      2  C   UNL     1      33.705  -9.408 -23.633  0.00  0.00    -0.023 C 
ATOM      3  C   UNL     1      34.580  -9.811 -24.609  0.00  0.00    -0.001 C 
ATOM      4  C   UNL     1      32.820 -10.249 -23.013  0.00  0.00    -0.001 C 
ATOM      5  C   UNL     1      34.569 -11.153 -24.990  0.00  0.00    +0.037 C 
ATOM      6  C   UNL     1      32.810 -11.591 -23.392  0.00  0.00    +0.037 C 
ATOM      7  C   UNL     1      33.684 -12.043 -24.381  0.00  0.00    +0.139 C 
BRANCH   2   8
ATOM      8  C   UNL     1      33.717  -7.924 -23.213  0.00  0.00    +0.019 C 
ATOM      9  C   UNL     1      33.296  -7.689 -21.748  0.00  0.00    +0.004 C 
ATOM     10  C   UNL     1      35.198  -7.452 -23.303  0.00  0.00    +0.004 C 
BRANCH   8  11
ATOM     11  C   UNL     1      32.886  -7.006 -24.180  0.00  0.00    +0.004 C 
BRANCH  11  12
ATOM     12  C   UNL     1      31.485  -6.427 -23.791  0.00  0.00    +0.000 C 
ATOM     13  C   UNL     1      31.390  -5.949 -22.337  0.00  0.00    +0.000 C 
ATOM     14  C   UNL     1      31.056  -5.282 -24.729  0.00  0.00    +0.000 C 
ATOM     15  C   UNL     1      30.454  -7.567 -23.978  0.00  0.00    +0.000 C 
ENDBRANCH  11  12
ENDBRANCH   8  11
ENDBRANCH   2   8
ENDBRANCH   1   7
BRANCH   1  16
ATOM     16  C   UNL     1      33.041 -13.672 -25.989  0.00  0.00    +0.237 C 
BRANCH  16  17
ATOM     17  C   UNL     1      32.960 -15.180 -26.129  0.00  0.00    +0.189 C 
BRANCH  17  18
ATOM     18  O   UNL     1      34.258 -15.734 -25.946  0.00  0.00    -0.352 OA
BRANCH  18  19
ATOM     19  C   UNL     1      34.215 -16.905 -25.143  0.00  0.00    +0.120 C 
BRANCH  19  20
ATOM     20  C   UNL     1      34.954 -16.655 -23.842  0.00  0.00    -0.040 C 
BRANCH  20  21
ATOM     21  N   UNL     1      35.076 -17.933 -23.095  0.00  0.00    +0.392 N 
ATOM     22  C   UNL     1      34.563 -19.108 -23.940  0.00  0.00    -0.095 C 
ATOM     23  C   UNL     1      36.540 -18.211 -22.729  0.00  0.00    -0.095 C 
BRANCH  21  24
ATOM     24  C   UNL     1      34.259 -17.885 -21.798  0.00  0.00    -0.046 C 
BRANCH  24  25
ATOM     25  C   UNL     1      34.294 -19.173 -21.032  0.00  0.00    -0.043 C 
ATOM     26  C   UNL     1      35.518 -19.749 -20.707  0.00  0.00    -0.006 C 
ATOM     27  C   UNL     1      33.102 -19.782 -20.652  0.00  0.00    -0.006 C 
ATOM     28  C   UNL     1      35.551 -20.947 -19.995  0.00  0.00    -0.000 C 
ATOM     29  C   UNL     1      33.136 -20.980 -19.939  0.00  0.00    -0.000 C 
ATOM     30  C   UNL     1      34.360 -21.563 -19.610  0.00  0.00    -0.000 C 
ENDBRANCH  24  25
ENDBRANCH  21  24
ENDBRANCH  20  21
ENDBRANCH  19  20
ENDBRANCH  18  19
ENDBRANCH  17  18
ENDBRANCH  16  17
ENDBRANCH   1  16
TORSDOF 12
ENDMDL
MODEL 4
REMARK VINA RESULT:      -9.8      5.632      9.790
REMARK  Name = 2335
REMARK  12 active torsions:
REMARK  status: ('A' for Active; 'I' for Inactive)
REMARK    1  A    between atoms: O_1  and  C_7
REMARK    2  A    between atoms: O_1  and  C_16
REMARK    3  A    between atoms: C_2  and  C_8
REMARK    4  A    between atoms: C_8  and  C_11
REMARK    5  A    between atoms: C_11  and  C_12
REMARK    6  A    between atoms: C_16  and  C_17
REMARK    7  A    between atoms: C_17  and  O_18
REMARK    8  A    between atoms: O_18  and  C_19
REMARK    9  A    between atoms: C_19  and  C_20
REMARK   10  A    between atoms: C_20  and  N_21
REMARK   11  A    between atoms: N_21  and  C_24
REMARK   12  A    between atoms: C_24  and  C_25
REMARK                            x       y       z     vdW  Elec       q    Type
REMARK                         _______ _______ _______ _____ _____    ______ ____
ROOT
ATOM      1  O   UNL     1      32.946 -21.781 -18.786  0.00  0.00    -0.473 OA
ENDROOT
BRANCH   1   7
ATOM      2  C   UNL     1      34.351 -19.228 -21.670  0.00  0.00    -0.023 C 
ATOM      3  C   UNL     1      33.003 -19.243 -21.420  0.00  0.00    -0.001 C 
ATOM      4  C   UNL     1      35.254 -20.017 -21.010  0.00  0.00    -0.001 C 
ATOM      5  C   UNL     1      32.525 -20.110 -20.439  0.00  0.00    +0.037 C 
ATOM      6  C   UNL     1      34.777 -20.886 -20.030  0.00  0.00    +0.037 C 
ATOM      7  C   UNL     1      33.412 -20.933 -19.744  0.00  0.00    +0.139 C 
BRANCH   2   8
ATOM      8  C   UNL     1      34.879 -18.267 -22.755  0.00  0.00    +0.019 C 
ATOM      9  C   UNL     1      36.375 -17.923 -22.607  0.00  0.00    +0.004 C 
ATOM     10  C   UNL     1      34.756 -19.022 -24.111  0.00  0.00    +0.004 C 
BRANCH   8  11
ATOM     11  C   UNL     1      34.022 -16.956 -22.884  0.00  0.00    +0.004 C 
BRANCH  11  12
ATOM     12  C   UNL     1      33.980 -15.866 -21.762  0.00  0.00    +0.000 C 
ATOM     13  C   UNL     1      32.572 -15.572 -21.231  0.00  0.00    +0.000 C 
ATOM     14  C   UNL     1      34.903 -16.223 -20.580  0.00  0.00    +0.000 C 
ATOM     15  C   UNL     1      34.531 -14.557 -22.379  0.00  0.00    +0.000 C 
ENDBRANCH  11  12
ENDBRANCH   8  11
ENDBRANCH   2   8
ENDBRANCH   1   7
BRANCH   1  16
ATOM     16  C   UNL     1      33.615 -23.033 -18.647  0.00  0.00    +0.237 C 
BRANCH  16  17
ATOM     17  C   UNL     1      34.150 -23.154 -17.234  0.00  0.00    +0.189 C 
BRANCH  17  18
ATOM     18  O   UNL     1      35.509 -22.733 -17.213  0.00  0.00    -0.352 OA
BRANCH  18  19
ATOM     19  C   UNL     1      36.109 -22.973 -15.948  0.00  0.00    +0.120 C 
BRANCH  19  20
ATOM     20  C   UNL     1      35.073 -22.797 -14.854  0.00  0.00    -0.040 C 
BRANCH  20  21
ATOM     21  N   UNL     1      35.162 -23.937 -13.907  0.00  0.00    +0.392 N 
ATOM     22  C   UNL     1      35.205 -25.272 -14.665  0.00  0.00    -0.095 C 
ATOM     23  C   UNL     1      36.430 -23.834 -13.049  0.00  0.00    -0.095 C 
BRANCH  21  24
ATOM     24  C   UNL     1      33.949 -23.961 -12.968  0.00  0.00    -0.046 C 
BRANCH  24  25
ATOM     25  C   UNL     1      32.640 -23.985 -13.698  0.00  0.00    -0.043 C 
ATOM     26  C   UNL     1      31.932 -25.177 -13.806  0.00  0.00    -0.006 C 
ATOM     27  C   UNL     1      32.143 -22.813 -14.261  0.00  0.00    -0.006 C 
ATOM     28  C   UNL     1      30.714 -25.199 -14.485  0.00  0.00    -0.000 C 
ATOM     29  C   UNL     1      30.925 -22.836 -14.940  0.00  0.00    -0.000 C 
ATOM     30  C   UNL     1      30.210 -24.028 -15.052  0.00  0.00    -0.000 C 
ENDBRANCH  24  25
ENDBRANCH  21  24
ENDBRANCH  20  21
ENDBRANCH  19  20
ENDBRANCH  18  19
ENDBRANCH  17  18
ENDBRANCH  16  17
ENDBRANCH   1  16
TORSDOF 12
ENDMDL
MODEL 5
REMARK VINA RESULT:      -9.7      6.200     10.945
REMARK  Name = 2335
REMARK  12 active torsions:
REMARK  status: ('A' for Active; 'I' for Inactive)
REMARK    1  A    between atoms: O_1  and  C_7
REMARK    2  A    between atoms: O_1  and  C_16
REMARK    3  A    between atoms: C_2  and  C_8
REMARK    4  A    between atoms: C_8  and  C_11
REMARK    5  A    between atoms: C_11  and  C_12
REMARK    6  A    between atoms: C_16  and  C_17
REMARK    7  A    between atoms: C_17  and  O_18
REMARK    8  A    between atoms: O_18  and  C_19
REMARK    9  A    between atoms: C_19  and  C_20
REMARK   10  A    between atoms: C_20  and  N_21
REMARK   11  A    between atoms: N_21  and  C_24
REMARK   12  A    between atoms: C_24  and  C_25
REMARK                            x       y       z     vdW  Elec       q    Type
REMARK                         _______ _______ _______ _____ _____    ______ ____
ROOT
ATOM      1  O   UNL     1      34.415 -23.274 -18.214  0.00  0.00    -0.473 OA
ENDROOT
BRANCH   1   7
ATOM      2  C   UNL     1      34.673 -19.984 -20.648  0.00  0.00    -0.023 C 
ATOM      3  C   UNL     1      35.837 -20.592 -20.255  0.00  0.00    -0.001 C 
ATOM      4  C   UNL     1      33.428 -20.416 -20.274  0.00  0.00    -0.001 C 
ATOM      5  C   UNL     1      35.750 -21.711 -19.428  0.00  0.00    +0.037 C 
ATOM      6  C   UNL     1      33.340 -21.534 -19.445  0.00  0.00    +0.037 C 
ATOM      7  C   UNL     1      34.501 -22.182 -19.022  0.00  0.00    +0.139 C 
BRANCH   2   8
ATOM      8  C   UNL     1      34.771 -18.747 -21.563  0.00  0.00    +0.019 C 
ATOM      9  C   UNL     1      36.166 -18.088 -21.573  0.00  0.00    +0.004 C 
ATOM     10  C   UNL     1      34.538 -19.254 -23.017  0.00  0.00    +0.004 C 
BRANCH   8  11
ATOM     11  C   UNL     1      33.658 -17.677 -21.269  0.00  0.00    +0.004 C 
BRANCH  11  12
ATOM     12  C   UNL     1      33.877 -16.147 -21.518  0.00  0.00    +0.000 C 
ATOM     13  C   UNL     1      34.572 -15.825 -22.846  0.00  0.00    +0.000 C 
ATOM     14  C   UNL     1      32.557 -15.357 -21.434  0.00  0.00    +0.000 C 
ATOM     15  C   UNL     1      34.784 -15.625 -20.376  0.00  0.00    +0.000 C 
ENDBRANCH  11  12
ENDBRANCH   8  11
ENDBRANCH   2   8
ENDBRANCH   1   7
BRANCH   1  16
ATOM     16  C   UNL     1      33.590 -23.161 -17.056  0.00  0.00    +0.237 C 
BRANCH  16  17
ATOM     17  C   UNL     1      34.345 -23.697 -15.856  0.00  0.00    +0.189 C 
BRANCH  17  18
ATOM     18  O   UNL     1      35.731 -23.768 -16.172  0.00  0.00    -0.352 OA
BRANCH  18  19
ATOM     19  C   UNL     1      36.393 -24.756 -15.394  0.00  0.00    +0.120 C 
BRANCH  19  20
ATOM     20  C   UNL     1      37.774 -24.258 -15.012  0.00  0.00    -0.040 C 
BRANCH  20  21
ATOM     21  N   UNL     1      38.620 -25.415 -14.625  0.00  0.00    +0.392 N 
ATOM     22  C   UNL     1      37.923 -26.739 -14.969  0.00  0.00    -0.095 C 
ATOM     23  C   UNL     1      39.964 -25.377 -15.365  0.00  0.00    -0.095 C 
BRANCH  21  24
ATOM     24  C   UNL     1      38.904 -25.401 -13.118  0.00  0.00    -0.046 C 
BRANCH  24  25
ATOM     25  C   UNL     1      37.813 -24.752 -12.319  0.00  0.00    -0.043 C 
ATOM     26  C   UNL     1      37.950 -23.429 -11.913  0.00  0.00    -0.006 C 
ATOM     27  C   UNL     1      36.673 -25.480 -11.993  0.00  0.00    -0.006 C 
ATOM     28  C   UNL     1      36.935 -22.826 -11.171  0.00  0.00    -0.000 C 
ATOM     29  C   UNL     1      35.658 -24.875 -11.251  0.00  0.00    -0.000 C 
ATOM     30  C   UNL     1      35.789 -23.549 -10.840  0.00  0.00    -0.000 C 
ENDBRANCH  24  25
ENDBRANCH  21  24
ENDBRANCH  20  21
ENDBRANCH  19  20
ENDBRANCH  18  19
ENDBRANCH  17  18
ENDBRANCH  16  17
ENDBRANCH   1  16
TORSDOF 12
ENDMDL
MODEL 6
REMARK VINA RESULT:      -9.5      5.860     10.099
REMARK  Name = 2335
REMARK  12 active torsions:
REMARK  status: ('A' for Active; 'I' for Inactive)
REMARK    1  A    between atoms: O_1  and  C_7
REMARK    2  A    between atoms: O_1  and  C_16
REMARK    3  A    between atoms: C_2  and  C_8
REMARK    4  A    between atoms: C_8  and  C_11
REMARK    5  A    between atoms: C_11  and  C_12
REMARK    6  A    between atoms: C_16  and  C_17
REMARK    7  A    between atoms: C_17  and  O_18
REMARK    8  A    between atoms: O_18  and  C_19
REMARK    9  A    between atoms: C_19  and  C_20
REMARK   10  A    between atoms: C_20  and  N_21
REMARK   11  A    between atoms: N_21  and  C_24
REMARK   12  A    between atoms: C_24  and  C_25
REMARK                            x       y       z     vdW  Elec       q    Type
REMARK                         _______ _______ _______ _____ _____    ______ ____
ROOT
ATOM      1  O   UNL     1      35.390 -22.428 -18.498  0.00  0.00    -0.473 OA
ENDROOT
BRANCH   1   7
ATOM      2  C   UNL     1      34.987 -19.443 -21.280  0.00  0.00    -0.023 C 
ATOM      3  C   UNL     1      33.849 -20.042 -20.804  0.00  0.00    -0.001 C 
ATOM      4  C   UNL     1      36.250 -19.785 -20.877  0.00  0.00    -0.001 C 
ATOM      5  C   UNL     1      33.986 -21.057 -19.857  0.00  0.00    +0.037 C 
ATOM      6  C   UNL     1      36.388 -20.801 -19.932  0.00  0.00    +0.037 C 
ATOM      7  C   UNL     1      35.255 -21.437 -19.421  0.00  0.00    +0.139 C 
BRANCH   2   8
ATOM      8  C   UNL     1      34.834 -18.320 -22.326  0.00  0.00    +0.019 C 
ATOM      9  C   UNL     1      36.121 -17.499 -22.549  0.00  0.00    +0.004 C 
ATOM     10  C   UNL     1      34.545 -19.020 -23.686  0.00  0.00    +0.004 C 
BRANCH   8  11
ATOM     11  C   UNL     1      33.618 -17.370 -22.034  0.00  0.00    +0.004 C 
BRANCH  11  12
ATOM     12  C   UNL     1      33.792 -15.959 -21.380  0.00  0.00    +0.000 C 
ATOM     13  C   UNL     1      34.826 -15.920 -20.249  0.00  0.00    +0.000 C 
ATOM     14  C   UNL     1      34.143 -14.881 -22.424  0.00  0.00    +0.000 C 
ATOM     15  C   UNL     1      32.421 -15.565 -20.775  0.00  0.00    +0.000 C 
ENDBRANCH  11  12
ENDBRANCH   8  11
ENDBRANCH   2   8
ENDBRANCH   1   7
BRANCH   1  16
ATOM     16  C   UNL     1      35.744 -22.037 -17.173  0.00  0.00    +0.237 C 
BRANCH  16  17
ATOM     17  C   UNL     1      37.254 -21.945 -17.071  0.00  0.00    +0.189 C 
BRANCH  17  18
ATOM     18  O   UNL     1      37.644 -22.182 -15.723  0.00  0.00    -0.352 OA
BRANCH  18  19
ATOM     19  C   UNL     1      37.180 -23.443 -15.261  0.00  0.00    +0.120 C 
BRANCH  19  20
ATOM     20  C   UNL     1      36.452 -23.262 -13.943  0.00  0.00    -0.040 C 
BRANCH  20  21
ATOM     21  N   UNL     1      35.659 -24.483 -13.650  0.00  0.00    +0.392 N 
ATOM     22  C   UNL     1      35.285 -25.213 -14.949  0.00  0.00    -0.095 C 
ATOM     23  C   UNL     1      36.459 -25.454 -12.771  0.00  0.00    -0.095 C 
BRANCH  21  24
ATOM     24  C   UNL     1      34.363 -24.126 -12.912  0.00  0.00    -0.046 C 
BRANCH  24  25
ATOM     25  C   UNL     1      33.158 -24.124 -13.805  0.00  0.00    -0.043 C 
ATOM     26  C   UNL     1      33.059 -23.184 -14.826  0.00  0.00    -0.006 C 
ATOM     27  C   UNL     1      32.150 -25.062 -13.605  0.00  0.00    -0.006 C 
ATOM     28  C   UNL     1      31.939 -23.182 -15.657  0.00  0.00    -0.000 C 
ATOM     29  C   UNL     1      31.031 -25.060 -14.437  0.00  0.00    -0.000 C 
ATOM     30  C   UNL     1      30.925 -24.120 -15.463  0.00  0.00    -0.000 C 
ENDBRANCH  24  25
ENDBRANCH  21  24
ENDBRANCH  20  21
ENDBRANCH  19  20
ENDBRANCH  18  19
ENDBRANCH  17  18
ENDBRANCH  16  17
ENDBRANCH   1  16
TORSDOF 12
ENDMDL
MODEL 7
REMARK VINA RESULT:      -9.5      6.058     10.221
REMARK  Name = 2335
REMARK  12 active torsions:
REMARK  status: ('A' for Active; 'I' for Inactive)
REMARK    1  A    between atoms: O_1  and  C_7
REMARK    2  A    between atoms: O_1  and  C_16
REMARK    3  A    between atoms: C_2  and  C_8
REMARK    4  A    between atoms: C_8  and  C_11
REMARK    5  A    between atoms: C_11  and  C_12
REMARK    6  A    between atoms: C_16  and  C_17
REMARK    7  A    between atoms: C_17  and  O_18
REMARK    8  A    between atoms: O_18  and  C_19
REMARK    9  A    between atoms: C_19  and  C_20
REMARK   10  A    between atoms: C_20  and  N_21
REMARK   11  A    between atoms: N_21  and  C_24
REMARK   12  A    between atoms: C_24  and  C_25
REMARK                            x       y       z     vdW  Elec       q    Type
REMARK                         _______ _______ _______ _____ _____    ______ ____
ROOT
ATOM      1  O   UNL     1      35.937 -22.429 -18.085  0.00  0.00    -0.473 OA
ENDROOT
BRANCH   1   7
ATOM      2  C   UNL     1      35.175 -19.613 -20.966  0.00  0.00    -0.023 C 
ATOM      3  C   UNL     1      36.467 -19.761 -20.531  0.00  0.00    -0.001 C 
ATOM      4  C   UNL     1      34.126 -20.354 -20.494  0.00  0.00    -0.001 C 
ATOM      5  C   UNL     1      36.726 -20.719 -19.552  0.00  0.00    +0.037 C 
ATOM      6  C   UNL     1      34.384 -21.312 -19.513  0.00  0.00    +0.037 C 
ATOM      7  C   UNL     1      35.685 -21.494 -19.042  0.00  0.00    +0.139 C 
BRANCH   2   8
ATOM      8  C   UNL     1      34.890 -18.554 -22.050  0.00  0.00    +0.019 C 
ATOM      9  C   UNL     1      36.122 -17.709 -22.435  0.00  0.00    +0.004 C 
ATOM     10  C   UNL     1      34.500 -19.335 -23.339  0.00  0.00    +0.004 C 
BRANCH   8  11
ATOM     11  C   UNL     1      33.673 -17.624 -21.694  0.00  0.00    +0.004 C 
BRANCH  11  12
ATOM     12  C   UNL     1      33.841 -16.096 -21.402  0.00  0.00    +0.000 C 
ATOM     13  C   UNL     1      34.830 -15.783 -20.273  0.00  0.00    +0.000 C 
ATOM     14  C   UNL     1      34.249 -15.311 -22.664  0.00  0.00    +0.000 C 
ATOM     15  C   UNL     1      32.453 -15.560 -20.972  0.00  0.00    +0.000 C 
ENDBRANCH  11  12
ENDBRANCH   8  11
ENDBRANCH   2   8
ENDBRANCH   1   7
BRANCH   1  16
ATOM     16  C   UNL     1      36.705 -22.013 -16.957  0.00  0.00    +0.237 C 
BRANCH  16  17
ATOM     17  C   UNL     1      36.209 -22.743 -15.724  0.00  0.00    +0.189 C 
BRANCH  17  18
ATOM     18  O   UNL     1      35.858 -24.075 -16.082  0.00  0.00    -0.352 OA
BRANCH  18  19
ATOM     19  C   UNL     1      34.985 -24.658 -15.124  0.00  0.00    +0.120 C 
BRANCH  19  20
ATOM     20  C   UNL     1      34.287 -23.563 -14.342  0.00  0.00    -0.040 C 
BRANCH  20  21
ATOM     21  N   UNL     1      32.818 -23.763 -14.424  0.00  0.00    +0.392 N 
ATOM     22  C   UNL     1      32.420 -25.122 -13.830  0.00  0.00    -0.095 C 
ATOM     23  C   UNL     1      32.075 -22.667 -13.648  0.00  0.00    -0.095 C 
BRANCH  21  24
ATOM     24  C   UNL     1      32.344 -23.722 -15.882  0.00  0.00    -0.046 C 
BRANCH  24  25
ATOM     25  C   UNL     1      30.852 -23.663 -16.015  0.00  0.00    -0.043 C 
ATOM     26  C   UNL     1      30.087 -24.780 -15.697  0.00  0.00    -0.006 C 
ATOM     27  C   UNL     1      30.245 -22.490 -16.454  0.00  0.00    -0.006 C 
ATOM     28  C   UNL     1      28.699 -24.725 -15.820  0.00  0.00    -0.000 C 
ATOM     29  C   UNL     1      28.856 -22.436 -16.576  0.00  0.00    -0.000 C 
ATOM     30  C   UNL     1      28.083 -23.553 -16.259  0.00  0.00    -0.000 C 
ENDBRANCH  24  25
ENDBRANCH  21  24
ENDBRANCH  20  21
ENDBRANCH  19  20
ENDBRANCH  18  19
ENDBRANCH  17  18
ENDBRANCH  16  17
ENDBRANCH   1  16
TORSDOF 12
ENDMDL
MODEL 8
REMARK VINA RESULT:      -9.5      6.121     10.732
REMARK  Name = 2335
REMARK  12 active torsions:
REMARK  status: ('A' for Active; 'I' for Inactive)
REMARK    1  A    between atoms: O_1  and  C_7
REMARK    2  A    between atoms: O_1  and  C_16
REMARK    3  A    between atoms: C_2  and  C_8
REMARK    4  A    between atoms: C_8  and  C_11
REMARK    5  A    between atoms: C_11  and  C_12
REMARK    6  A    between atoms: C_16  and  C_17
REMARK    7  A    between atoms: C_17  and  O_18
REMARK    8  A    between atoms: O_18  and  C_19
REMARK    9  A    between atoms: C_19  and  C_20
REMARK   10  A    between atoms: C_20  and  N_21
REMARK   11  A    between atoms: N_21  and  C_24
REMARK   12  A    between atoms: C_24  and  C_25
REMARK                            x       y       z     vdW  Elec       q    Type
REMARK                         _______ _______ _______ _____ _____    ______ ____
ROOT
ATOM      1  O   UNL     1      34.508 -22.702 -18.178  0.00  0.00    -0.473 OA
ENDROOT
BRANCH   1   7
ATOM      2  C   UNL     1      34.763 -19.745 -21.006  0.00  0.00    -0.023 C 
ATOM      3  C   UNL     1      33.516 -20.146 -20.600  0.00  0.00    -0.001 C 
ATOM      4  C   UNL     1      35.927 -20.275 -20.519  0.00  0.00    -0.001 C 
ATOM      5  C   UNL     1      33.430 -21.152 -19.638  0.00  0.00    +0.037 C 
ATOM      6  C   UNL     1      35.841 -21.281 -19.557  0.00  0.00    +0.037 C 
ATOM      7  C   UNL     1      34.592 -21.720 -19.117  0.00  0.00    +0.139 C 
BRANCH   2   8
ATOM      8  C   UNL     1      34.858 -18.632 -22.070  0.00  0.00    +0.019 C 
ATOM      9  C   UNL     1      36.231 -17.930 -22.115  0.00  0.00    +0.004 C 
ATOM     10  C   UNL     1      34.700 -19.330 -23.453  0.00  0.00    +0.004 C 
BRANCH   8  11
ATOM     11  C   UNL     1      33.701 -17.575 -21.958  0.00  0.00    +0.004 C 
BRANCH  11  12
ATOM     12  C   UNL     1      33.957 -16.092 -21.526  0.00  0.00    +0.000 C 
ATOM     13  C   UNL     1      34.871 -15.948 -20.304  0.00  0.00    +0.000 C 
ATOM     14  C   UNL     1      34.522 -15.247 -22.684  0.00  0.00    +0.000 C 
ATOM     15  C   UNL     1      32.582 -15.482 -21.158  0.00  0.00    +0.000 C 
ENDBRANCH  11  12
ENDBRANCH   8  11
ENDBRANCH   2   8
ENDBRANCH   1   7
BRANCH   1  16
ATOM     16  C   UNL     1      33.201 -23.106 -17.774  0.00  0.00    +0.237 C 
BRANCH  16  17
ATOM     17  C   UNL     1      33.215 -23.416 -16.291  0.00  0.00    +0.189 C 
BRANCH  17  18
ATOM     18  O   UNL     1      34.490 -23.080 -15.757  0.00  0.00    -0.352 OA
BRANCH  18  19
ATOM     19  C   UNL     1      34.996 -24.116 -14.926  0.00  0.00    +0.120 C 
BRANCH  19  20
ATOM     20  C   UNL     1      36.188 -23.600 -14.143  0.00  0.00    -0.040 C 
BRANCH  20  21
ATOM     21  N   UNL     1      36.053 -24.008 -12.721  0.00  0.00    +0.392 N 
ATOM     22  C   UNL     1      36.737 -22.991 -11.796  0.00  0.00    -0.095 C 
ATOM     23  C   UNL     1      34.575 -24.100 -12.320  0.00  0.00    -0.095 C 
BRANCH  21  24
ATOM     24  C   UNL     1      36.699 -25.379 -12.485  0.00  0.00    -0.046 C 
BRANCH  24  25
ATOM     25  C   UNL     1      37.920 -25.607 -13.325  0.00  0.00    -0.043 C 
ATOM     26  C   UNL     1      37.843 -26.425 -14.447  0.00  0.00    -0.006 C 
ATOM     27  C   UNL     1      39.120 -24.996 -12.975  0.00  0.00    -0.006 C 
ATOM     28  C   UNL     1      38.979 -26.637 -15.228  0.00  0.00    -0.000 C 
ATOM     29  C   UNL     1      40.256 -25.208 -13.756  0.00  0.00    -0.000 C 
ATOM     30  C   UNL     1      40.186 -26.028 -14.883  0.00  0.00    -0.000 C 
ENDBRANCH  24  25
ENDBRANCH  21  24
ENDBRANCH  20  21
ENDBRANCH  19  20
ENDBRANCH  18  19
ENDBRANCH  17  18
ENDBRANCH  16  17
ENDBRANCH   1  16
TORSDOF 12
ENDMDL
MODEL 9
REMARK VINA RESULT:      -9.1      1.468      2.748
REMARK  Name = 2335
REMARK  12 active torsions:
REMARK  status: ('A' for Active; 'I' for Inactive)
REMARK    1  A    between atoms: O_1  and  C_7
REMARK    2  A    between atoms: O_1  and  C_16
REMARK    3  A    between atoms: C_2  and  C_8
REMARK    4  A    between atoms: C_8  and  C_11
REMARK    5  A    between atoms: C_11  and  C_12
REMARK    6  A    between atoms: C_16  and  C_17
REMARK    7  A    between atoms: C_17  and  O_18
REMARK    8  A    between atoms: O_18  and  C_19
REMARK    9  A    between atoms: C_19  and  C_20
REMARK   10  A    between atoms: C_20  and  N_21
REMARK   11  A    between atoms: N_21  and  C_24
REMARK   12  A    between atoms: C_24  and  C_25
REMARK                            x       y       z     vdW  Elec       q    Type
REMARK                         _______ _______ _______ _____ _____    ______ ____
ROOT
ATOM      1  O   UNL     1      33.705 -13.718 -24.717  0.00  0.00    -0.473 OA
ENDROOT
BRANCH   1   7
ATOM      2  C   UNL     1      32.876 -10.017 -23.161  0.00  0.00    -0.023 C 
ATOM      3  C   UNL     1      33.704 -10.090 -24.251  0.00  0.00    -0.001 C 
ATOM      4  C   UNL     1      32.309 -11.110 -22.563  0.00  0.00    -0.001 C 
ATOM      5  C   UNL     1      33.986 -11.348 -24.781  0.00  0.00    +0.037 C 
ATOM      6  C   UNL     1      32.591 -12.370 -23.092  0.00  0.00    +0.037 C 
ATOM      7  C   UNL     1      33.430 -12.489 -24.201  0.00  0.00    +0.139 C 
BRANCH   2   8
ATOM      8  C   UNL     1      32.565  -8.624 -22.576  0.00  0.00    +0.019 C 
ATOM      9  C   UNL     1      32.035  -8.662 -21.127  0.00  0.00    +0.004 C 
ATOM     10  C   UNL     1      33.921  -7.862 -22.504  0.00  0.00    +0.004 C 
BRANCH   8  11
ATOM     11  C   UNL     1      31.610  -7.773 -23.489  0.00  0.00    +0.004 C 
BRANCH  11  12
ATOM     12  C   UNL     1      31.907  -6.281 -23.855  0.00  0.00    +0.000 C 
ATOM     13  C   UNL     1      32.001  -5.349 -22.641  0.00  0.00    +0.000 C 
ATOM     14  C   UNL     1      33.187  -6.140 -24.701  0.00  0.00    +0.000 C 
ATOM     15  C   UNL     1      30.732  -5.786 -24.735  0.00  0.00    +0.000 C 
ENDBRANCH  11  12
ENDBRANCH   8  11
ENDBRANCH   2   8
ENDBRANCH   1   7
BRANCH   1  16
ATOM     16  C   UNL     1      33.150 -14.025 -25.995  0.00  0.00    +0.237 C 
BRANCH  16  17
ATOM     17  C   UNL     1      33.052 -15.531 -26.143  0.00  0.00    +0.189 C 
BRANCH  17  18
ATOM     18  O   UNL     1      34.336 -16.104 -25.926  0.00  0.00    -0.352 OA
BRANCH  18  19
ATOM     19  C   UNL     1      34.259 -17.256 -25.099  0.00  0.00    +0.120 C 
BRANCH  19  20
ATOM     20  C   UNL     1      34.929 -16.971 -23.769  0.00  0.00    -0.040 C 
BRANCH  20  21
ATOM     21  N   UNL     1      35.156 -18.250 -23.050  0.00  0.00    +0.392 N 
ATOM     22  C   UNL     1      34.737 -19.444 -23.920  0.00  0.00    -0.095 C 
ATOM     23  C   UNL     1      36.638 -18.418 -22.690  0.00  0.00    -0.095 C 
BRANCH  21  24
ATOM     24  C   UNL     1      34.340 -18.296 -21.751  0.00  0.00    -0.046 C 
BRANCH  24  25
ATOM     25  C   UNL     1      33.908 -16.940 -21.279  0.00  0.00    -0.043 C 
ATOM     26  C   UNL     1      34.865 -16.008 -20.893  0.00  0.00    -0.006 C 
ATOM     27  C   UNL     1      32.553 -16.627 -21.232  0.00  0.00    -0.006 C 
ATOM     28  C   UNL     1      34.463 -14.746 -20.454  0.00  0.00    -0.000 C 
ATOM     29  C   UNL     1      32.152 -15.365 -20.793  0.00  0.00    -0.000 C 
ATOM     30  C   UNL     1      33.106 -14.425 -20.404  0.00  0.00    -0.000 C 
ENDBRANCH  24  25
ENDBRANCH  21  24
ENDBRANCH  20  21
ENDBRANCH  19  20
ENDBRANCH  18  19
ENDBRANCH  17  18
ENDBRANCH  16  17
ENDBRANCH   1  16
TORSDOF 12
ENDMDL
