MODEL 1
REMARK VINA RESULT:      -8.6      0.000      0.000
REMARK  Name = 4369534
REMARK  6 active torsions:
REMARK  status: ('A' for Active; 'I' for Inactive)
REMARK    1  A    between atoms: N_1  and  C_26
REMARK    2  A    between atoms: C_2  and  C_10
REMARK    3  A    between atoms: C_3  and  C_16
REMARK    4  A    between atoms: C_8  and  C_23
REMARK    5  A    between atoms: C_23  and  O_24
REMARK    6  A    between atoms: C_26  and  C_30
REMARK                            x       y       z     vdW  Elec       q    Type
REMARK                         _______ _______ _______ _____ _____    ______ ____
ROOT
ATOM      1  N   UNL     1      33.875 -23.476 -16.431  0.00  0.00    -0.319 N 
ATOM      2  C   UNL     1      34.096 -23.409 -14.223  0.00  0.00    -0.005 A 
ATOM      3  C   UNL     1      34.787 -23.480 -15.411  0.00  0.00    +0.056 A 
ATOM      4  C   UNL     1      32.707 -23.360 -14.533  0.00  0.00    +0.013 A 
ATOM      5  C   UNL     1      32.597 -23.403 -15.925  0.00  0.00    +0.060 A 
ATOM      6  C   UNL     1      31.531 -23.283 -13.761  0.00  0.00    +0.001 C 
ATOM      7  C   UNL     1      31.363 -23.372 -16.585  0.00  0.00    +0.024 C 
ATOM      8  C   UNL     1      30.210 -23.295 -15.799  0.00  0.00    +0.077 C 
ATOM      9  C   UNL     1      30.291 -23.251 -14.408  0.00  0.00    +0.007 C 
ENDROOT
BRANCH   2  10
ATOM     10  C   UNL     1      34.697 -23.388 -12.830  0.00  0.00    +0.024 C 
ATOM     11  C   UNL     1      36.168 -22.935 -12.849  0.00  0.00    +0.004 C 
ATOM     12  C   UNL     1      34.549 -24.746 -12.121  0.00  0.00    +0.004 C 
ATOM     13  C   UNL     1      36.762 -22.908 -11.442  0.00  0.00    +0.000 C 
ATOM     14  C   UNL     1      35.149 -24.711 -10.717  0.00  0.00    +0.000 C 
ATOM     15  C   UNL     1      36.605 -24.252 -10.738  0.00  0.00    +0.000 C 
ENDBRANCH   2  10
BRANCH   3  16
ATOM     16  C   UNL     1      36.216 -23.551 -15.636  0.00  0.00    +0.015 C 
ATOM     17  C   UNL     1      36.930 -24.664 -15.201  0.00  0.00    +0.001 C 
ATOM     18  C   UNL     1      36.867 -22.505 -16.285  0.00  0.00    +0.001 C 
ATOM     19  C   UNL     1      38.307 -24.732 -15.417  0.00  0.00    +0.000 C 
ATOM     20  C   UNL     1      38.244 -22.574 -16.501  0.00  0.00    +0.000 C 
ATOM     21  C   UNL     1      38.963 -23.686 -16.066  0.00  0.00    +0.000 C 
ENDBRANCH   3  16
BRANCH   8  23
ATOM     22  O   UNL     1      28.152 -24.231 -16.581  0.00  0.00    -0.245 OA
ATOM     23  C   UNL     1      28.907 -23.263 -16.445  0.00  0.00    +0.338 C 
BRANCH  23  24
ATOM     24  O   UNL     1      28.582 -22.022 -16.899  0.00  0.00    -0.477 OA
ATOM     25  H   UNL     1      27.823 -21.585 -16.566  0.00  0.00    +0.295 HD
ENDBRANCH  23  24
ENDBRANCH   8  23
BRANCH   1  26
ATOM     26  C   UNL     1      34.197 -23.539 -17.843  0.00  0.00    +0.192 C 
BRANCH  26  30
ATOM     27  O   UNL     1      35.918 -19.884 -20.871  0.00  0.00    -0.350 OA
ATOM     28  O   UNL     1      32.336 -22.151 -18.325  0.00  0.00    -0.273 OA
ATOM     29  N   UNL     1      34.277 -21.741 -19.531  0.00  0.00    -0.273 N 
ATOM     30  C   UNL     1      33.512 -22.418 -18.584  0.00  0.00    +0.249 C 
ATOM     31  C   UNL     1      35.632 -22.111 -19.955  0.00  0.00    +0.126 C 
ATOM     32  C   UNL     1      33.691 -20.636 -20.291  0.00  0.00    +0.126 C 
ATOM     33  C   UNL     1      36.517 -20.874 -20.031  0.00  0.00    +0.164 C 
ATOM     34  C   UNL     1      34.656 -19.462 -20.349  0.00  0.00    +0.164 C 
ENDBRANCH  26  30
ENDBRANCH   1  26
TORSDOF 6
ENDMDL
MODEL 2
REMARK VINA RESULT:      -8.4      9.056     14.537
REMARK  Name = 4369534
REMARK  6 active torsions:
REMARK  status: ('A' for Active; 'I' for Inactive)
REMARK    1  A    between atoms: N_1  and  C_26
REMARK    2  A    between atoms: C_2  and  C_10
REMARK    3  A    between atoms: C_3  and  C_16
REMARK    4  A    between atoms: C_8  and  C_23
REMARK    5  A    between atoms: C_23  and  O_24
REMARK    6  A    between atoms: C_26  and  C_30
REMARK                            x       y       z     vdW  Elec       q    Type
REMARK                         _______ _______ _______ _____ _____    ______ ____
ROOT
ATOM      1  N   UNL     1      32.259 -12.502 -22.697  0.00  0.00    -0.319 N 
ATOM      2  C   UNL     1      32.865 -10.432 -23.223  0.00  0.00    -0.005 A 
ATOM      3  C   UNL     1      32.318 -11.216 -22.233  0.00  0.00    +0.056 A 
ATOM      4  C   UNL     1      33.150 -11.275 -24.334  0.00  0.00    +0.013 A 
ATOM      5  C   UNL     1      32.760 -12.568 -23.978  0.00  0.00    +0.060 A 
ATOM      6  C   UNL     1      33.703 -11.061 -25.612  0.00  0.00    +0.001 C 
ATOM      7  C   UNL     1      32.897 -13.662 -24.840  0.00  0.00    +0.024 C 
ATOM      8  C   UNL     1      33.449 -13.426 -26.102  0.00  0.00    +0.077 C 
ATOM      9  C   UNL     1      33.846 -12.146 -26.485  0.00  0.00    +0.007 C 
ENDROOT
BRANCH   2  10
ATOM     10  C   UNL     1      33.120  -8.938 -23.151  0.00  0.00    +0.024 C 
ATOM     11  C   UNL     1      31.926  -8.128 -23.685  0.00  0.00    +0.004 C 
ATOM     12  C   UNL     1      34.420  -8.543 -23.874  0.00  0.00    +0.004 C 
ATOM     13  C   UNL     1      32.188  -6.625 -23.599  0.00  0.00    +0.000 C 
ATOM     14  C   UNL     1      34.672  -7.039 -23.788  0.00  0.00    +0.000 C 
ATOM     15  C   UNL     1      33.482  -6.237 -24.308  0.00  0.00    +0.000 C 
ENDBRANCH   2  10
BRANCH   3  16
ATOM     16  C   UNL     1      31.860 -10.837 -20.913  0.00  0.00    +0.015 C 
ATOM     17  C   UNL     1      32.743 -10.234 -20.022  0.00  0.00    +0.001 C 
ATOM     18  C   UNL     1      30.539 -11.077 -20.542  0.00  0.00    +0.001 C 
ATOM     19  C   UNL     1      32.302  -9.869 -18.749  0.00  0.00    +0.000 C 
ATOM     20  C   UNL     1      30.099 -10.712 -19.270  0.00  0.00    +0.000 C 
ATOM     21  C   UNL     1      30.981 -10.109 -18.373  0.00  0.00    +0.000 C 
ENDBRANCH   3  16
BRANCH   8  23
ATOM     22  O   UNL     1      33.329 -15.714 -26.791  0.00  0.00    -0.245 OA
ATOM     23  C   UNL     1      33.608 -14.535 -27.031  0.00  0.00    +0.338 C 
BRANCH  23  24
ATOM     24  O   UNL     1      34.106 -14.139 -28.233  0.00  0.00    -0.477 OA
ATOM     25  H   UNL     1      34.074 -14.719 -28.968  0.00  0.00    +0.295 HD
ENDBRANCH  23  24
ENDBRANCH   8  23
BRANCH   1  26
ATOM     26  C   UNL     1      31.745 -13.638 -21.957  0.00  0.00    +0.192 C 
BRANCH  26  30
ATOM     27  O   UNL     1      35.342 -17.175 -22.169  0.00  0.00    -0.350 OA
ATOM     28  O   UNL     1      32.677 -13.762 -19.780  0.00  0.00    -0.273 OA
ATOM     29  N   UNL     1      33.773 -14.948 -21.448  0.00  0.00    -0.273 N 
ATOM     30  C   UNL     1      32.769 -14.115 -20.959  0.00  0.00    +0.249 C 
ATOM     31  C   UNL     1      33.988 -15.284 -22.860  0.00  0.00    +0.126 C 
ATOM     32  C   UNL     1      34.804 -15.461 -20.546  0.00  0.00    +0.126 C 
ATOM     33  C   UNL     1      34.257 -16.776 -23.012  0.00  0.00    +0.164 C 
ATOM     34  C   UNL     1      35.035 -16.944 -20.793  0.00  0.00    +0.164 C 
ENDBRANCH  26  30
ENDBRANCH   1  26
TORSDOF 6
ENDMDL
MODEL 3
REMARK VINA RESULT:      -8.4      9.552     13.809
REMARK  Name = 4369534
REMARK  6 active torsions:
REMARK  status: ('A' for Active; 'I' for Inactive)
REMARK    1  A    between atoms: N_1  and  C_26
REMARK    2  A    between atoms: C_2  and  C_10
REMARK    3  A    between atoms: C_3  and  C_16
REMARK    4  A    between atoms: C_8  and  C_23
REMARK    5  A    between atoms: C_23  and  O_24
REMARK    6  A    between atoms: C_26  and  C_30
REMARK                            x       y       z     vdW  Elec       q    Type
REMARK                         _______ _______ _______ _____ _____    ______ ____
ROOT
ATOM      1  N   UNL     1      32.489 -11.923 -23.269  0.00  0.00    -0.319 N 
ATOM      2  C   UNL     1      33.034 -13.991 -22.675  0.00  0.00    -0.005 A 
ATOM      3  C   UNL     1      32.928 -13.130 -23.743  0.00  0.00    +0.056 A 
ATOM      4  C   UNL     1      32.644 -13.281 -21.506  0.00  0.00    +0.013 A 
ATOM      5  C   UNL     1      32.307 -11.986 -21.906  0.00  0.00    +0.060 A 
ATOM      6  C   UNL     1      32.545 -13.616 -20.141  0.00  0.00    +0.001 C 
ATOM      7  C   UNL     1      31.873 -11.006 -21.005  0.00  0.00    +0.024 C 
ATOM      8  C   UNL     1      31.783 -11.361 -19.657  0.00  0.00    +0.077 C 
ATOM      9  C   UNL     1      32.113 -12.646 -19.229  0.00  0.00    +0.007 C 
ENDROOT
BRANCH   2  10
ATOM     10  C   UNL     1      33.485 -15.440 -22.728  0.00  0.00    +0.024 C 
ATOM     11  C   UNL     1      33.455 -16.099 -21.338  0.00  0.00    +0.004 C 
ATOM     12  C   UNL     1      34.873 -15.585 -23.376  0.00  0.00    +0.004 C 
ATOM     13  C   UNL     1      33.900 -17.559 -21.403  0.00  0.00    +0.000 C 
ATOM     14  C   UNL     1      35.313 -17.047 -23.433  0.00  0.00    +0.000 C 
ATOM     15  C   UNL     1      35.273 -17.701 -22.054  0.00  0.00    +0.000 C 
ENDBRANCH   2  10
BRANCH   3  16
ATOM     16  C   UNL     1      33.207 -13.368 -25.143  0.00  0.00    +0.015 C 
ATOM     17  C   UNL     1      33.972 -12.454 -25.862  0.00  0.00    +0.001 C 
ATOM     18  C   UNL     1      32.709 -14.511 -25.765  0.00  0.00    +0.001 C 
ATOM     19  C   UNL     1      34.240 -12.682 -27.212  0.00  0.00    +0.000 C 
ATOM     20  C   UNL     1      32.978 -14.739 -27.114  0.00  0.00    +0.000 C 
ATOM     21  C   UNL     1      33.743 -13.825 -27.837  0.00  0.00    +0.000 C 
ENDBRANCH   3  16
BRANCH   8  23
ATOM     22  O   UNL     1      31.200  -9.166 -18.907  0.00  0.00    -0.245 OA
ATOM     23  C   UNL     1      31.336 -10.373 -18.687  0.00  0.00    +0.338 C 
BRANCH  23  24
ATOM     24  O   UNL     1      31.067 -10.923 -17.472  0.00  0.00    -0.477 OA
ATOM     25  H   UNL     1      30.221 -11.287 -17.299  0.00  0.00    +0.295 HD
ENDBRANCH  23  24
ENDBRANCH   8  23
BRANCH   1  26
ATOM     26  C   UNL     1      32.246 -10.744 -24.077  0.00  0.00    +0.192 C 
BRANCH  26  30
ATOM     27  O   UNL     1      31.814  -5.724 -23.754  0.00  0.00    -0.350 OA
ATOM     28  O   UNL     1      34.427  -9.921 -23.640  0.00  0.00    -0.273 OA
ATOM     29  N   UNL     1      32.689  -8.389 -23.488  0.00  0.00    -0.273 N 
ATOM     30  C   UNL     1      33.225  -9.655 -23.714  0.00  0.00    +0.249 C 
ATOM     31  C   UNL     1      31.259  -8.065 -23.443  0.00  0.00    +0.126 C 
ATOM     32  C   UNL     1      33.568  -7.273 -23.137  0.00  0.00    +0.126 C 
ATOM     33  C   UNL     1      30.982  -6.788 -24.226  0.00  0.00    +0.164 C 
ATOM     34  C   UNL     1      33.197  -6.033 -23.936  0.00  0.00    +0.164 C 
ENDBRANCH  26  30
ENDBRANCH   1  26
TORSDOF 6
ENDMDL
MODEL 4
REMARK VINA RESULT:      -8.4      2.562      6.138
REMARK  Name = 4369534
REMARK  6 active torsions:
REMARK  status: ('A' for Active; 'I' for Inactive)
REMARK    1  A    between atoms: N_1  and  C_26
REMARK    2  A    between atoms: C_2  and  C_10
REMARK    3  A    between atoms: C_3  and  C_16
REMARK    4  A    between atoms: C_8  and  C_23
REMARK    5  A    between atoms: C_23  and  O_24
REMARK    6  A    between atoms: C_26  and  C_30
REMARK                            x       y       z     vdW  Elec       q    Type
REMARK                         _______ _______ _______ _____ _____    ______ ____
ROOT
ATOM      1  N   UNL     1      35.874 -22.752 -15.266  0.00  0.00    -0.319 N 
ATOM      2  C   UNL     1      33.810 -23.546 -15.068  0.00  0.00    -0.005 A 
ATOM      3  C   UNL     1      34.996 -23.344 -14.399  0.00  0.00    +0.056 A 
ATOM      4  C   UNL     1      33.975 -23.060 -16.396  0.00  0.00    +0.013 A 
ATOM      5  C   UNL     1      35.278 -22.567 -16.493  0.00  0.00    +0.060 A 
ATOM      6  C   UNL     1      33.137 -22.991 -17.527  0.00  0.00    +0.001 C 
ATOM      7  C   UNL     1      35.787 -22.007 -17.670  0.00  0.00    +0.024 C 
ATOM      8  C   UNL     1      34.938 -21.949 -18.779  0.00  0.00    +0.077 C 
ATOM      9  C   UNL     1      33.633 -22.433 -18.711  0.00  0.00    +0.007 C 
ENDROOT
BRANCH   2  10
ATOM     10  C   UNL     1      32.552 -24.176 -14.501  0.00  0.00    +0.024 C 
ATOM     11  C   UNL     1      31.667 -24.780 -15.605  0.00  0.00    +0.004 C 
ATOM     12  C   UNL     1      31.753 -23.183 -13.638  0.00  0.00    +0.004 C 
ATOM     13  C   UNL     1      30.407 -25.420 -15.023  0.00  0.00    +0.000 C 
ATOM     14  C   UNL     1      30.493 -23.829 -13.064  0.00  0.00    +0.000 C 
ATOM     15  C   UNL     1      29.622 -24.436 -14.160  0.00  0.00    +0.000 C 
ENDBRANCH   2  10
BRANCH   3  16
ATOM     16  C   UNL     1      35.340 -23.664 -13.030  0.00  0.00    +0.015 C 
ATOM     17  C   UNL     1      36.292 -22.901 -12.359  0.00  0.00    +0.001 C 
ATOM     18  C   UNL     1      34.719 -24.734 -12.391  0.00  0.00    +0.001 C 
ATOM     19  C   UNL     1      36.626 -23.210 -11.040  0.00  0.00    +0.000 C 
ATOM     20  C   UNL     1      35.052 -25.043 -11.072  0.00  0.00    +0.000 C 
ATOM     21  C   UNL     1      36.006 -24.281 -10.397  0.00  0.00    +0.000 C 
ENDBRANCH   3  16
BRANCH   8  23
ATOM     22  O   UNL     1      36.530 -21.606 -20.532  0.00  0.00    -0.245 OA
ATOM     23  C   UNL     1      35.428 -21.376 -20.023  0.00  0.00    +0.338 C 
BRANCH  23  24
ATOM     24  O   UNL     1      34.526 -20.535 -20.599  0.00  0.00    -0.477 OA
ATOM     25  H   UNL     1      33.665 -20.841 -20.804  0.00  0.00    +0.295 HD
ENDBRANCH  23  24
ENDBRANCH   8  23
BRANCH   1  26
ATOM     26  C   UNL     1      37.237 -22.373 -14.949  0.00  0.00    +0.192 C 
BRANCH  26  30
ATOM     27  O   UNL     1      39.970 -26.413 -13.647  0.00  0.00    -0.350 OA
ATOM     28  O   UNL     1      38.616 -22.865 -16.814  0.00  0.00    -0.273 OA
ATOM     29  N   UNL     1      38.594 -24.428 -15.098  0.00  0.00    -0.273 N 
ATOM     30  C   UNL     1      38.209 -23.238 -15.711  0.00  0.00    +0.249 C 
ATOM     31  C   UNL     1      38.036 -24.963 -13.851  0.00  0.00    +0.126 C 
ATOM     32  C   UNL     1      39.539 -25.324 -15.766  0.00  0.00    +0.126 C 
ATOM     33  C   UNL     1      39.153 -25.469 -12.948  0.00  0.00    +0.164 C 
ATOM     34  C   UNL     1      40.593 -25.810 -14.783  0.00  0.00    +0.164 C 
ENDBRANCH  26  30
ENDBRANCH   1  26
TORSDOF 6
ENDMDL
MODEL 5
REMARK VINA RESULT:      -8.3     14.569     18.285
REMARK  Name = 4369534
REMARK  6 active torsions:
REMARK  status: ('A' for Active; 'I' for Inactive)
REMARK    1  A    between atoms: N_1  and  C_26
REMARK    2  A    between atoms: C_2  and  C_10
REMARK    3  A    between atoms: C_3  and  C_16
REMARK    4  A    between atoms: C_8  and  C_23
REMARK    5  A    between atoms: C_23  and  O_24
REMARK    6  A    between atoms: C_26  and  C_30
REMARK                            x       y       z     vdW  Elec       q    Type
REMARK                         _______ _______ _______ _____ _____    ______ ____
ROOT
ATOM      1  N   UNL     1      32.539  -6.981 -24.389  0.00  0.00    -0.319 N 
ATOM      2  C   UNL     1      32.327  -8.013 -22.435  0.00  0.00    -0.005 A 
ATOM      3  C   UNL     1      32.804  -8.145 -23.719  0.00  0.00    +0.056 A 
ATOM      4  C   UNL     1      31.748  -6.718 -22.320  0.00  0.00    +0.013 A 
ATOM      5  C   UNL     1      31.894  -6.091 -23.559  0.00  0.00    +0.060 A 
ATOM      6  C   UNL     1      31.111  -6.017 -21.276  0.00  0.00    +0.001 C 
ATOM      7  C   UNL     1      31.434  -4.793 -23.808  0.00  0.00    +0.024 C 
ATOM      8  C   UNL     1      30.806  -4.117 -22.758  0.00  0.00    +0.077 C 
ATOM      9  C   UNL     1      30.646  -4.718 -21.510  0.00  0.00    +0.007 C 
ENDROOT
BRANCH   2  10
ATOM     10  C   UNL     1      32.400  -9.057 -21.336  0.00  0.00    +0.024 C 
ATOM     11  C   UNL     1      31.396 -10.200 -21.566  0.00  0.00    +0.004 C 
ATOM     12  C   UNL     1      32.214  -8.434 -19.941  0.00  0.00    +0.004 C 
ATOM     13  C   UNL     1      31.483 -11.250 -20.459  0.00  0.00    +0.000 C 
ATOM     14  C   UNL     1      32.298  -9.491 -18.841  0.00  0.00    +0.000 C 
ATOM     15  C   UNL     1      31.309 -10.628 -19.077  0.00  0.00    +0.000 C 
ENDBRANCH   2  10
BRANCH   3  16
ATOM     16  C   UNL     1      33.475  -9.269 -24.336  0.00  0.00    +0.015 C 
ATOM     17  C   UNL     1      34.827  -9.177 -24.654  0.00  0.00    +0.001 C 
ATOM     18  C   UNL     1      32.766 -10.436 -24.608  0.00  0.00    +0.001 C 
ATOM     19  C   UNL     1      35.476 -10.260 -25.249  0.00  0.00    +0.000 C 
ATOM     20  C   UNL     1      33.414 -11.519 -25.202  0.00  0.00    +0.000 C 
ATOM     21  C   UNL     1      34.768 -11.430 -25.523  0.00  0.00    +0.000 C 
ENDBRANCH   3  16
BRANCH   8  23
ATOM     22  O   UNL     1      29.915  -2.000 -22.089  0.00  0.00    -0.245 OA
ATOM     23  C   UNL     1      30.311  -2.766 -22.974  0.00  0.00    +0.338 C 
BRANCH  23  24
ATOM     24  O   UNL     1      30.329  -2.409 -24.287  0.00  0.00    -0.477 OA
ATOM     25  H   UNL     1      29.676  -1.827 -24.622  0.00  0.00    +0.295 HD
ENDBRANCH  23  24
ENDBRANCH   8  23
BRANCH   1  26
ATOM     26  C   UNL     1      32.882  -6.713 -25.772  0.00  0.00    +0.192 C 
BRANCH  26  30
ATOM     27  O   UNL     1      34.652  -3.499 -29.241  0.00  0.00    -0.350 OA
ATOM     28  O   UNL     1      35.045  -6.078 -25.039  0.00  0.00    -0.273 OA
ATOM     29  N   UNL     1      34.177  -4.910 -26.848  0.00  0.00    -0.273 N 
ATOM     30  C   UNL     1      34.134  -5.876 -25.845  0.00  0.00    +0.249 C 
ATOM     31  C   UNL     1      33.066  -4.556 -27.739  0.00  0.00    +0.126 C 
ATOM     32  C   UNL     1      35.358  -4.057 -26.993  0.00  0.00    +0.126 C 
ATOM     33  C   UNL     1      33.563  -4.424 -29.173  0.00  0.00    +0.164 C 
ATOM     34  C   UNL     1      35.758  -3.951 -28.457  0.00  0.00    +0.164 C 
ENDBRANCH  26  30
ENDBRANCH   1  26
TORSDOF 6
ENDMDL
MODEL 6
REMARK VINA RESULT:      -8.2     10.724     14.499
REMARK  Name = 4369534
REMARK  6 active torsions:
REMARK  status: ('A' for Active; 'I' for Inactive)
REMARK    1  A    between atoms: N_1  and  C_26
REMARK    2  A    between atoms: C_2  and  C_10
REMARK    3  A    between atoms: C_3  and  C_16
REMARK    4  A    between atoms: C_8  and  C_23
REMARK    5  A    between atoms: C_23  and  O_24
REMARK    6  A    between atoms: C_26  and  C_30
REMARK                            x       y       z     vdW  Elec       q    Type
REMARK                         _______ _______ _______ _____ _____    ______ ____
ROOT
ATOM      1  N   UNL     1      32.971 -11.015 -23.427  0.00  0.00    -0.319 N 
ATOM      2  C   UNL     1      33.699 -13.104 -23.240  0.00  0.00    -0.005 A 
ATOM      3  C   UNL     1      33.673 -12.002 -24.064  0.00  0.00    +0.056 A 
ATOM      4  C   UNL     1      32.984 -12.774 -22.054  0.00  0.00    +0.013 A 
ATOM      5  C   UNL     1      32.538 -11.458 -22.198  0.00  0.00    +0.060 A 
ATOM      6  C   UNL     1      32.673 -13.471 -20.870  0.00  0.00    +0.001 C 
ATOM      7  C   UNL     1      31.793 -10.802 -21.210  0.00  0.00    +0.024 C 
ATOM      8  C   UNL     1      31.497 -11.513 -20.044  0.00  0.00    +0.077 C 
ATOM      9  C   UNL     1      31.929 -12.827 -19.874  0.00  0.00    +0.007 C 
ENDROOT
BRANCH   2  10
ATOM     10  C   UNL     1      34.367 -14.434 -23.535  0.00  0.00    +0.024 C 
ATOM     11  C   UNL     1      33.561 -15.265 -24.550  0.00  0.00    +0.004 C 
ATOM     12  C   UNL     1      34.632 -15.240 -22.252  0.00  0.00    +0.004 C 
ATOM     13  C   UNL     1      34.246 -16.598 -24.848  0.00  0.00    +0.000 C 
ATOM     14  C   UNL     1      35.312 -16.573 -22.559  0.00  0.00    +0.000 C 
ATOM     15  C   UNL     1      34.517 -17.390 -23.573  0.00  0.00    +0.000 C 
ENDBRANCH   2  10
BRANCH   3  16
ATOM     16  C   UNL     1      34.252 -11.828 -25.379  0.00  0.00    +0.015 C 
ATOM     17  C   UNL     1      33.862 -12.663 -26.423  0.00  0.00    +0.001 C 
ATOM     18  C   UNL     1      35.197 -10.828 -25.594  0.00  0.00    +0.001 C 
ATOM     19  C   UNL     1      34.421 -12.497 -27.691  0.00  0.00    +0.000 C 
ATOM     20  C   UNL     1      35.756 -10.662 -26.861  0.00  0.00    +0.000 C 
ATOM     21  C   UNL     1      35.368 -11.496 -27.909  0.00  0.00    +0.000 C 
ENDBRANCH   3  16
BRANCH   8  23
ATOM     22  O   UNL     1      29.572 -10.438 -19.115  0.00  0.00    -0.245 OA
ATOM     23  C   UNL     1      30.723 -10.869 -18.993  0.00  0.00    +0.338 C 
BRANCH  23  24
ATOM     24  O   UNL     1      31.408 -10.787 -17.820  0.00  0.00    -0.477 OA
ATOM     25  H   UNL     1      31.362 -10.005 -17.306  0.00  0.00    +0.295 HD
ENDBRANCH  23  24
ENDBRANCH   8  23
BRANCH   1  26
ATOM     26  C   UNL     1      32.713  -9.692 -23.960  0.00  0.00    +0.192 C 
BRANCH  26  30
ATOM     27  O   UNL     1      30.729  -5.337 -22.352  0.00  0.00    -0.350 OA
ATOM     28  O   UNL     1      34.376  -8.666 -22.616  0.00  0.00    -0.273 OA
ATOM     29  N   UNL     1      32.275  -7.679 -22.602  0.00  0.00    -0.273 N 
ATOM     30  C   UNL     1      33.203  -8.639 -22.998  0.00  0.00    +0.249 C 
ATOM     31  C   UNL     1      30.845  -7.689 -22.934  0.00  0.00    +0.126 C 
ATOM     32  C   UNL     1      32.668  -6.618 -21.674  0.00  0.00    +0.126 C 
ATOM     33  C   UNL     1      30.393  -6.297 -23.357  0.00  0.00    +0.164 C 
ATOM     34  C   UNL     1      32.143  -5.273 -22.154  0.00  0.00    +0.164 C 
ENDBRANCH  26  30
ENDBRANCH   1  26
TORSDOF 6
ENDMDL
MODEL 7
REMARK VINA RESULT:      -7.4      2.642      7.183
REMARK  Name = 4369534
REMARK  6 active torsions:
REMARK  status: ('A' for Active; 'I' for Inactive)
REMARK    1  A    between atoms: N_1  and  C_26
REMARK    2  A    between atoms: C_2  and  C_10
REMARK    3  A    between atoms: C_3  and  C_16
REMARK    4  A    between atoms: C_8  and  C_23
REMARK    5  A    between atoms: C_23  and  O_24
REMARK    6  A    between atoms: C_26  and  C_30
REMARK                            x       y       z     vdW  Elec       q    Type
REMARK                         _______ _______ _______ _____ _____    ______ ____
ROOT
ATOM      1  N   UNL     1      33.891 -22.914 -15.835  0.00  0.00    -0.319 N 
ATOM      2  C   UNL     1      31.934 -22.950 -16.884  0.00  0.00    -0.005 A 
ATOM      3  C   UNL     1      32.561 -23.200 -15.684  0.00  0.00    +0.056 A 
ATOM      4  C   UNL     1      32.923 -22.493 -17.801  0.00  0.00    +0.013 A 
ATOM      5  C   UNL     1      34.141 -22.480 -17.117  0.00  0.00    +0.060 A 
ATOM      6  C   UNL     1      32.897 -22.089 -19.150  0.00  0.00    +0.001 C 
ATOM      7  C   UNL     1      35.340 -22.080 -17.720  0.00  0.00    +0.024 C 
ATOM      8  C   UNL     1      35.290 -21.683 -19.058  0.00  0.00    +0.077 C 
ATOM      9  C   UNL     1      34.089 -21.686 -19.765  0.00  0.00    +0.007 C 
ENDROOT
BRANCH   2  10
ATOM     10  C   UNL     1      30.457 -23.127 -17.183  0.00  0.00    +0.024 C 
ATOM     11  C   UNL     1      29.611 -21.994 -16.576  0.00  0.00    +0.004 C 
ATOM     12  C   UNL     1      29.942 -24.503 -16.727  0.00  0.00    +0.004 C 
ATOM     13  C   UNL     1      28.127 -22.177 -16.891  0.00  0.00    +0.000 C 
ATOM     14  C   UNL     1      28.457 -24.676 -17.040  0.00  0.00    +0.000 C 
ATOM     15  C   UNL     1      27.621 -23.546 -16.446  0.00  0.00    +0.000 C 
ENDBRANCH   2  10
BRANCH   3  16
ATOM     16  C   UNL     1      31.998 -23.680 -14.440  0.00  0.00    +0.015 C 
ATOM     17  C   UNL     1      32.014 -25.042 -14.153  0.00  0.00    +0.001 C 
ATOM     18  C   UNL     1      31.444 -22.778 -13.536  0.00  0.00    +0.001 C 
ATOM     19  C   UNL     1      31.471 -25.506 -12.955  0.00  0.00    +0.000 C 
ATOM     20  C   UNL     1      30.901 -23.241 -12.338  0.00  0.00    +0.000 C 
ATOM     21  C   UNL     1      30.914 -24.604 -12.047  0.00  0.00    +0.000 C 
ENDBRANCH   3  16
BRANCH   8  23
ATOM     22  O   UNL     1      37.378 -22.019 -20.176  0.00  0.00    -0.245 OA
ATOM     23  C   UNL     1      36.514 -21.262 -19.724  0.00  0.00    +0.338 C 
BRANCH  23  24
ATOM     24  O   UNL     1      36.620 -19.908 -19.808  0.00  0.00    -0.477 OA
ATOM     25  H   UNL     1      35.982 -19.361 -19.394  0.00  0.00    +0.295 HD
ENDBRANCH  23  24
ENDBRANCH   8  23
BRANCH   1  26
ATOM     26  C   UNL     1      34.899 -23.045 -14.801  0.00  0.00    +0.192 C 
BRANCH  26  30
ATOM     27  O   UNL     1      38.227 -25.412 -11.834  0.00  0.00    -0.350 OA
ATOM     28  O   UNL     1      35.430 -25.078 -15.898  0.00  0.00    -0.273 OA
ATOM     29  N   UNL     1      36.231 -24.826 -13.734  0.00  0.00    -0.273 N 
ATOM     30  C   UNL     1      35.539 -24.408 -14.868  0.00  0.00    +0.249 C 
ATOM     31  C   UNL     1      36.273 -24.114 -12.451  0.00  0.00    +0.126 C 
ATOM     32  C   UNL     1      36.887 -26.134 -13.716  0.00  0.00    +0.126 C 
ATOM     33  C   UNL     1      37.697 -24.085 -11.911  0.00  0.00    +0.164 C 
ATOM     34  C   UNL     1      38.284 -26.018 -13.126  0.00  0.00    +0.164 C 
ENDBRANCH  26  30
ENDBRANCH   1  26
TORSDOF 6
ENDMDL
MODEL 8
REMARK VINA RESULT:      -7.4     10.147     14.511
REMARK  Name = 4369534
REMARK  6 active torsions:
REMARK  status: ('A' for Active; 'I' for Inactive)
REMARK    1  A    between atoms: N_1  and  C_26
REMARK    2  A    between atoms: C_2  and  C_10
REMARK    3  A    between atoms: C_3  and  C_16
REMARK    4  A    between atoms: C_8  and  C_23
REMARK    5  A    between atoms: C_23  and  O_24
REMARK    6  A    between atoms: C_26  and  C_30
REMARK                            x       y       z     vdW  Elec       q    Type
REMARK                         _______ _______ _______ _____ _____    ______ ____
ROOT
ATOM      1  N   UNL     1      32.657 -11.026 -23.500  0.00  0.00    -0.319 N 
ATOM      2  C   UNL     1      32.715 -13.018 -22.522  0.00  0.00    -0.005 A 
ATOM      3  C   UNL     1      32.859 -12.361 -23.723  0.00  0.00    +0.056 A 
ATOM      4  C   UNL     1      32.413 -12.043 -21.530  0.00  0.00    +0.013 A 
ATOM      5  C   UNL     1      32.383 -10.802 -22.170  0.00  0.00    +0.060 A 
ATOM      6  C   UNL     1      32.161 -12.098 -20.144  0.00  0.00    +0.001 C 
ATOM      7  C   UNL     1      32.113  -9.608 -21.490  0.00  0.00    +0.024 C 
ATOM      8  C   UNL     1      31.867  -9.687 -20.117  0.00  0.00    +0.077 C 
ATOM      9  C   UNL     1      31.890 -10.913 -19.452  0.00  0.00    +0.007 C 
ENDROOT
BRANCH   2  10
ATOM     10  C   UNL     1      32.850 -14.511 -22.291  0.00  0.00    +0.024 C 
ATOM     11  C   UNL     1      32.257 -14.936 -20.936  0.00  0.00    +0.004 C 
ATOM     12  C   UNL     1      34.309 -14.981 -22.424  0.00  0.00    +0.004 C 
ATOM     13  C   UNL     1      32.390 -16.442 -20.716  0.00  0.00    +0.000 C 
ATOM     14  C   UNL     1      34.434 -16.488 -22.199  0.00  0.00    +0.000 C 
ATOM     15  C   UNL     1      33.836 -16.907 -20.859  0.00  0.00    +0.000 C 
ENDBRANCH   2  10
BRANCH   3  16
ATOM     16  C   UNL     1      33.167 -12.900 -25.031  0.00  0.00    +0.015 C 
ATOM     17  C   UNL     1      32.753 -14.187 -25.363  0.00  0.00    +0.001 C 
ATOM     18  C   UNL     1      33.874 -12.130 -25.950  0.00  0.00    +0.001 C 
ATOM     19  C   UNL     1      33.050 -14.708 -26.622  0.00  0.00    +0.000 C 
ATOM     20  C   UNL     1      34.171 -12.650 -27.209  0.00  0.00    +0.000 C 
ATOM     21  C   UNL     1      33.759 -13.940 -27.545  0.00  0.00    +0.000 C 
ENDBRANCH   3  16
BRANCH   8  23
ATOM     22  O   UNL     1      31.167  -8.426 -18.209  0.00  0.00    -0.245 OA
ATOM     23  C   UNL     1      31.580  -8.471 -19.372  0.00  0.00    +0.338 C 
BRANCH  23  24
ATOM     24  O   UNL     1      31.821  -7.347 -20.099  0.00  0.00    -0.477 OA
ATOM     25  H   UNL     1      32.165  -6.583 -19.681  0.00  0.00    +0.295 HD
ENDBRANCH  23  24
ENDBRANCH   8  23
BRANCH   1  26
ATOM     26  C   UNL     1      32.721  -9.988 -24.511  0.00  0.00    +0.192 C 
BRANCH  26  30
ATOM     27  O   UNL     1      31.046  -5.239 -24.150  0.00  0.00    -0.350 OA
ATOM     28  O   UNL     1      34.519  -8.721 -23.626  0.00  0.00    -0.273 OA
ATOM     29  N   UNL     1      32.468  -7.644 -23.784  0.00  0.00    -0.273 N 
ATOM     30  C   UNL     1      33.324  -8.733 -23.932  0.00  0.00    +0.249 C 
ATOM     31  C   UNL     1      31.019  -7.661 -24.017  0.00  0.00    +0.126 C 
ATOM     32  C   UNL     1      32.973  -6.385 -23.235  0.00  0.00    +0.126 C 
ATOM     33  C   UNL     1      30.597  -6.428 -24.806  0.00  0.00    +0.164 C 
ATOM     34  C   UNL     1      32.472  -5.209 -24.060  0.00  0.00    +0.164 C 
ENDBRANCH  26  30
ENDBRANCH   1  26
TORSDOF 6
ENDMDL
MODEL 9
REMARK VINA RESULT:      -7.4      8.457     13.965
REMARK  Name = 4369534
REMARK  6 active torsions:
REMARK  status: ('A' for Active; 'I' for Inactive)
REMARK    1  A    between atoms: N_1  and  C_26
REMARK    2  A    between atoms: C_2  and  C_10
REMARK    3  A    between atoms: C_3  and  C_16
REMARK    4  A    between atoms: C_8  and  C_23
REMARK    5  A    between atoms: C_23  and  O_24
REMARK    6  A    between atoms: C_26  and  C_30
REMARK                            x       y       z     vdW  Elec       q    Type
REMARK                         _______ _______ _______ _____ _____    ______ ____
ROOT
ATOM      1  N   UNL     1      32.698 -12.934 -22.220  0.00  0.00    -0.319 N 
ATOM      2  C   UNL     1      32.608 -11.076 -23.432  0.00  0.00    -0.005 A 
ATOM      3  C   UNL     1      32.484 -11.583 -22.159  0.00  0.00    +0.056 A 
ATOM      4  C   UNL     1      32.907 -12.161 -24.303  0.00  0.00    +0.013 A 
ATOM      5  C   UNL     1      32.958 -13.315 -23.517  0.00  0.00    +0.060 A 
ATOM      6  C   UNL     1      33.140 -12.272 -25.688  0.00  0.00    +0.001 C 
ATOM      7  C   UNL     1      33.232 -14.580 -24.051  0.00  0.00    +0.024 C 
ATOM      8  C   UNL     1      33.460 -14.666 -25.427  0.00  0.00    +0.077 C 
ATOM      9  C   UNL     1      33.416 -13.531 -26.235  0.00  0.00    +0.007 C 
ENDROOT
BRANCH   2  10
ATOM     10  C   UNL     1      32.452  -9.623 -23.842  0.00  0.00    +0.024 C 
ATOM     11  C   UNL     1      33.696  -8.792 -23.484  0.00  0.00    +0.004 C 
ATOM     12  C   UNL     1      31.180  -8.993 -23.248  0.00  0.00    +0.004 C 
ATOM     13  C   UNL     1      33.534  -7.333 -23.909  0.00  0.00    +0.000 C 
ATOM     14  C   UNL     1      31.028  -7.534 -23.673  0.00  0.00    +0.000 C 
ATOM     15  C   UNL     1      32.267  -6.714 -23.326  0.00  0.00    +0.000 C 
ENDBRANCH   2  10
BRANCH   3  16
ATOM     16  C   UNL     1      32.186 -10.892 -20.923  0.00  0.00    +0.015 C 
ATOM     17  C   UNL     1      31.552 -11.570 -19.886  0.00  0.00    +0.001 C 
ATOM     18  C   UNL     1      32.536  -9.552 -20.776  0.00  0.00    +0.001 C 
ATOM     19  C   UNL     1      31.263 -10.904 -18.694  0.00  0.00    +0.000 C 
ATOM     20  C   UNL     1      32.248  -8.886 -19.585  0.00  0.00    +0.000 C 
ATOM     21  C   UNL     1      31.611  -9.562 -18.545  0.00  0.00    +0.000 C 
ENDBRANCH   3  16
BRANCH   8  23
ATOM     22  O   UNL     1      34.827 -16.558 -25.954  0.00  0.00    -0.245 OA
ATOM     23  C   UNL     1      33.747 -15.962 -26.023  0.00  0.00    +0.338 C 
BRANCH  23  24
ATOM     24  O   UNL     1      32.676 -16.478 -26.685  0.00  0.00    -0.477 OA
ATOM     25  H   UNL     1      31.908 -16.729 -26.210  0.00  0.00    +0.295 HD
ENDBRANCH  23  24
ENDBRANCH   8  23
BRANCH   1  26
ATOM     26  C   UNL     1      32.658 -13.841 -21.090  0.00  0.00    +0.192 C 
BRANCH  26  30
ATOM     27  O   UNL     1      33.690 -18.783 -21.073  0.00  0.00    -0.350 OA
ATOM     28  O   UNL     1      34.986 -14.026 -20.686  0.00  0.00    -0.273 OA
ATOM     29  N   UNL     1      33.876 -15.978 -21.273  0.00  0.00    -0.273 N 
ATOM     30  C   UNL     1      33.948 -14.615 -20.998  0.00  0.00    +0.249 C 
ATOM     31  C   UNL     1      32.690 -16.686 -21.769  0.00  0.00    +0.126 C 
ATOM     32  C   UNL     1      35.081 -16.806 -21.201  0.00  0.00    +0.126 C 
ATOM     33  C   UNL     1      32.500 -17.993 -21.011  0.00  0.00    +0.164 C 
ATOM     34  C   UNL     1      34.790 -18.103 -20.463  0.00  0.00    +0.164 C 
ENDBRANCH  26  30
ENDBRANCH   1  26
TORSDOF 6
ENDMDL
