MODEL 1
REMARK VINA RESULT:      -8.6      0.000      0.000
REMARK  Name = 10397869
REMARK  3 active torsions:
REMARK  status: ('A' for Active; 'I' for Inactive)
REMARK    1  A    between atoms: N_1  and  C_4
REMARK    2  A    between atoms: N_1  and  C_12
REMARK    3  A    between atoms: C_12  and  C_13
REMARK                            x       y       z     vdW  Elec       q    Type
REMARK                         _______ _______ _______ _____ _____    ______ ____
ROOT
ATOM      1  N   UNL     1      35.361 -18.271 -22.276  0.00  0.00    -0.327 N 
ATOM      2  H   UNL     1      35.061 -18.790 -23.057  0.00  0.00    +0.147 HD
ENDROOT
BRANCH   1   4
ATOM      3  N   UNL     1      34.655 -14.796 -23.340  0.00  0.00    -0.228 NA
ATOM      4  C   UNL     1      35.031 -16.924 -22.220  0.00  0.00    +0.077 C 
ATOM      5  C   UNL     1      34.972 -16.110 -23.353  0.00  0.00    +0.139 C 
ATOM      6  C   UNL     1      34.736 -16.314 -20.996  0.00  0.00    +0.019 C 
ATOM      7  C   UNL     1      34.407 -14.964 -20.942  0.00  0.00    +0.022 C 
ATOM      8  C   UNL     1      34.379 -14.256 -22.132  0.00  0.00    +0.100 C 
ATOM      9  N   UNL     1      35.266 -16.704 -24.606  0.00  0.00    -0.342 N 
ATOM     10  H   UNL     1      35.235 -16.162 -25.427  0.00  0.00    +0.144 HD
ATOM     11  H   UNL     1      35.502 -17.659 -24.655  0.00  0.00    +0.144 HD
ENDBRANCH   1   4
BRANCH   1  12
ATOM     12  C   UNL     1      36.117 -18.954 -21.256  0.00  0.00    +0.114 C 
BRANCH  12  13
ATOM     13  C   UNL     1      35.312 -19.996 -20.557  0.00  0.00    -0.003 C 
ATOM     14  C   UNL     1      35.951 -20.996 -19.823  0.00  0.00    -0.003 C 
ATOM     15  C   UNL     1      33.919 -19.972 -20.636  0.00  0.00    -0.003 C 
ATOM     16  C   UNL     1      35.199 -21.971 -19.169  0.00  0.00    -0.000 C 
ATOM     17  C   UNL     1      33.166 -20.947 -19.982  0.00  0.00    -0.000 C 
ATOM     18  C   UNL     1      33.806 -21.947 -19.248  0.00  0.00    -0.000 C 
ENDBRANCH  12  13
ENDBRANCH   1  12
TORSDOF 3
ENDMDL
MODEL 2
REMARK VINA RESULT:      -8.5      1.195      2.067
REMARK  Name = 10397869
REMARK  3 active torsions:
REMARK  status: ('A' for Active; 'I' for Inactive)
REMARK    1  A    between atoms: N_1  and  C_4
REMARK    2  A    between atoms: N_1  and  C_12
REMARK    3  A    between atoms: C_12  and  C_13
REMARK                            x       y       z     vdW  Elec       q    Type
REMARK                         _______ _______ _______ _____ _____    ______ ____
ROOT
ATOM      1  N   UNL     1      35.387 -17.376 -21.720  0.00  0.00    -0.327 N 
ATOM      2  H   UNL     1      35.314 -16.841 -20.897  0.00  0.00    +0.147 HD
ENDROOT
BRANCH   1   4
ATOM      3  N   UNL     1      33.905 -14.970 -24.112  0.00  0.00    -0.228 NA
ATOM      4  C   UNL     1      34.897 -16.833 -22.899  0.00  0.00    +0.077 C 
ATOM      5  C   UNL     1      34.391 -15.534 -22.984  0.00  0.00    +0.139 C 
ATOM      6  C   UNL     1      34.891 -17.585 -24.080  0.00  0.00    +0.019 C 
ATOM      7  C   UNL     1      34.398 -17.039 -25.260  0.00  0.00    +0.022 C 
ATOM      8  C   UNL     1      33.921 -15.738 -25.224  0.00  0.00    +0.100 C 
ATOM      9  N   UNL     1      34.386 -14.752 -21.802  0.00  0.00    -0.342 N 
ATOM     10  H   UNL     1      34.038 -13.832 -21.821  0.00  0.00    +0.144 HD
ATOM     11  H   UNL     1      34.732 -15.129 -20.960  0.00  0.00    +0.144 HD
ENDBRANCH   1   4
BRANCH   1  12
ATOM     12  C   UNL     1      35.998 -18.678 -21.631  0.00  0.00    +0.114 C 
BRANCH  12  13
ATOM     13  C   UNL     1      35.148 -19.653 -20.888  0.00  0.00    -0.003 C 
ATOM     14  C   UNL     1      35.743 -20.667 -20.137  0.00  0.00    -0.003 C 
ATOM     15  C   UNL     1      33.758 -19.552 -20.945  0.00  0.00    -0.003 C 
ATOM     16  C   UNL     1      34.949 -21.579 -19.442  0.00  0.00    -0.000 C 
ATOM     17  C   UNL     1      32.963 -20.464 -20.251  0.00  0.00    -0.000 C 
ATOM     18  C   UNL     1      33.558 -21.477 -19.499  0.00  0.00    -0.000 C 
ENDBRANCH  12  13
ENDBRANCH   1  12
TORSDOF 3
ENDMDL
MODEL 3
REMARK VINA RESULT:      -8.2      4.685      7.859
REMARK  Name = 10397869
REMARK  3 active torsions:
REMARK  status: ('A' for Active; 'I' for Inactive)
REMARK    1  A    between atoms: N_1  and  C_4
REMARK    2  A    between atoms: N_1  and  C_12
REMARK    3  A    between atoms: C_12  and  C_13
REMARK                            x       y       z     vdW  Elec       q    Type
REMARK                         _______ _______ _______ _____ _____    ______ ____
ROOT
ATOM      1  N   UNL     1      32.539 -22.747 -18.038  0.00  0.00    -0.327 N 
ATOM      2  H   UNL     1      31.765 -22.543 -18.611  0.00  0.00    +0.147 HD
ENDROOT
BRANCH   1   4
ATOM      3  N   UNL     1      30.764 -23.258 -14.828  0.00  0.00    -0.228 NA
ATOM      4  C   UNL     1      32.305 -23.032 -16.700  0.00  0.00    +0.077 C 
ATOM      5  C   UNL     1      31.032 -22.988 -16.125  0.00  0.00    +0.139 C 
ATOM      6  C   UNL     1      33.361 -23.384 -15.852  0.00  0.00    +0.019 C 
ATOM      7  C   UNL     1      33.124 -23.669 -14.512  0.00  0.00    +0.022 C 
ATOM      8  C   UNL     1      31.819 -23.593 -14.053  0.00  0.00    +0.100 C 
ATOM      9  N   UNL     1      29.945 -22.634 -16.963  0.00  0.00    -0.342 N 
ATOM     10  H   UNL     1      29.033 -22.591 -16.595  0.00  0.00    +0.144 HD
ATOM     11  H   UNL     1      30.102 -22.430 -17.914  0.00  0.00    +0.144 HD
ENDBRANCH   1   4
BRANCH   1  12
ATOM     12  C   UNL     1      33.850 -22.733 -18.636  0.00  0.00    +0.114 C 
BRANCH  12  13
ATOM     13  C   UNL     1      34.060 -21.543 -19.511  0.00  0.00    -0.003 C 
ATOM     14  C   UNL     1      35.353 -21.163 -19.874  0.00  0.00    -0.003 C 
ATOM     15  C   UNL     1      32.964 -20.809 -19.967  0.00  0.00    -0.003 C 
ATOM     16  C   UNL     1      35.549 -20.052 -20.692  0.00  0.00    -0.000 C 
ATOM     17  C   UNL     1      33.161 -19.697 -20.784  0.00  0.00    -0.000 C 
ATOM     18  C   UNL     1      34.453 -19.318 -21.147  0.00  0.00    -0.000 C 
ENDBRANCH  12  13
ENDBRANCH   1  12
TORSDOF 3
ENDMDL
MODEL 4
REMARK VINA RESULT:      -8.1      1.702      2.748
REMARK  Name = 10397869
REMARK  3 active torsions:
REMARK  status: ('A' for Active; 'I' for Inactive)
REMARK    1  A    between atoms: N_1  and  C_4
REMARK    2  A    between atoms: N_1  and  C_12
REMARK    3  A    between atoms: C_12  and  C_13
REMARK                            x       y       z     vdW  Elec       q    Type
REMARK                         _______ _______ _______ _____ _____    ______ ____
ROOT
ATOM      1  N   UNL     1      35.337 -16.689 -23.020  0.00  0.00    -0.327 N 
ATOM      2  H   UNL     1      36.169 -17.119 -23.322  0.00  0.00    +0.147 HD
ENDROOT
BRANCH   1   4
ATOM      3  N   UNL     1      33.477 -15.950 -26.135  0.00  0.00    -0.228 NA
ATOM      4  C   UNL     1      34.570 -16.016 -23.961  0.00  0.00    +0.077 C 
ATOM      5  C   UNL     1      34.220 -16.573 -25.193  0.00  0.00    +0.139 C 
ATOM      6  C   UNL     1      34.106 -14.721 -23.706  0.00  0.00    +0.019 C 
ATOM      7  C   UNL     1      33.339 -14.048 -24.651  0.00  0.00    +0.022 C 
ATOM      8  C   UNL     1      33.054 -14.701 -25.839  0.00  0.00    +0.100 C 
ATOM      9  N   UNL     1      34.678 -17.884 -25.476  0.00  0.00    -0.342 N 
ATOM     10  H   UNL     1      34.452 -18.310 -26.334  0.00  0.00    +0.144 HD
ATOM     11  H   UNL     1      35.222 -18.369 -24.815  0.00  0.00    +0.144 HD
ENDBRANCH   1   4
BRANCH   1  12
ATOM     12  C   UNL     1      34.984 -16.795 -21.627  0.00  0.00    +0.114 C 
BRANCH  12  13
ATOM     13  C   UNL     1      34.986 -18.208 -21.148  0.00  0.00    -0.003 C 
ATOM     14  C   UNL     1      33.780 -18.886 -20.970  0.00  0.00    -0.003 C 
ATOM     15  C   UNL     1      36.195 -18.851 -20.877  0.00  0.00    -0.003 C 
ATOM     16  C   UNL     1      33.782 -20.207 -20.523  0.00  0.00    -0.000 C 
ATOM     17  C   UNL     1      36.197 -20.171 -20.428  0.00  0.00    -0.000 C 
ATOM     18  C   UNL     1      34.991 -20.850 -20.252  0.00  0.00    -0.000 C 
ENDBRANCH  12  13
ENDBRANCH   1  12
TORSDOF 3
ENDMDL
MODEL 5
REMARK VINA RESULT:      -8.0      1.777      5.959
REMARK  Name = 10397869
REMARK  3 active torsions:
REMARK  status: ('A' for Active; 'I' for Inactive)
REMARK    1  A    between atoms: N_1  and  C_4
REMARK    2  A    between atoms: N_1  and  C_12
REMARK    3  A    between atoms: C_12  and  C_13
REMARK                            x       y       z     vdW  Elec       q    Type
REMARK                         _______ _______ _______ _____ _____    ______ ____
ROOT
ATOM      1  N   UNL     1      34.836 -19.272 -21.484  0.00  0.00    -0.327 N 
ATOM      2  H   UNL     1      34.261 -19.291 -22.283  0.00  0.00    +0.147 HD
ENDROOT
BRANCH   1   4
ATOM      3  N   UNL     1      33.234 -21.726 -19.220  0.00  0.00    -0.228 NA
ATOM      4  C   UNL     1      34.678 -20.279 -20.541  0.00  0.00    +0.077 C 
ATOM      5  C   UNL     1      33.428 -20.749 -20.134  0.00  0.00    +0.139 C 
ATOM      6  C   UNL     1      35.795 -20.878 -19.948  0.00  0.00    +0.019 C 
ATOM      7  C   UNL     1      35.635 -21.886 -19.003  0.00  0.00    +0.022 C 
ATOM      8  C   UNL     1      34.345 -22.271 -18.677  0.00  0.00    +0.100 C 
ATOM      9  N   UNL     1      32.281 -20.158 -20.720  0.00  0.00    -0.342 N 
ATOM     10  H   UNL     1      31.382 -20.462 -20.459  0.00  0.00    +0.144 HD
ATOM     11  H   UNL     1      32.382 -19.443 -21.390  0.00  0.00    +0.144 HD
ENDBRANCH   1   4
BRANCH   1  12
ATOM     12  C   UNL     1      35.791 -18.200 -21.360  0.00  0.00    +0.114 C 
BRANCH  12  13
ATOM     13  C   UNL     1      35.203 -16.874 -21.705  0.00  0.00    -0.003 C 
ATOM     14  C   UNL     1      34.717 -16.043 -20.695  0.00  0.00    -0.003 C 
ATOM     15  C   UNL     1      35.137 -16.464 -23.037  0.00  0.00    -0.003 C 
ATOM     16  C   UNL     1      34.167 -14.803 -21.016  0.00  0.00    -0.000 C 
ATOM     17  C   UNL     1      34.587 -15.225 -23.359  0.00  0.00    -0.000 C 
ATOM     18  C   UNL     1      34.101 -14.393 -22.349  0.00  0.00    -0.000 C 
ENDBRANCH  12  13
ENDBRANCH   1  12
TORSDOF 3
ENDMDL
MODEL 6
REMARK VINA RESULT:      -7.9      1.705      2.619
REMARK  Name = 10397869
REMARK  3 active torsions:
REMARK  status: ('A' for Active; 'I' for Inactive)
REMARK    1  A    between atoms: N_1  and  C_4
REMARK    2  A    between atoms: N_1  and  C_12
REMARK    3  A    between atoms: C_12  and  C_13
REMARK                            x       y       z     vdW  Elec       q    Type
REMARK                         _______ _______ _______ _____ _____    ______ ____
ROOT
ATOM      1  N   UNL     1      34.690 -16.730 -21.345  0.00  0.00    -0.327 N 
ATOM      2  H   UNL     1      34.831 -16.579 -20.382  0.00  0.00    +0.147 HD
ENDROOT
BRANCH   1   4
ATOM      3  N   UNL     1      32.386 -13.962 -22.206  0.00  0.00    -0.228 NA
ATOM      4  C   UNL     1      34.040 -15.744 -22.073  0.00  0.00    +0.077 C 
ATOM      5  C   UNL     1      33.042 -14.931 -21.530  0.00  0.00    +0.139 C 
ATOM      6  C   UNL     1      34.368 -15.518 -23.415  0.00  0.00    +0.019 C 
ATOM      7  C   UNL     1      33.714 -14.530 -24.143  0.00  0.00    +0.022 C 
ATOM      8  C   UNL     1      32.740 -13.785 -23.498  0.00  0.00    +0.100 C 
ATOM      9  N   UNL     1      32.692 -15.140 -20.172  0.00  0.00    -0.342 N 
ATOM     10  H   UNL     1      31.993 -14.588 -19.753  0.00  0.00    +0.144 HD
ATOM     11  H   UNL     1      33.148 -15.838 -19.647  0.00  0.00    +0.144 HD
ENDBRANCH   1   4
BRANCH   1  12
ATOM     12  C   UNL     1      35.173 -17.962 -21.916  0.00  0.00    +0.114 C 
BRANCH  12  13
ATOM     13  C   UNL     1      34.752 -19.155 -21.126  0.00  0.00    -0.003 C 
ATOM     14  C   UNL     1      33.398 -19.392 -20.887  0.00  0.00    -0.003 C 
ATOM     15  C   UNL     1      35.713 -20.035 -20.626  0.00  0.00    -0.003 C 
ATOM     16  C   UNL     1      33.005 -20.507 -20.149  0.00  0.00    -0.000 C 
ATOM     17  C   UNL     1      35.320 -21.150 -19.888  0.00  0.00    -0.000 C 
ATOM     18  C   UNL     1      33.965 -21.387 -19.649  0.00  0.00    -0.000 C 
ENDBRANCH  12  13
ENDBRANCH   1  12
TORSDOF 3
ENDMDL
MODEL 7
REMARK VINA RESULT:      -7.9      2.288      5.950
REMARK  Name = 10397869
REMARK  3 active torsions:
REMARK  status: ('A' for Active; 'I' for Inactive)
REMARK    1  A    between atoms: N_1  and  C_4
REMARK    2  A    between atoms: N_1  and  C_12
REMARK    3  A    between atoms: C_12  and  C_13
REMARK                            x       y       z     vdW  Elec       q    Type
REMARK                         _______ _______ _______ _____ _____    ______ ____
ROOT
ATOM      1  N   UNL     1      35.730 -19.644 -21.071  0.00  0.00    -0.327 N 
ATOM      2  H   UNL     1      36.492 -20.016 -21.571  0.00  0.00    +0.147 HD
ENDROOT
BRANCH   1   4
ATOM      3  N   UNL     1      34.864 -22.328 -18.671  0.00  0.00    -0.228 NA
ATOM      4  C   UNL     1      34.981 -20.508 -20.284  0.00  0.00    +0.077 C 
ATOM      5  C   UNL     1      35.558 -21.469 -19.450  0.00  0.00    +0.139 C 
ATOM      6  C   UNL     1      33.583 -20.449 -20.295  0.00  0.00    +0.019 C 
ATOM      7  C   UNL     1      32.835 -21.316 -19.507  0.00  0.00    +0.022 C 
ATOM      8  C   UNL     1      33.517 -22.228 -18.718  0.00  0.00    +0.100 C 
ATOM      9  N   UNL     1      36.973 -21.549 -19.421  0.00  0.00    -0.342 N 
ATOM     10  H   UNL     1      37.417 -22.214 -18.847  0.00  0.00    +0.144 HD
ATOM     11  H   UNL     1      37.513 -20.941 -19.977  0.00  0.00    +0.144 HD
ENDBRANCH   1   4
BRANCH   1  12
ATOM     12  C   UNL     1      35.456 -18.235 -21.198  0.00  0.00    +0.114 C 
BRANCH  12  13
ATOM     13  C   UNL     1      35.088 -17.853 -22.592  0.00  0.00    -0.003 C 
ATOM     14  C   UNL     1      34.854 -18.842 -23.548  0.00  0.00    -0.003 C 
ATOM     15  C   UNL     1      34.978 -16.507 -22.941  0.00  0.00    -0.003 C 
ATOM     16  C   UNL     1      34.510 -18.485 -24.851  0.00  0.00    -0.000 C 
ATOM     17  C   UNL     1      34.635 -16.150 -24.244  0.00  0.00    -0.000 C 
ATOM     18  C   UNL     1      34.400 -17.139 -25.200  0.00  0.00    -0.000 C 
ENDBRANCH  12  13
ENDBRANCH   1  12
TORSDOF 3
ENDMDL
MODEL 8
REMARK VINA RESULT:      -7.8      3.650      5.965
REMARK  Name = 10397869
REMARK  3 active torsions:
REMARK  status: ('A' for Active; 'I' for Inactive)
REMARK    1  A    between atoms: N_1  and  C_4
REMARK    2  A    between atoms: N_1  and  C_12
REMARK    3  A    between atoms: C_12  and  C_13
REMARK                            x       y       z     vdW  Elec       q    Type
REMARK                         _______ _______ _______ _____ _____    ______ ____
ROOT
ATOM      1  N   UNL     1      33.129 -22.419 -18.693  0.00  0.00    -0.327 N 
ATOM      2  H   UNL     1      32.200 -22.301 -18.994  0.00  0.00    +0.147 HD
ENDROOT
BRANCH   1   4
ATOM      3  N   UNL     1      34.762 -19.861 -20.815  0.00  0.00    -0.228 NA
ATOM      4  C   UNL     1      34.115 -21.650 -19.296  0.00  0.00    +0.077 C 
ATOM      5  C   UNL     1      33.831 -20.630 -20.206  0.00  0.00    +0.139 C 
ATOM      6  C   UNL     1      35.466 -21.872 -19.006  0.00  0.00    +0.019 C 
ATOM      7  C   UNL     1      36.452 -21.101 -19.612  0.00  0.00    +0.022 C 
ATOM      8  C   UNL     1      36.051 -20.116 -20.500  0.00  0.00    +0.100 C 
ATOM      9  N   UNL     1      32.470 -20.386 -20.517  0.00  0.00    -0.342 N 
ATOM     10  H   UNL     1      32.230 -19.676 -21.154  0.00  0.00    +0.144 HD
ATOM     11  H   UNL     1      31.764 -20.927 -20.094  0.00  0.00    +0.144 HD
ENDBRANCH   1   4
BRANCH   1  12
ATOM     12  C   UNL     1      33.388 -23.381 -17.651  0.00  0.00    +0.114 C 
BRANCH  12  13
ATOM     13  C   UNL     1      32.447 -23.239 -16.503  0.00  0.00    -0.003 C 
ATOM     14  C   UNL     1      32.919 -23.357 -15.195  0.00  0.00    -0.003 C 
ATOM     15  C   UNL     1      31.094 -22.987 -16.736  0.00  0.00    -0.003 C 
ATOM     16  C   UNL     1      32.040 -23.224 -14.121  0.00  0.00    -0.000 C 
ATOM     17  C   UNL     1      30.215 -22.855 -15.662  0.00  0.00    -0.000 C 
ATOM     18  C   UNL     1      30.687 -22.973 -14.354  0.00  0.00    -0.000 C 
ENDBRANCH  12  13
ENDBRANCH   1  12
TORSDOF 3
ENDMDL
MODEL 9
REMARK VINA RESULT:      -7.8      5.156      8.450
REMARK  Name = 10397869
REMARK  3 active torsions:
REMARK  status: ('A' for Active; 'I' for Inactive)
REMARK    1  A    between atoms: N_1  and  C_4
REMARK    2  A    between atoms: N_1  and  C_12
REMARK    3  A    between atoms: C_12  and  C_13
REMARK                            x       y       z     vdW  Elec       q    Type
REMARK                         _______ _______ _______ _____ _____    ______ ____
ROOT
ATOM      1  N   UNL     1      33.823 -23.078 -16.769  0.00  0.00    -0.327 N 
ATOM      2  H   UNL     1      34.735 -22.803 -16.517  0.00  0.00    +0.147 HD
ENDROOT
BRANCH   1   4
ATOM      3  N   UNL     1      32.370 -23.618 -13.406  0.00  0.00    -0.228 NA
ATOM      4  C   UNL     1      32.891 -23.255 -15.757  0.00  0.00    +0.077 C 
ATOM      5  C   UNL     1      33.247 -23.442 -14.419  0.00  0.00    +0.139 C 
ATOM      6  C   UNL     1      31.521 -23.252 -16.044  0.00  0.00    +0.019 C 
ATOM      7  C   UNL     1      30.588 -23.431 -15.028  0.00  0.00    +0.022 C 
ATOM      8  C   UNL     1      31.059 -23.608 -13.738  0.00  0.00    +0.100 C 
ATOM      9  N   UNL     1      34.629 -23.449 -14.103  0.00  0.00    -0.342 N 
ATOM     10  H   UNL     1      34.920 -23.578 -13.171  0.00  0.00    +0.144 HD
ATOM     11  H   UNL     1      35.298 -23.324 -14.814  0.00  0.00    +0.144 HD
ENDBRANCH   1   4
BRANCH   1  12
ATOM     12  C   UNL     1      33.535 -23.272 -18.167  0.00  0.00    +0.114 C 
BRANCH  12  13
ATOM     13  C   UNL     1      34.038 -22.149 -19.010  0.00  0.00    -0.003 C 
ATOM     14  C   UNL     1      33.135 -21.289 -19.637  0.00  0.00    -0.003 C 
ATOM     15  C   UNL     1      35.410 -21.957 -19.173  0.00  0.00    -0.003 C 
ATOM     16  C   UNL     1      33.604 -20.239 -20.425  0.00  0.00    -0.000 C 
ATOM     17  C   UNL     1      35.879 -20.908 -19.962  0.00  0.00    -0.000 C 
ATOM     18  C   UNL     1      34.976 -20.048 -20.588  0.00  0.00    -0.000 C 
ENDBRANCH  12  13
ENDBRANCH   1  12
TORSDOF 3
ENDMDL
