MODEL 1
REMARK VINA RESULT:      -9.4      0.000      0.000
REMARK  Name = 53359
REMARK  7 active torsions:
REMARK  status: ('A' for Active; 'I' for Inactive)
REMARK    1  A    between atoms: C_3  and  C_16
REMARK    2  A    between atoms: C_4  and  C_14
REMARK    3  A    between atoms: C_6  and  O_24
REMARK    4  A    between atoms: C_16  and  N_17
REMARK    5  A    between atoms: N_17  and  C_19
REMARK    6  A    between atoms: C_19  and  C_21
REMARK    7  A    between atoms: C_21  and  O_22
REMARK                            x       y       z     vdW  Elec       q    Type
REMARK                         _______ _______ _______ _____ _____    ______ ____
ROOT
ATOM      1  C   UNL     1      34.643 -17.388 -22.268  0.00  0.00    +0.002 C 
ATOM      2  C   UNL     1      34.275 -16.706 -23.452  0.00  0.00    +0.007 C 
ATOM      3  C   UNL     1      35.040 -18.733 -22.344  0.00  0.00    +0.020 C 
ATOM      4  C   UNL     1      33.879 -15.362 -23.375  0.00  0.00    +0.105 C 
ATOM      5  C   UNL     1      34.605 -16.704 -21.041  0.00  0.00    +0.003 C 
ATOM      6  C   UNL     1      33.845 -14.698 -22.148  0.00  0.00    +0.143 C 
ATOM      7  C   UNL     1      34.314 -17.390 -24.678  0.00  0.00    +0.000 C 
ATOM      8  C   UNL     1      35.073 -19.397 -23.570  0.00  0.00    +0.002 C 
ATOM      9  C   UNL     1      34.208 -15.368 -20.984  0.00  0.00    +0.037 C 
ATOM     10  C   UNL     1      34.711 -18.726 -24.735  0.00  0.00    +0.000 C 
ENDROOT
BRANCH   4  14
ATOM     11  F   UNL     1      33.670 -15.292 -25.758  0.00  0.00    -0.166 F 
ATOM     12  F   UNL     1      32.163 -14.238 -24.607  0.00  0.00    -0.166 F 
ATOM     13  F   UNL     1      34.181 -13.439 -24.741  0.00  0.00    -0.166 F 
ATOM     14  C   UNL     1      33.478 -14.597 -24.602  0.00  0.00    +0.421 C 
ENDBRANCH   4  14
BRANCH   3  16
ATOM     15  S   UNL     1      37.068 -19.455 -20.684  0.00  0.00    -0.035 S 
ATOM     16  C   UNL     1      35.434 -19.502 -21.167  0.00  0.00    +0.085 C 
BRANCH  16  17
ATOM     17  N   UNL     1      34.427 -20.257 -20.508  0.00  0.00    -0.291 N 
ATOM     18  C   UNL     1      32.996 -20.139 -20.798  0.00  0.00    +0.113 C 
BRANCH  17  19
ATOM     19  C   UNL     1      34.739 -21.239 -19.465  0.00  0.00    +0.202 C 
BRANCH  19  21
ATOM     20  O   UNL     1      32.585 -22.024 -18.734  0.00  0.00    -0.248 OA
ATOM     21  C   UNL     1      33.653 -22.267 -19.283  0.00  0.00    +0.334 C 
BRANCH  21  22
ATOM     22  O   UNL     1      33.969 -23.483 -19.783  0.00  0.00    -0.479 OA
ATOM     23  H   UNL     1      33.305 -24.139 -19.876  0.00  0.00    +0.295 HD
ENDBRANCH  21  22
ENDBRANCH  19  21
ENDBRANCH  17  19
ENDBRANCH  16  17
ENDBRANCH   3  16
BRANCH   6  24
ATOM     24  O   UNL     1      33.461 -13.392 -22.068  0.00  0.00    -0.471 OA
ATOM     25  C   UNL     1      32.198 -13.126 -21.460  0.00  0.00    +0.252 C 
ENDBRANCH   6  24
TORSDOF 7
ENDMDL
MODEL 2
REMARK VINA RESULT:      -9.2      6.977      9.251
REMARK  Name = 53359
REMARK  7 active torsions:
REMARK  status: ('A' for Active; 'I' for Inactive)
REMARK    1  A    between atoms: C_3  and  C_16
REMARK    2  A    between atoms: C_4  and  C_14
REMARK    3  A    between atoms: C_6  and  O_24
REMARK    4  A    between atoms: C_16  and  N_17
REMARK    5  A    between atoms: N_17  and  C_19
REMARK    6  A    between atoms: C_19  and  C_21
REMARK    7  A    between atoms: C_21  and  O_22
REMARK                            x       y       z     vdW  Elec       q    Type
REMARK                         _______ _______ _______ _____ _____    ______ ____
ROOT
ATOM      1  C   UNL     1      35.443 -23.337 -15.832  0.00  0.00    +0.002 C 
ATOM      2  C   UNL     1      35.236 -22.646 -17.049  0.00  0.00    +0.007 C 
ATOM      3  C   UNL     1      36.735 -23.394 -15.284  0.00  0.00    +0.020 C 
ATOM      4  C   UNL     1      33.944 -22.589 -17.596  0.00  0.00    +0.105 C 
ATOM      5  C   UNL     1      34.350 -23.951 -15.196  0.00  0.00    +0.003 C 
ATOM      6  C   UNL     1      32.870 -23.205 -16.951  0.00  0.00    +0.143 C 
ATOM      7  C   UNL     1      36.328 -22.032 -17.684  0.00  0.00    +0.000 C 
ATOM      8  C   UNL     1      37.808 -22.778 -15.929  0.00  0.00    +0.002 C 
ATOM      9  C   UNL     1      33.074 -23.885 -15.754  0.00  0.00    +0.037 C 
ATOM     10  C   UNL     1      37.605 -22.099 -17.126  0.00  0.00    +0.000 C 
ENDROOT
BRANCH   4  14
ATOM     11  F   UNL     1      32.559 -21.089 -18.843  0.00  0.00    -0.166 F 
ATOM     12  F   UNL     1      34.687 -21.038 -19.258  0.00  0.00    -0.166 F 
ATOM     13  F   UNL     1      33.492 -22.728 -19.926  0.00  0.00    -0.166 F 
ATOM     14  C   UNL     1      33.675 -21.870 -18.884  0.00  0.00    +0.421 C 
ENDBRANCH   4  14
BRANCH   3  16
ATOM     15  S   UNL     1      36.710 -23.274 -12.569  0.00  0.00    -0.035 S 
ATOM     16  C   UNL     1      37.027 -24.087 -14.033  0.00  0.00    +0.085 C 
BRANCH  16  17
ATOM     17  N   UNL     1      37.575 -25.395 -14.119  0.00  0.00    -0.291 N 
ATOM     18  C   UNL     1      36.876 -26.536 -14.715  0.00  0.00    +0.113 C 
BRANCH  17  19
ATOM     19  C   UNL     1      38.912 -25.721 -13.613  0.00  0.00    +0.202 C 
BRANCH  19  21
ATOM     20  O   UNL     1      40.931 -24.564 -14.224  0.00  0.00    -0.248 OA
ATOM     21  C   UNL     1      40.013 -25.304 -14.553  0.00  0.00    +0.334 C 
BRANCH  21  22
ATOM     22  O   UNL     1      39.889 -25.824 -15.796  0.00  0.00    -0.479 OA
ATOM     23  H   UNL     1      40.099 -26.725 -15.950  0.00  0.00    +0.295 HD
ENDBRANCH  21  22
ENDBRANCH  19  21
ENDBRANCH  17  19
ENDBRANCH  16  17
ENDBRANCH   3  16
BRANCH   6  24
ATOM     24  O   UNL     1      31.614 -23.154 -17.477  0.00  0.00    -0.471 OA
ATOM     25  C   UNL     1      30.551 -22.829 -16.584  0.00  0.00    +0.252 C 
ENDBRANCH   6  24
TORSDOF 7
ENDMDL
MODEL 3
REMARK VINA RESULT:      -9.1      6.668      9.500
REMARK  Name = 53359
REMARK  7 active torsions:
REMARK  status: ('A' for Active; 'I' for Inactive)
REMARK    1  A    between atoms: C_3  and  C_16
REMARK    2  A    between atoms: C_4  and  C_14
REMARK    3  A    between atoms: C_6  and  O_24
REMARK    4  A    between atoms: C_16  and  N_17
REMARK    5  A    between atoms: N_17  and  C_19
REMARK    6  A    between atoms: C_19  and  C_21
REMARK    7  A    between atoms: C_21  and  O_22
REMARK                            x       y       z     vdW  Elec       q    Type
REMARK                         _______ _______ _______ _____ _____    ______ ____
ROOT
ATOM      1  C   UNL     1      36.046 -23.217 -15.630  0.00  0.00    +0.002 C 
ATOM      2  C   UNL     1      34.875 -23.128 -16.419  0.00  0.00    +0.007 C 
ATOM      3  C   UNL     1      36.021 -23.969 -14.444  0.00  0.00    +0.020 C 
ATOM      4  C   UNL     1      34.901 -22.378 -17.605  0.00  0.00    +0.105 C 
ATOM      5  C   UNL     1      37.211 -22.552 -16.052  0.00  0.00    +0.003 C 
ATOM      6  C   UNL     1      36.066 -21.723 -18.008  0.00  0.00    +0.143 C 
ATOM      7  C   UNL     1      33.712 -23.794 -15.998  0.00  0.00    +0.000 C 
ATOM      8  C   UNL     1      34.857 -24.623 -14.041  0.00  0.00    +0.002 C 
ATOM      9  C   UNL     1      37.218 -21.811 -17.233  0.00  0.00    +0.037 C 
ATOM     10  C   UNL     1      33.705 -24.536 -14.817  0.00  0.00    +0.000 C 
ENDROOT
BRANCH   4  14
ATOM     11  F   UNL     1      32.517 -22.435 -17.797  0.00  0.00    -0.166 F 
ATOM     12  F   UNL     1      33.573 -21.032 -19.071  0.00  0.00    -0.166 F 
ATOM     13  F   UNL     1      33.677 -23.164 -19.486  0.00  0.00    -0.166 F 
ATOM     14  C   UNL     1      33.685 -22.253 -18.474  0.00  0.00    +0.421 C 
ENDBRANCH   4  14
BRANCH   3  16
ATOM     15  S   UNL     1      37.311 -23.085 -12.220  0.00  0.00    -0.035 S 
ATOM     16  C   UNL     1      37.189 -24.107 -13.579  0.00  0.00    +0.085 C 
BRANCH  16  17
ATOM     17  N   UNL     1      38.161 -25.079 -13.939  0.00  0.00    -0.291 N 
ATOM     18  C   UNL     1      37.843 -26.472 -14.264  0.00  0.00    +0.113 C 
BRANCH  17  19
ATOM     19  C   UNL     1      39.591 -24.766 -14.019  0.00  0.00    +0.202 C 
BRANCH  19  21
ATOM     20  O   UNL     1      41.066 -26.662 -14.162  0.00  0.00    -0.248 OA
ATOM     21  C   UNL     1      40.384 -25.825 -14.740  0.00  0.00    +0.334 C 
BRANCH  21  22
ATOM     22  O   UNL     1      40.272 -25.762 -16.087  0.00  0.00    -0.479 OA
ATOM     23  H   UNL     1      40.531 -24.985 -16.543  0.00  0.00    +0.295 HD
ENDBRANCH  21  22
ENDBRANCH  19  21
ENDBRANCH  17  19
ENDBRANCH  16  17
ENDBRANCH   3  16
BRANCH   6  24
ATOM     24  O   UNL     1      36.096 -20.992 -19.159  0.00  0.00    -0.471 OA
ATOM     25  C   UNL     1      36.751 -21.579 -20.281  0.00  0.00    +0.252 C 
ENDBRANCH   6  24
TORSDOF 7
ENDMDL
MODEL 4
REMARK VINA RESULT:      -8.6      3.923      7.658
REMARK  Name = 53359
REMARK  7 active torsions:
REMARK  status: ('A' for Active; 'I' for Inactive)
REMARK    1  A    between atoms: C_3  and  C_16
REMARK    2  A    between atoms: C_4  and  C_14
REMARK    3  A    between atoms: C_6  and  O_24
REMARK    4  A    between atoms: C_16  and  N_17
REMARK    5  A    between atoms: N_17  and  C_19
REMARK    6  A    between atoms: C_19  and  C_21
REMARK    7  A    between atoms: C_21  and  O_22
REMARK                            x       y       z     vdW  Elec       q    Type
REMARK                         _______ _______ _______ _____ _____    ______ ____
ROOT
ATOM      1  C   UNL     1      33.740 -14.547 -23.337  0.00  0.00    +0.002 C 
ATOM      2  C   UNL     1      34.014 -15.702 -24.107  0.00  0.00    +0.007 C 
ATOM      3  C   UNL     1      33.130 -13.440 -23.951  0.00  0.00    +0.020 C 
ATOM      4  C   UNL     1      34.622 -16.808 -23.492  0.00  0.00    +0.105 C 
ATOM      5  C   UNL     1      34.082 -14.532 -21.974  0.00  0.00    +0.003 C 
ATOM      6  C   UNL     1      34.956 -16.776 -22.138  0.00  0.00    +0.143 C 
ATOM      7  C   UNL     1      33.671 -15.716 -25.469  0.00  0.00    +0.000 C 
ATOM      8  C   UNL     1      32.797 -13.472 -25.305  0.00  0.00    +0.002 C 
ATOM      9  C   UNL     1      34.686 -15.640 -21.380  0.00  0.00    +0.037 C 
ATOM     10  C   UNL     1      33.067 -14.608 -26.062  0.00  0.00    +0.000 C 
ENDROOT
BRANCH   4  14
ATOM     11  F   UNL     1      35.009 -17.850 -25.611  0.00  0.00    -0.166 F 
ATOM     12  F   UNL     1      36.123 -18.622 -23.917  0.00  0.00    -0.166 F 
ATOM     13  F   UNL     1      33.993 -19.023 -24.087  0.00  0.00    -0.166 F 
ATOM     14  C   UNL     1      34.934 -18.054 -24.266  0.00  0.00    +0.421 C 
ENDBRANCH   4  14
BRANCH   3  16
ATOM     15  S   UNL     1      31.845 -12.332 -21.827  0.00  0.00    -0.035 S 
ATOM     16  C   UNL     1      32.816 -12.214 -23.223  0.00  0.00    +0.085 C 
BRANCH  16  17
ATOM     17  N   UNL     1      33.330 -10.994 -23.739  0.00  0.00    -0.291 N 
ATOM     18  C   UNL     1      34.642 -10.864 -24.377  0.00  0.00    +0.113 C 
BRANCH  17  19
ATOM     19  C   UNL     1      32.576  -9.738 -23.679  0.00  0.00    +0.202 C 
BRANCH  19  21
ATOM     20  O   UNL     1      33.993  -7.946 -22.925  0.00  0.00    -0.248 OA
ATOM     21  C   UNL     1      33.126  -8.771 -22.664  0.00  0.00    +0.334 C 
BRANCH  21  22
ATOM     22  O   UNL     1      32.573  -8.902 -21.436  0.00  0.00    -0.479 OA
ATOM     23  H   UNL     1      31.685  -8.642 -21.292  0.00  0.00    +0.295 HD
ENDBRANCH  21  22
ENDBRANCH  19  21
ENDBRANCH  17  19
ENDBRANCH  16  17
ENDBRANCH   3  16
BRANCH   6  24
ATOM     24  O   UNL     1      35.548 -17.847 -21.536  0.00  0.00    -0.471 OA
ATOM     25  C   UNL     1      34.686 -18.797 -20.913  0.00  0.00    +0.252 C 
ENDBRANCH   6  24
TORSDOF 7
ENDMDL
MODEL 5
REMARK VINA RESULT:      -8.6      6.884      9.224
REMARK  Name = 53359
REMARK  7 active torsions:
REMARK  status: ('A' for Active; 'I' for Inactive)
REMARK    1  A    between atoms: C_3  and  C_16
REMARK    2  A    between atoms: C_4  and  C_14
REMARK    3  A    between atoms: C_6  and  O_24
REMARK    4  A    between atoms: C_16  and  N_17
REMARK    5  A    between atoms: N_17  and  C_19
REMARK    6  A    between atoms: C_19  and  C_21
REMARK    7  A    between atoms: C_21  and  O_22
REMARK                            x       y       z     vdW  Elec       q    Type
REMARK                         _______ _______ _______ _____ _____    ______ ____
ROOT
ATOM      1  C   UNL     1      35.359 -23.331 -15.947  0.00  0.00    +0.002 C 
ATOM      2  C   UNL     1      35.138 -22.589 -17.132  0.00  0.00    +0.007 C 
ATOM      3  C   UNL     1      36.656 -23.404 -15.413  0.00  0.00    +0.020 C 
ATOM      4  C   UNL     1      33.842 -22.516 -17.665  0.00  0.00    +0.105 C 
ATOM      5  C   UNL     1      34.275 -23.978 -15.330  0.00  0.00    +0.003 C 
ATOM      6  C   UNL     1      32.776 -23.165 -17.039  0.00  0.00    +0.143 C 
ATOM      7  C   UNL     1      36.222 -21.943 -17.749  0.00  0.00    +0.000 C 
ATOM      8  C   UNL     1      37.720 -22.755 -16.039  0.00  0.00    +0.002 C 
ATOM      9  C   UNL     1      32.993 -23.894 -15.874  0.00  0.00    +0.037 C 
ATOM     10  C   UNL     1      37.503 -22.026 -17.205  0.00  0.00    +0.000 C 
ENDROOT
BRANCH   4  14
ATOM     11  F   UNL     1      32.460 -20.943 -18.823  0.00  0.00    -0.166 F 
ATOM     12  F   UNL     1      34.579 -20.919 -19.286  0.00  0.00    -0.166 F 
ATOM     13  F   UNL     1      33.334 -22.558 -19.988  0.00  0.00    -0.166 F 
ATOM     14  C   UNL     1      33.558 -21.744 -18.919  0.00  0.00    +0.421 C 
ENDBRANCH   4  14
BRANCH   3  16
ATOM     15  S   UNL     1      37.547 -25.742 -14.350  0.00  0.00    -0.035 S 
ATOM     16  C   UNL     1      36.961 -24.148 -14.195  0.00  0.00    +0.085 C 
BRANCH  16  17
ATOM     17  N   UNL     1      36.732 -23.498 -12.953  0.00  0.00    -0.291 N 
ATOM     18  C   UNL     1      37.683 -22.579 -12.325  0.00  0.00    +0.113 C 
BRANCH  17  19
ATOM     19  C   UNL     1      35.501 -23.692 -12.181  0.00  0.00    +0.202 C 
BRANCH  19  21
ATOM     20  O   UNL     1      35.341 -24.304  -9.859  0.00  0.00    -0.248 OA
ATOM     21  C   UNL     1      35.691 -24.601 -10.994  0.00  0.00    +0.334 C 
BRANCH  21  22
ATOM     22  O   UNL     1      36.285 -25.777 -11.302  0.00  0.00    -0.479 OA
ATOM     23  H   UNL     1      37.102 -26.007 -10.904  0.00  0.00    +0.295 HD
ENDBRANCH  21  22
ENDBRANCH  19  21
ENDBRANCH  17  19
ENDBRANCH  16  17
ENDBRANCH   3  16
BRANCH   6  24
ATOM     24  O   UNL     1      31.515 -23.098 -17.553  0.00  0.00    -0.471 OA
ATOM     25  C   UNL     1      30.452 -22.874 -16.630  0.00  0.00    +0.252 C 
ENDBRANCH   6  24
TORSDOF 7
ENDMDL
MODEL 6
REMARK VINA RESULT:      -8.5      4.924      7.243
REMARK  Name = 53359
REMARK  7 active torsions:
REMARK  status: ('A' for Active; 'I' for Inactive)
REMARK    1  A    between atoms: C_3  and  C_16
REMARK    2  A    between atoms: C_4  and  C_14
REMARK    3  A    between atoms: C_6  and  O_24
REMARK    4  A    between atoms: C_16  and  N_17
REMARK    5  A    between atoms: N_17  and  C_19
REMARK    6  A    between atoms: C_19  and  C_21
REMARK    7  A    between atoms: C_21  and  O_22
REMARK                            x       y       z     vdW  Elec       q    Type
REMARK                         _______ _______ _______ _____ _____    ______ ____
ROOT
ATOM      1  C   UNL     1      33.317 -11.136 -23.352  0.00  0.00    +0.002 C 
ATOM      2  C   UNL     1      32.712 -10.085 -22.622  0.00  0.00    +0.007 C 
ATOM      3  C   UNL     1      32.849 -12.449 -23.182  0.00  0.00    +0.020 C 
ATOM      4  C   UNL     1      33.179  -8.773 -22.792  0.00  0.00    +0.105 C 
ATOM      5  C   UNL     1      34.372 -10.842 -24.232  0.00  0.00    +0.003 C 
ATOM      6  C   UNL     1      34.229  -8.498 -23.670  0.00  0.00    +0.143 C 
ATOM      7  C   UNL     1      31.657 -10.380 -21.743  0.00  0.00    +0.000 C 
ATOM      8  C   UNL     1      31.801 -12.723 -22.305  0.00  0.00    +0.002 C 
ATOM      9  C   UNL     1      34.824  -9.531 -24.388  0.00  0.00    +0.037 C 
ATOM     10  C   UNL     1      31.205 -11.691 -21.586  0.00  0.00    +0.000 C 
ENDROOT
BRANCH   4  14
ATOM     11  F   UNL     1      32.785  -7.689 -20.696  0.00  0.00    -0.166 F 
ATOM     12  F   UNL     1      33.051  -6.412 -22.429  0.00  0.00    -0.166 F 
ATOM     13  F   UNL     1      31.220  -7.562 -22.200  0.00  0.00    -0.166 F 
ATOM     14  C   UNL     1      32.571  -7.626 -22.040  0.00  0.00    +0.421 C 
ENDBRANCH   4  14
BRANCH   3  16
ATOM     15  S   UNL     1      33.074 -13.746 -25.561  0.00  0.00    -0.035 S 
ATOM     16  C   UNL     1      33.422 -13.584 -23.900  0.00  0.00    +0.085 C 
BRANCH  16  17
ATOM     17  N   UNL     1      34.223 -14.494 -23.159  0.00  0.00    -0.291 N 
ATOM     18  C   UNL     1      34.799 -15.719 -23.718  0.00  0.00    +0.113 C 
BRANCH  17  19
ATOM     19  C   UNL     1      34.551 -14.279 -21.746  0.00  0.00    +0.202 C 
BRANCH  19  21
ATOM     20  O   UNL     1      32.870 -15.697 -20.769  0.00  0.00    -0.248 OA
ATOM     21  C   UNL     1      34.052 -15.385 -20.853  0.00  0.00    +0.334 C 
BRANCH  21  22
ATOM     22  O   UNL     1      35.032 -15.999 -20.152  0.00  0.00    -0.479 OA
ATOM     23  H   UNL     1      35.285 -15.669 -19.312  0.00  0.00    +0.295 HD
ENDBRANCH  21  22
ENDBRANCH  19  21
ENDBRANCH  17  19
ENDBRANCH  16  17
ENDBRANCH   3  16
BRANCH   6  24
ATOM     24  O   UNL     1      34.687  -7.225 -23.839  0.00  0.00    -0.471 OA
ATOM     25  C   UNL     1      34.549  -6.655 -25.138  0.00  0.00    +0.252 C 
ENDBRANCH   6  24
TORSDOF 7
ENDMDL
MODEL 7
REMARK VINA RESULT:      -8.5      7.275     10.461
REMARK  Name = 53359
REMARK  7 active torsions:
REMARK  status: ('A' for Active; 'I' for Inactive)
REMARK    1  A    between atoms: C_3  and  C_16
REMARK    2  A    between atoms: C_4  and  C_14
REMARK    3  A    between atoms: C_6  and  O_24
REMARK    4  A    between atoms: C_16  and  N_17
REMARK    5  A    between atoms: N_17  and  C_19
REMARK    6  A    between atoms: C_19  and  C_21
REMARK    7  A    between atoms: C_21  and  O_22
REMARK                            x       y       z     vdW  Elec       q    Type
REMARK                         _______ _______ _______ _____ _____    ______ ____
ROOT
ATOM      1  C   UNL     1      35.327 -23.695 -14.609  0.00  0.00    +0.002 C 
ATOM      2  C   UNL     1      33.936 -23.640 -14.862  0.00  0.00    +0.007 C 
ATOM      3  C   UNL     1      35.782 -24.150 -13.360  0.00  0.00    +0.020 C 
ATOM      4  C   UNL     1      33.483 -23.186 -16.110  0.00  0.00    +0.105 C 
ATOM      5  C   UNL     1      36.225 -23.295 -15.614  0.00  0.00    +0.003 C 
ATOM      6  C   UNL     1      34.388 -22.791 -17.097  0.00  0.00    +0.143 C 
ATOM      7  C   UNL     1      33.040 -24.041 -13.858  0.00  0.00    +0.000 C 
ATOM      8  C   UNL     1      34.877 -24.544 -12.375  0.00  0.00    +0.002 C 
ATOM      9  C   UNL     1      35.756 -22.846 -16.848  0.00  0.00    +0.037 C 
ATOM     10  C   UNL     1      33.509 -24.490 -12.623  0.00  0.00    +0.000 C 
ENDROOT
BRANCH   4  14
ATOM     11  F   UNL     1      31.752 -22.462 -17.595  0.00  0.00    -0.166 F 
ATOM     12  F   UNL     1      31.427 -24.331 -16.542  0.00  0.00    -0.166 F 
ATOM     13  F   UNL     1      31.318 -22.446 -15.464  0.00  0.00    -0.166 F 
ATOM     14  C   UNL     1      32.019 -23.108 -16.425  0.00  0.00    +0.421 C 
ENDBRANCH   4  14
BRANCH   3  16
ATOM     15  S   UNL     1      37.881 -22.994 -12.076  0.00  0.00    -0.035 S 
ATOM     16  C   UNL     1      37.200 -24.236 -13.026  0.00  0.00    +0.085 C 
BRANCH  16  17
ATOM     17  N   UNL     1      37.929 -25.346 -13.532  0.00  0.00    -0.291 N 
ATOM     18  C   UNL     1      37.305 -26.569 -14.041  0.00  0.00    +0.113 C 
BRANCH  17  19
ATOM     19  C   UNL     1      39.394 -25.362 -13.590  0.00  0.00    +0.202 C 
BRANCH  19  21
ATOM     20  O   UNL     1      40.659 -26.126 -15.488  0.00  0.00    -0.248 OA
ATOM     21  C   UNL     1      39.926 -25.278 -14.997  0.00  0.00    +0.334 C 
BRANCH  21  22
ATOM     22  O   UNL     1      39.517 -24.175 -15.665  0.00  0.00    -0.479 OA
ATOM     23  H   UNL     1      40.139 -23.519 -15.912  0.00  0.00    +0.295 HD
ENDBRANCH  21  22
ENDBRANCH  19  21
ENDBRANCH  17  19
ENDBRANCH  16  17
ENDBRANCH   3  16
BRANCH   6  24
ATOM     24  O   UNL     1      33.953 -22.349 -18.311  0.00  0.00    -0.471 OA
ATOM     25  C   UNL     1      34.945 -21.888 -19.225  0.00  0.00    +0.252 C 
ENDBRANCH   6  24
TORSDOF 7
ENDMDL
MODEL 8
REMARK VINA RESULT:      -8.5      8.871     10.748
REMARK  Name = 53359
REMARK  7 active torsions:
REMARK  status: ('A' for Active; 'I' for Inactive)
REMARK    1  A    between atoms: C_3  and  C_16
REMARK    2  A    between atoms: C_4  and  C_14
REMARK    3  A    between atoms: C_6  and  O_24
REMARK    4  A    between atoms: C_16  and  N_17
REMARK    5  A    between atoms: N_17  and  C_19
REMARK    6  A    between atoms: C_19  and  C_21
REMARK    7  A    between atoms: C_21  and  O_22
REMARK                            x       y       z     vdW  Elec       q    Type
REMARK                         _______ _______ _______ _____ _____    ______ ____
ROOT
ATOM      1  C   UNL     1      35.178 -23.762 -14.435  0.00  0.00    +0.002 C 
ATOM      2  C   UNL     1      34.354 -23.349 -15.509  0.00  0.00    +0.007 C 
ATOM      3  C   UNL     1      36.558 -23.507 -14.489  0.00  0.00    +0.020 C 
ATOM      4  C   UNL     1      32.975 -23.604 -15.454  0.00  0.00    +0.105 C 
ATOM      5  C   UNL     1      34.596 -24.418 -13.336  0.00  0.00    +0.003 C 
ATOM      6  C   UNL     1      32.414 -24.257 -14.356  0.00  0.00    +0.143 C 
ATOM      7  C   UNL     1      34.935 -22.693 -16.607  0.00  0.00    +0.000 C 
ATOM      8  C   UNL     1      37.118 -22.854 -15.587  0.00  0.00    +0.002 C 
ATOM      9  C   UNL     1      33.224 -24.663 -13.299  0.00  0.00    +0.037 C 
ATOM     10  C   UNL     1      36.308 -22.448 -16.644  0.00  0.00    +0.000 C 
ENDROOT
BRANCH   4  14
ATOM     11  F   UNL     1      31.163 -22.231 -16.200  0.00  0.00    -0.166 F 
ATOM     12  F   UNL     1      32.722 -22.671 -17.642  0.00  0.00    -0.166 F 
ATOM     13  F   UNL     1      31.324 -24.227 -17.049  0.00  0.00    -0.166 F 
ATOM     14  C   UNL     1      32.061 -23.187 -16.568  0.00  0.00    +0.421 C 
ENDBRANCH   4  14
BRANCH   3  16
ATOM     15  S   UNL     1      37.778 -22.785 -12.170  0.00  0.00    -0.035 S 
ATOM     16  C   UNL     1      37.470 -23.902 -13.420  0.00  0.00    +0.085 C 
BRANCH  16  17
ATOM     17  N   UNL     1      38.059 -25.193 -13.503  0.00  0.00    -0.291 N 
ATOM     18  C   UNL     1      37.971 -26.200 -12.443  0.00  0.00    +0.113 C 
BRANCH  17  19
ATOM     19  C   UNL     1      38.816 -25.636 -14.678  0.00  0.00    +0.202 C 
BRANCH  19  21
ATOM     20  O   UNL     1      40.910 -24.555 -14.190  0.00  0.00    -0.248 OA
ATOM     21  C   UNL     1      40.307 -25.584 -14.468  0.00  0.00    +0.334 C 
BRANCH  21  22
ATOM     22  O   UNL     1      40.917 -26.783 -14.618  0.00  0.00    -0.479 OA
ATOM     23  H   UNL     1      41.376 -26.979 -15.412  0.00  0.00    +0.295 HD
ENDBRANCH  21  22
ENDBRANCH  19  21
ENDBRANCH  17  19
ENDBRANCH  16  17
ENDBRANCH   3  16
BRANCH   6  24
ATOM     24  O   UNL     1      31.075 -24.508 -14.297  0.00  0.00    -0.471 OA
ATOM     25  C   UNL     1      30.338 -23.850 -13.269  0.00  0.00    +0.252 C 
ENDBRANCH   6  24
TORSDOF 7
ENDMDL
MODEL 9
REMARK VINA RESULT:      -8.3      7.000      9.776
REMARK  Name = 53359
REMARK  7 active torsions:
REMARK  status: ('A' for Active; 'I' for Inactive)
REMARK    1  A    between atoms: C_3  and  C_16
REMARK    2  A    between atoms: C_4  and  C_14
REMARK    3  A    between atoms: C_6  and  O_24
REMARK    4  A    between atoms: C_16  and  N_17
REMARK    5  A    between atoms: N_17  and  C_19
REMARK    6  A    between atoms: C_19  and  C_21
REMARK    7  A    between atoms: C_21  and  O_22
REMARK                            x       y       z     vdW  Elec       q    Type
REMARK                         _______ _______ _______ _____ _____    ______ ____
ROOT
ATOM      1  C   UNL     1      32.971 -23.452 -15.961  0.00  0.00    +0.002 C 
ATOM      2  C   UNL     1      34.337 -23.312 -15.617  0.00  0.00    +0.007 C 
ATOM      3  C   UNL     1      32.062 -23.912 -14.994  0.00  0.00    +0.020 C 
ATOM      4  C   UNL     1      35.244 -22.851 -16.584  0.00  0.00    +0.105 C 
ATOM      5  C   UNL     1      32.553 -23.126 -17.263  0.00  0.00    +0.003 C 
ATOM      6  C   UNL     1      34.812 -22.533 -17.872  0.00  0.00    +0.143 C 
ATOM      7  C   UNL     1      34.753 -23.638 -14.316  0.00  0.00    +0.000 C 
ATOM      8  C   UNL     1      32.494 -24.231 -13.707  0.00  0.00    +0.002 C 
ATOM      9  C   UNL     1      33.469 -22.670 -18.211  0.00  0.00    +0.037 C 
ATOM     10  C   UNL     1      33.837 -24.094 -13.369  0.00  0.00    +0.000 C 
ENDROOT
BRANCH   4  14
ATOM     11  F   UNL     1      36.947 -21.723 -15.339  0.00  0.00    -0.166 F 
ATOM     12  F   UNL     1      37.276 -23.822 -15.776  0.00  0.00    -0.166 F 
ATOM     13  F   UNL     1      37.432 -22.346 -17.365  0.00  0.00    -0.166 F 
ATOM     14  C   UNL     1      36.701 -22.688 -16.268  0.00  0.00    +0.421 C 
ENDBRANCH   4  14
BRANCH   3  16
ATOM     15  S   UNL     1      30.012 -25.665 -15.332  0.00  0.00    -0.035 S 
ATOM     16  C   UNL     1      30.639 -24.081 -15.273  0.00  0.00    +0.085 C 
BRANCH  16  17
ATOM     17  N   UNL     1      29.870 -22.907 -15.497  0.00  0.00    -0.291 N 
ATOM     18  C   UNL     1      29.619 -21.888 -14.476  0.00  0.00    +0.113 C 
BRANCH  17  19
ATOM     19  C   UNL     1      29.252 -22.609 -16.793  0.00  0.00    +0.202 C 
BRANCH  19  21
ATOM     20  O   UNL     1      26.889 -22.472 -16.364  0.00  0.00    -0.248 OA
ATOM     21  C   UNL     1      27.822 -23.073 -16.881  0.00  0.00    +0.334 C 
BRANCH  21  22
ATOM     22  O   UNL     1      27.666 -24.219 -17.585  0.00  0.00    -0.479 OA
ATOM     23  H   UNL     1      28.418 -24.678 -17.904  0.00  0.00    +0.295 HD
ENDBRANCH  21  22
ENDBRANCH  19  21
ENDBRANCH  17  19
ENDBRANCH  16  17
ENDBRANCH   3  16
BRANCH   6  24
ATOM     24  O   UNL     1      35.690 -22.086 -18.815  0.00  0.00    -0.471 OA
ATOM     25  C   UNL     1      35.158 -21.275 -19.861  0.00  0.00    +0.252 C 
ENDBRANCH   6  24
TORSDOF 7
ENDMDL
