MODEL 1
REMARK VINA RESULT:      -6.1      0.000      0.000
REMARK  Name = 2972
REMARK  1 active torsions:
REMARK  status: ('A' for Active; 'I' for Inactive)
REMARK    1  A    between atoms: C_4  and  O_10
REMARK                            x       y       z     vdW  Elec       q    Type
REMARK                         _______ _______ _______ _____ _____    ______ ____
ROOT
ATOM      1  O   UNL     1      34.819 -16.656 -25.796  0.00  0.00    -0.283 OA
ATOM      2  N   UNL     1      34.721 -18.580 -22.228  0.00  0.00    -0.285 N 
ATOM      3  C   UNL     1      34.801 -17.166 -22.253  0.00  0.00    +0.066 C 
ATOM      4  C   UNL     1      34.847 -16.479 -23.423  0.00  0.00    +0.182 C 
ATOM      5  C   UNL     1      34.651 -19.265 -23.433  0.00  0.00    +0.069 C 
ATOM      6  C   UNL     1      34.849 -16.435 -20.932  0.00  0.00    +0.051 C 
ATOM      7  C   UNL     1      34.687 -19.326 -20.969  0.00  0.00    +0.117 C 
ATOM      8  C   UNL     1      34.784 -17.233 -24.714  0.00  0.00    +0.231 C 
ATOM      9  C   UNL     1      34.674 -18.706 -24.645  0.00  0.00    +0.061 C 
ENDROOT
BRANCH   4  10
ATOM     10  O   UNL     1      34.938 -15.105 -23.484  0.00  0.00    -0.502 OA
ATOM     11  H   UNL     1      34.840 -14.666 -24.306  0.00  0.00    +0.292 HD
ENDBRANCH   4  10
TORSDOF 1
ENDMDL
MODEL 2
REMARK VINA RESULT:      -6.0      4.713      6.194
REMARK  Name = 2972
REMARK  1 active torsions:
REMARK  status: ('A' for Active; 'I' for Inactive)
REMARK    1  A    between atoms: C_4  and  O_10
REMARK                            x       y       z     vdW  Elec       q    Type
REMARK                         _______ _______ _______ _____ _____    ______ ____
ROOT
ATOM      1  O   UNL     1      35.022 -22.982 -17.763  0.00  0.00    -0.283 OA
ATOM      2  N   UNL     1      35.216 -20.099 -20.607  0.00  0.00    -0.285 N 
ATOM      3  C   UNL     1      33.950 -20.583 -20.194  0.00  0.00    +0.066 C 
ATOM      4  C   UNL     1      33.836 -21.555 -19.253  0.00  0.00    +0.182 C 
ATOM      5  C   UNL     1      36.355 -20.611 -20.003  0.00  0.00    +0.069 C 
ATOM      6  C   UNL     1      32.719 -19.995 -20.843  0.00  0.00    +0.051 C 
ATOM      7  C   UNL     1      35.344 -19.062 -21.634  0.00  0.00    +0.117 C 
ATOM      8  C   UNL     1      35.075 -22.105 -18.620  0.00  0.00    +0.231 C 
ATOM      9  C   UNL     1      36.375 -21.555 -19.060  0.00  0.00    +0.061 C 
ENDROOT
BRANCH   4  10
ATOM     10  O   UNL     1      32.623 -22.058 -18.836  0.00  0.00    -0.502 OA
ATOM     11  H   UNL     1      32.450 -22.976 -18.901  0.00  0.00    +0.292 HD
ENDBRANCH   4  10
TORSDOF 1
ENDMDL
MODEL 3
REMARK VINA RESULT:      -6.0      4.562      5.688
REMARK  Name = 2972
REMARK  1 active torsions:
REMARK  status: ('A' for Active; 'I' for Inactive)
REMARK    1  A    between atoms: C_4  and  O_10
REMARK                            x       y       z     vdW  Elec       q    Type
REMARK                         _______ _______ _______ _____ _____    ______ ____
ROOT
ATOM      1  O   UNL     1      32.603 -22.114 -18.943  0.00  0.00    -0.283 OA
ATOM      2  N   UNL     1      35.070 -19.571 -20.914  0.00  0.00    -0.285 N 
ATOM      3  C   UNL     1      35.626 -20.600 -20.116  0.00  0.00    +0.066 C 
ATOM      4  C   UNL     1      34.841 -21.468 -19.429  0.00  0.00    +0.182 C 
ATOM      5  C   UNL     1      33.689 -19.481 -21.018  0.00  0.00    +0.069 C 
ATOM      6  C   UNL     1      37.132 -20.699 -20.035  0.00  0.00    +0.051 C 
ATOM      7  C   UNL     1      35.913 -18.622 -21.644  0.00  0.00    +0.117 C 
ATOM      8  C   UNL     1      33.354 -21.350 -19.541  0.00  0.00    +0.231 C 
ATOM      9  C   UNL     1      32.812 -20.280 -20.405  0.00  0.00    +0.061 C 
ENDROOT
BRANCH   4  10
ATOM     10  O   UNL     1      35.348 -22.472 -18.634  0.00  0.00    -0.502 OA
ATOM     11  H   UNL     1      36.120 -22.322 -18.125  0.00  0.00    +0.292 HD
ENDBRANCH   4  10
TORSDOF 1
ENDMDL
MODEL 4
REMARK VINA RESULT:      -5.9      2.313      3.250
REMARK  Name = 2972
REMARK  1 active torsions:
REMARK  status: ('A' for Active; 'I' for Inactive)
REMARK    1  A    between atoms: C_4  and  O_10
REMARK                            x       y       z     vdW  Elec       q    Type
REMARK                         _______ _______ _______ _____ _____    ______ ____
ROOT
ATOM      1  O   UNL     1      35.731 -18.513 -20.562  0.00  0.00    -0.283 OA
ATOM      2  N   UNL     1      34.520 -16.747 -24.005  0.00  0.00    -0.285 N 
ATOM      3  C   UNL     1      34.569 -15.984 -22.812  0.00  0.00    +0.066 C 
ATOM      4  C   UNL     1      34.958 -16.534 -21.634  0.00  0.00    +0.182 C 
ATOM      5  C   UNL     1      34.915 -18.076 -23.962  0.00  0.00    +0.069 C 
ATOM      6  C   UNL     1      34.161 -14.531 -22.883  0.00  0.00    +0.051 C 
ATOM      7  C   UNL     1      34.086 -16.161 -25.275  0.00  0.00    +0.117 C 
ATOM      8  C   UNL     1      35.369 -17.972 -21.602  0.00  0.00    +0.231 C 
ATOM      9  C   UNL     1      35.329 -18.727 -22.872  0.00  0.00    +0.061 C 
ENDROOT
BRANCH   4  10
ATOM     10  O   UNL     1      35.006 -15.825 -20.454  0.00  0.00    -0.502 OA
ATOM     11  H   UNL     1      34.222 -15.457 -20.096  0.00  0.00    +0.292 HD
ENDBRANCH   4  10
TORSDOF 1
ENDMDL
MODEL 5
REMARK VINA RESULT:      -5.9      2.420      3.968
REMARK  Name = 2972
REMARK  1 active torsions:
REMARK  status: ('A' for Active; 'I' for Inactive)
REMARK    1  A    between atoms: C_4  and  O_10
REMARK                            x       y       z     vdW  Elec       q    Type
REMARK                         _______ _______ _______ _____ _____    ______ ____
ROOT
ATOM      1  O   UNL     1      34.908 -15.731 -19.867  0.00  0.00    -0.283 OA
ATOM      2  N   UNL     1      34.597 -16.469 -23.841  0.00  0.00    -0.285 N 
ATOM      3  C   UNL     1      34.960 -17.521 -22.965  0.00  0.00    +0.066 C 
ATOM      4  C   UNL     1      35.087 -17.319 -21.629  0.00  0.00    +0.182 C 
ATOM      5  C   UNL     1      34.332 -15.217 -23.305  0.00  0.00    +0.069 C 
ATOM      6  C   UNL     1      35.219 -18.884 -23.564  0.00  0.00    +0.051 C 
ATOM      7  C   UNL     1      34.475 -16.678 -25.286  0.00  0.00    +0.117 C 
ATOM      8  C   UNL     1      34.810 -15.961 -21.068  0.00  0.00    +0.231 C 
ATOM      9  C   UNL     1      34.408 -14.896 -22.011  0.00  0.00    +0.061 C 
ENDROOT
BRANCH   4  10
ATOM     10  O   UNL     1      35.450 -18.317 -20.750  0.00  0.00    -0.502 OA
ATOM     11  H   UNL     1      35.481 -19.207 -21.040  0.00  0.00    +0.292 HD
ENDBRANCH   4  10
TORSDOF 1
ENDMDL
MODEL 6
REMARK VINA RESULT:      -5.8      1.912      3.077
REMARK  Name = 2972
REMARK  1 active torsions:
REMARK  status: ('A' for Active; 'I' for Inactive)
REMARK    1  A    between atoms: C_4  and  O_10
REMARK                            x       y       z     vdW  Elec       q    Type
REMARK                         _______ _______ _______ _____ _____    ______ ____
ROOT
ATOM      1  O   UNL     1      33.373 -15.451 -26.600  0.00  0.00    -0.283 OA
ATOM      2  N   UNL     1      34.353 -15.793 -22.680  0.00  0.00    -0.285 N 
ATOM      3  C   UNL     1      34.686 -16.840 -23.574  0.00  0.00    +0.066 C 
ATOM      4  C   UNL     1      34.369 -16.775 -24.892  0.00  0.00    +0.182 C 
ATOM      5  C   UNL     1      33.720 -14.665 -23.182  0.00  0.00    +0.069 C 
ATOM      6  C   UNL     1      35.398 -18.050 -23.015  0.00  0.00    +0.051 C 
ATOM      7  C   UNL     1      34.678 -15.866 -21.254  0.00  0.00    +0.117 C 
ATOM      8  C   UNL     1      33.677 -15.557 -25.416  0.00  0.00    +0.231 C 
ATOM      9  C   UNL     1      33.369 -14.475 -24.456  0.00  0.00    +0.061 C 
ENDROOT
BRANCH   4  10
ATOM     10  O   UNL     1      34.667 -17.780 -25.787  0.00  0.00    -0.502 OA
ATOM     11  H   UNL     1      34.082 -17.965 -26.494  0.00  0.00    +0.292 HD
ENDBRANCH   4  10
TORSDOF 1
ENDMDL
MODEL 7
REMARK VINA RESULT:      -5.8      1.247      1.310
REMARK  Name = 2972
REMARK  1 active torsions:
REMARK  status: ('A' for Active; 'I' for Inactive)
REMARK    1  A    between atoms: C_4  and  O_10
REMARK                            x       y       z     vdW  Elec       q    Type
REMARK                         _______ _______ _______ _____ _____    ______ ____
ROOT
ATOM      1  O   UNL     1      33.884 -15.940 -26.185  0.00  0.00    -0.283 OA
ATOM      2  N   UNL     1      35.020 -17.355 -22.559  0.00  0.00    -0.285 N 
ATOM      3  C   UNL     1      34.554 -16.022 -22.670  0.00  0.00    +0.066 C 
ATOM      4  C   UNL     1      34.173 -15.501 -23.864  0.00  0.00    +0.182 C 
ATOM      5  C   UNL     1      35.049 -18.148 -23.698  0.00  0.00    +0.069 C 
ATOM      6  C   UNL     1      34.505 -15.182 -21.415  0.00  0.00    +0.051 C 
ATOM      7  C   UNL     1      35.448 -17.917 -21.276  0.00  0.00    +0.117 C 
ATOM      8  C   UNL     1      34.222 -16.365 -25.084  0.00  0.00    +0.231 C 
ATOM      9  C   UNL     1      34.689 -17.758 -24.923  0.00  0.00    +0.061 C 
ENDROOT
BRANCH   4  10
ATOM     10  O   UNL     1      33.727 -14.206 -24.010  0.00  0.00    -0.502 OA
ATOM     11  H   UNL     1      33.696 -13.815 -24.860  0.00  0.00    +0.292 HD
ENDBRANCH   4  10
TORSDOF 1
ENDMDL
MODEL 8
REMARK VINA RESULT:      -5.7      2.697      3.622
REMARK  Name = 2972
REMARK  1 active torsions:
REMARK  status: ('A' for Active; 'I' for Inactive)
REMARK    1  A    between atoms: C_4  and  O_10
REMARK                            x       y       z     vdW  Elec       q    Type
REMARK                         _______ _______ _______ _____ _____    ______ ____
ROOT
ATOM      1  O   UNL     1      34.891 -17.133 -25.880  0.00  0.00    -0.283 OA
ATOM      2  N   UNL     1      33.174 -14.166 -23.715  0.00  0.00    -0.285 N 
ATOM      3  C   UNL     1      34.124 -15.016 -23.098  0.00  0.00    +0.066 C 
ATOM      4  C   UNL     1      34.716 -16.030 -23.779  0.00  0.00    +0.182 C 
ATOM      5  C   UNL     1      32.878 -14.360 -25.057  0.00  0.00    +0.069 C 
ATOM      6  C   UNL     1      34.453 -14.774 -21.643  0.00  0.00    +0.051 C 
ATOM      7  C   UNL     1      32.519 -13.082 -22.979  0.00  0.00    +0.117 C 
ATOM      8  C   UNL     1      34.378 -16.233 -25.222  0.00  0.00    +0.231 C 
ATOM      9  C   UNL     1      33.402 -15.309 -25.837  0.00  0.00    +0.061 C 
ENDROOT
BRANCH   4  10
ATOM     10  O   UNL     1      35.635 -16.883 -23.207  0.00  0.00    -0.502 OA
ATOM     11  H   UNL     1      35.461 -17.265 -22.370  0.00  0.00    +0.292 HD
ENDBRANCH   4  10
TORSDOF 1
ENDMDL
MODEL 9
REMARK VINA RESULT:      -5.7      1.377      3.035
REMARK  Name = 2972
REMARK  1 active torsions:
REMARK  status: ('A' for Active; 'I' for Inactive)
REMARK    1  A    between atoms: C_4  and  O_10
REMARK                            x       y       z     vdW  Elec       q    Type
REMARK                         _______ _______ _______ _____ _____    ______ ____
ROOT
ATOM      1  O   UNL     1      34.986 -15.899 -20.401  0.00  0.00    -0.283 OA
ATOM      2  N   UNL     1      34.817 -18.522 -23.489  0.00  0.00    -0.285 N 
ATOM      3  C   UNL     1      34.815 -17.131 -23.758  0.00  0.00    +0.066 C 
ATOM      4  C   UNL     1      34.859 -16.216 -22.757  0.00  0.00    +0.182 C 
ATOM      5  C   UNL     1      34.904 -18.946 -22.171  0.00  0.00    +0.069 C 
ATOM      6  C   UNL     1      34.746 -16.687 -25.200  0.00  0.00    +0.051 C 
ATOM      7  C   UNL     1      34.753 -19.513 -24.565  0.00  0.00    +0.117 C 
ATOM      8  C   UNL     1      34.940 -16.689 -21.340  0.00  0.00    +0.231 C 
ATOM      9  C   UNL     1      34.967 -18.148 -21.102  0.00  0.00    +0.061 C 
ENDROOT
BRANCH   4  10
ATOM     10  O   UNL     1      34.845 -14.856 -22.981  0.00  0.00    -0.502 OA
ATOM     11  H   UNL     1      34.063 -14.364 -22.828  0.00  0.00    +0.292 HD
ENDBRANCH   4  10
TORSDOF 1
ENDMDL
