MODEL 1
REMARK VINA RESULT:      -5.9      0.000      0.000
REMARK  Name = 66141
REMARK  2 active torsions:
REMARK  status: ('A' for Active; 'I' for Inactive)
REMARK    1  A    between atoms: C_3  and  C_10
REMARK    2  A    between atoms: C_10  and  O_11
REMARK                            x       y       z     vdW  Elec       q    Type
REMARK                         _______ _______ _______ _____ _____    ______ ____
ROOT
ATOM      1  O   UNL     1      34.391 -24.233 -12.327  0.00  0.00    -0.275 OA
ATOM      2  N   UNL     1      36.366 -24.564 -13.488  0.00  0.00    -0.271 N 
ATOM      3  C   UNL     1      37.134 -25.085 -12.366  0.00  0.00    +0.174 C 
ATOM      4  C   UNL     1      38.367 -25.717 -13.001  0.00  0.00    +0.033 C 
ATOM      5  C   UNL     1      38.570 -24.898 -14.273  0.00  0.00    +0.024 C 
ATOM      6  C   UNL     1      37.149 -24.591 -14.721  0.00  0.00    +0.094 C 
ATOM      7  C   UNL     1      35.020 -24.245 -13.386  0.00  0.00    +0.226 C 
ATOM      8  C   UNL     1      34.337 -23.888 -14.681  0.00  0.00    +0.095 C 
ENDROOT
BRANCH   3  10
ATOM      9  O   UNL     1      38.391 -23.122 -11.723  0.00  0.00    -0.248 OA
ATOM     10  C   UNL     1      37.492 -23.918 -11.495  0.00  0.00    +0.332 C 
BRANCH  10  11
ATOM     11  O   UNL     1      36.681 -23.864 -10.410  0.00  0.00    -0.479 OA
ATOM     12  H   UNL     1      36.285 -24.647 -10.082  0.00  0.00    +0.295 HD
ENDBRANCH  10  11
ENDBRANCH   3  10
TORSDOF 2
ENDMDL
MODEL 2
REMARK VINA RESULT:      -5.8      2.202      3.529
REMARK  Name = 66141
REMARK  2 active torsions:
REMARK  status: ('A' for Active; 'I' for Inactive)
REMARK    1  A    between atoms: C_3  and  C_10
REMARK    2  A    between atoms: C_10  and  O_11
REMARK                            x       y       z     vdW  Elec       q    Type
REMARK                         _______ _______ _______ _____ _____    ______ ____
ROOT
ATOM      1  O   UNL     1      39.067 -23.808 -11.916  0.00  0.00    -0.275 OA
ATOM      2  N   UNL     1      37.557 -24.815 -13.353  0.00  0.00    -0.271 N 
ATOM      3  C   UNL     1      38.471 -25.823 -13.875  0.00  0.00    +0.174 C 
ATOM      4  C   UNL     1      37.572 -26.836 -14.573  0.00  0.00    +0.033 C 
ATOM      5  C   UNL     1      36.377 -25.999 -15.024  0.00  0.00    +0.024 C 
ATOM      6  C   UNL     1      36.214 -24.989 -13.898  0.00  0.00    +0.094 C 
ATOM      7  C   UNL     1      37.921 -23.927 -12.352  0.00  0.00    +0.226 C 
ATOM      8  C   UNL     1      36.806 -23.071 -11.807  0.00  0.00    +0.095 C 
ENDROOT
BRANCH   3  10
ATOM      9  O   UNL     1      39.237 -23.993 -15.258  0.00  0.00    -0.248 OA
ATOM     10  C   UNL     1      39.386 -25.132 -14.841  0.00  0.00    +0.332 C 
BRANCH  10  11
ATOM     11  O   UNL     1      40.411 -25.947 -15.195  0.00  0.00    -0.479 OA
ATOM     12  H   UNL     1      40.636 -26.678 -14.654  0.00  0.00    +0.295 HD
ENDBRANCH  10  11
ENDBRANCH   3  10
TORSDOF 2
ENDMDL
MODEL 3
REMARK VINA RESULT:      -5.8      2.928      4.136
REMARK  Name = 66141
REMARK  2 active torsions:
REMARK  status: ('A' for Active; 'I' for Inactive)
REMARK    1  A    between atoms: C_3  and  C_10
REMARK    2  A    between atoms: C_10  and  O_11
REMARK                            x       y       z     vdW  Elec       q    Type
REMARK                         _______ _______ _______ _____ _____    ______ ____
ROOT
ATOM      1  O   UNL     1      38.725 -23.307 -15.807  0.00  0.00    -0.275 OA
ATOM      2  N   UNL     1      36.496 -23.526 -15.223  0.00  0.00    -0.271 N 
ATOM      3  C   UNL     1      36.673 -24.643 -14.304  0.00  0.00    +0.174 C 
ATOM      4  C   UNL     1      35.368 -24.709 -13.520  0.00  0.00    +0.033 C 
ATOM      5  C   UNL     1      34.336 -24.158 -14.501  0.00  0.00    +0.024 C 
ATOM      6  C   UNL     1      35.106 -23.079 -15.248  0.00  0.00    +0.094 C 
ATOM      7  C   UNL     1      37.563 -22.900 -15.849  0.00  0.00    +0.226 C 
ATOM      8  C   UNL     1      37.221 -21.655 -16.626  0.00  0.00    +0.095 C 
ENDROOT
BRANCH   3  10
ATOM      9  O   UNL     1      35.995 -26.536 -15.648  0.00  0.00    -0.248 OA
ATOM     10  C   UNL     1      36.885 -25.871 -15.138  0.00  0.00    +0.332 C 
BRANCH  10  11
ATOM     11  O   UNL     1      38.207 -26.151 -15.249  0.00  0.00    -0.479 OA
ATOM     12  H   UNL     1      38.542 -26.967 -14.931  0.00  0.00    +0.295 HD
ENDBRANCH  10  11
ENDBRANCH   3  10
TORSDOF 2
ENDMDL
MODEL 4
REMARK VINA RESULT:      -5.8      2.947      3.504
REMARK  Name = 66141
REMARK  2 active torsions:
REMARK  status: ('A' for Active; 'I' for Inactive)
REMARK    1  A    between atoms: C_3  and  C_10
REMARK    2  A    between atoms: C_10  and  O_11
REMARK                            x       y       z     vdW  Elec       q    Type
REMARK                         _______ _______ _______ _____ _____    ______ ____
ROOT
ATOM      1  O   UNL     1      38.333 -22.974 -15.809  0.00  0.00    -0.275 OA
ATOM      2  N   UNL     1      37.539 -24.505 -14.265  0.00  0.00    -0.271 N 
ATOM      3  C   UNL     1      38.802 -24.711 -13.569  0.00  0.00    +0.174 C 
ATOM      4  C   UNL     1      38.420 -25.413 -12.272  0.00  0.00    +0.033 C 
ATOM      5  C   UNL     1      37.154 -26.181 -12.644  0.00  0.00    +0.024 C 
ATOM      6  C   UNL     1      36.458 -25.253 -13.628  0.00  0.00    +0.094 C 
ATOM      7  C   UNL     1      37.396 -23.587 -15.295  0.00  0.00    +0.226 C 
ATOM      8  C   UNL     1      35.987 -23.374 -15.784  0.00  0.00    +0.095 C 
ENDROOT
BRANCH   3  10
ATOM      9  O   UNL     1      39.311 -26.665 -14.900  0.00  0.00    -0.248 OA
ATOM     10  C   UNL     1      39.652 -25.583 -14.445  0.00  0.00    +0.332 C 
BRANCH  10  11
ATOM     11  O   UNL     1      40.860 -25.008 -14.665  0.00  0.00    -0.479 OA
ATOM     12  H   UNL     1      41.181 -24.354 -14.076  0.00  0.00    +0.295 HD
ENDBRANCH  10  11
ENDBRANCH   3  10
TORSDOF 2
ENDMDL
MODEL 5
REMARK VINA RESULT:      -5.8     10.498     11.617
REMARK  Name = 66141
REMARK  2 active torsions:
REMARK  status: ('A' for Active; 'I' for Inactive)
REMARK    1  A    between atoms: C_3  and  C_10
REMARK    2  A    between atoms: C_10  and  O_11
REMARK                            x       y       z     vdW  Elec       q    Type
REMARK                         _______ _______ _______ _____ _____    ______ ____
ROOT
ATOM      1  O   UNL     1      34.931 -16.081 -20.135  0.00  0.00    -0.275 OA
ATOM      2  N   UNL     1      34.827 -17.107 -22.208  0.00  0.00    -0.271 N 
ATOM      3  C   UNL     1      34.900 -18.477 -21.720  0.00  0.00    +0.174 C 
ATOM      4  C   UNL     1      34.474 -19.334 -22.906  0.00  0.00    +0.033 C 
ATOM      5  C   UNL     1      34.897 -18.502 -24.115  0.00  0.00    +0.024 C 
ATOM      6  C   UNL     1      34.651 -17.072 -23.657  0.00  0.00    +0.094 C 
ATOM      7  C   UNL     1      34.777 -16.014 -21.356  0.00  0.00    +0.226 C 
ATOM      8  C   UNL     1      34.526 -14.684 -22.019  0.00  0.00    +0.095 C 
ENDROOT
BRANCH   3  10
ATOM      9  O   UNL     1      37.301 -18.435 -22.004  0.00  0.00    -0.248 OA
ATOM     10  C   UNL     1      36.326 -18.733 -21.332  0.00  0.00    +0.332 C 
BRANCH  10  11
ATOM     11  O   UNL     1      36.390 -19.348 -20.125  0.00  0.00    -0.479 OA
ATOM     12  H   UNL     1      36.788 -20.193 -20.050  0.00  0.00    +0.295 HD
ENDBRANCH  10  11
ENDBRANCH   3  10
TORSDOF 2
ENDMDL
MODEL 6
REMARK VINA RESULT:      -5.7     12.081     13.368
REMARK  Name = 66141
REMARK  2 active torsions:
REMARK  status: ('A' for Active; 'I' for Inactive)
REMARK    1  A    between atoms: C_3  and  C_10
REMARK    2  A    between atoms: C_10  and  O_11
REMARK                            x       y       z     vdW  Elec       q    Type
REMARK                         _______ _______ _______ _____ _____    ______ ____
ROOT
ATOM      1  O   UNL     1      34.008 -14.619 -23.874  0.00  0.00    -0.275 OA
ATOM      2  N   UNL     1      34.323 -16.557 -22.647  0.00  0.00    -0.271 N 
ATOM      3  C   UNL     1      35.371 -17.119 -23.490  0.00  0.00    +0.174 C 
ATOM      4  C   UNL     1      35.985 -18.233 -22.652  0.00  0.00    +0.033 C 
ATOM      5  C   UNL     1      34.827 -18.692 -21.767  0.00  0.00    +0.024 C 
ATOM      6  C   UNL     1      34.074 -17.401 -21.482  0.00  0.00    +0.094 C 
ATOM      7  C   UNL     1      33.775 -15.304 -22.876  0.00  0.00    +0.226 C 
ATOM      8  C   UNL     1      32.833 -14.803 -21.812  0.00  0.00    +0.095 C 
ENDROOT
BRANCH   3  10
ATOM      9  O   UNL     1      34.132 -18.727 -24.804  0.00  0.00    -0.248 OA
ATOM     10  C   UNL     1      34.707 -17.651 -24.724  0.00  0.00    +0.332 C 
BRANCH  10  11
ATOM     11  O   UNL     1      34.831 -16.774 -25.751  0.00  0.00    -0.479 OA
ATOM     12  H   UNL     1      34.075 -16.516 -26.241  0.00  0.00    +0.295 HD
ENDBRANCH  10  11
ENDBRANCH   3  10
TORSDOF 2
ENDMDL
MODEL 7
REMARK VINA RESULT:      -5.6     12.087     13.519
REMARK  Name = 66141
REMARK  2 active torsions:
REMARK  status: ('A' for Active; 'I' for Inactive)
REMARK    1  A    between atoms: C_3  and  C_10
REMARK    2  A    between atoms: C_10  and  O_11
REMARK                            x       y       z     vdW  Elec       q    Type
REMARK                         _______ _______ _______ _____ _____    ______ ____
ROOT
ATOM      1  O   UNL     1      34.967 -16.037 -19.986  0.00  0.00    -0.275 OA
ATOM      2  N   UNL     1      34.473 -15.823 -22.238  0.00  0.00    -0.271 N 
ATOM      3  C   UNL     1      34.057 -14.428 -22.186  0.00  0.00    +0.174 C 
ATOM      4  C   UNL     1      34.039 -13.975 -23.641  0.00  0.00    +0.033 C 
ATOM      5  C   UNL     1      33.726 -15.258 -24.408  0.00  0.00    +0.024 C 
ATOM      6  C   UNL     1      34.453 -16.329 -23.608  0.00  0.00    +0.094 C 
ATOM      7  C   UNL     1      34.967 -16.496 -21.130  0.00  0.00    +0.226 C 
ATOM      8  C   UNL     1      35.515 -17.874 -21.397  0.00  0.00    +0.095 C 
ENDROOT
BRANCH   3  10
ATOM      9  O   UNL     1      32.007 -15.382 -21.328  0.00  0.00    -0.248 OA
ATOM     10  C   UNL     1      32.687 -14.398 -21.576  0.00  0.00    +0.332 C 
BRANCH  10  11
ATOM     11  O   UNL     1      32.299 -13.121 -21.335  0.00  0.00    -0.479 OA
ATOM     12  H   UNL     1      31.487 -12.953 -20.899  0.00  0.00    +0.295 HD
ENDBRANCH  10  11
ENDBRANCH   3  10
TORSDOF 2
ENDMDL
MODEL 8
REMARK VINA RESULT:      -5.6      2.035      3.214
REMARK  Name = 66141
REMARK  2 active torsions:
REMARK  status: ('A' for Active; 'I' for Inactive)
REMARK    1  A    between atoms: C_3  and  C_10
REMARK    2  A    between atoms: C_10  and  O_11
REMARK                            x       y       z     vdW  Elec       q    Type
REMARK                         _______ _______ _______ _____ _____    ______ ____
ROOT
ATOM      1  O   UNL     1      38.762 -23.986 -15.146  0.00  0.00    -0.275 OA
ATOM      2  N   UNL     1      36.984 -23.799 -13.675  0.00  0.00    -0.271 N 
ATOM      3  C   UNL     1      37.710 -24.214 -12.482  0.00  0.00    +0.174 C 
ATOM      4  C   UNL     1      36.811 -23.806 -11.321  0.00  0.00    +0.033 C 
ATOM      5  C   UNL     1      35.407 -23.878 -11.917  0.00  0.00    +0.024 C 
ATOM      6  C   UNL     1      35.612 -23.417 -13.351  0.00  0.00    +0.094 C 
ATOM      7  C   UNL     1      37.600 -23.651 -14.908  0.00  0.00    +0.226 C 
ATOM      8  C   UNL     1      36.746 -23.047 -15.993  0.00  0.00    +0.095 C 
ENDROOT
BRANCH   3  10
ATOM      9  O   UNL     1      37.072 -26.522 -12.144  0.00  0.00    -0.248 OA
ATOM     10  C   UNL     1      37.877 -25.702 -12.561  0.00  0.00    +0.332 C 
BRANCH  10  11
ATOM     11  O   UNL     1      39.050 -26.021 -13.160  0.00  0.00    -0.479 OA
ATOM     12  H   UNL     1      39.862 -25.767 -12.766  0.00  0.00    +0.295 HD
ENDBRANCH  10  11
ENDBRANCH   3  10
TORSDOF 2
ENDMDL
MODEL 9
REMARK VINA RESULT:      -5.6      2.393      3.298
REMARK  Name = 66141
REMARK  2 active torsions:
REMARK  status: ('A' for Active; 'I' for Inactive)
REMARK    1  A    between atoms: C_3  and  C_10
REMARK    2  A    between atoms: C_10  and  O_11
REMARK                            x       y       z     vdW  Elec       q    Type
REMARK                         _______ _______ _______ _____ _____    ______ ____
ROOT
ATOM      1  O   UNL     1      34.880 -24.667 -13.718  0.00  0.00    -0.275 OA
ATOM      2  N   UNL     1      37.167 -24.833 -13.400  0.00  0.00    -0.271 N 
ATOM      3  C   UNL     1      37.513 -25.074 -14.794  0.00  0.00    +0.174 C 
ATOM      4  C   UNL     1      39.018 -24.846 -14.865  0.00  0.00    +0.033 C 
ATOM      5  C   UNL     1      39.499 -25.215 -13.463  0.00  0.00    +0.024 C 
ATOM      6  C   UNL     1      38.364 -24.738 -12.569  0.00  0.00    +0.094 C 
ATOM      7  C   UNL     1      35.868 -24.576 -12.988  0.00  0.00    +0.226 C 
ATOM      8  C   UNL     1      35.712 -24.175 -11.543  0.00  0.00    +0.095 C 
ENDROOT
BRANCH   3  10
ATOM      9  O   UNL     1      37.790 -27.476 -14.747  0.00  0.00    -0.248 OA
ATOM     10  C   UNL     1      37.150 -26.497 -15.100  0.00  0.00    +0.332 C 
BRANCH  10  11
ATOM     11  O   UNL     1      36.007 -26.554 -15.829  0.00  0.00    -0.479 OA
ATOM     12  H   UNL     1      35.754 -25.824 -16.359  0.00  0.00    +0.295 HD
ENDBRANCH  10  11
ENDBRANCH   3  10
TORSDOF 2
ENDMDL
