MODEL 1
REMARK VINA RESULT:      -5.4      0.000      0.000
REMARK  Name = 8914
REMARK  8 active torsions:
REMARK  status: ('A' for Active; 'I' for Inactive)
REMARK    1  A    between atoms: C_1  and  C_2
REMARK    2  A    between atoms: C_1  and  C_7
REMARK    3  A    between atoms: C_2  and  C_3
REMARK    4  A    between atoms: C_3  and  C_4
REMARK    5  A    between atoms: C_4  and  C_5
REMARK    6  A    between atoms: C_7  and  C_8
REMARK    7  A    between atoms: C_8  and  C_9
REMARK    8  A    between atoms: C_9  and  O_10
REMARK                            x       y       z     vdW  Elec       q    Type
REMARK                         _______ _______ _______ _____ _____    ______ ____
ROOT
ATOM      1  C   UNL     1      34.883 -19.037 -23.787  0.00  0.00    +0.000 C 
ENDROOT
BRANCH   1   2
ATOM      2  C   UNL     1      35.396 -18.051 -22.736  0.00  0.00    +0.000 C 
BRANCH   2   3
ATOM      3  C   UNL     1      34.979 -18.411 -21.306  0.00  0.00    +0.000 C 
BRANCH   3   4
ATOM      4  C   UNL     1      35.326 -19.828 -20.844  0.00  0.00    +0.000 C 
BRANCH   4   5
ATOM      5  C   UNL     1      34.150 -20.567 -20.207  0.00  0.00    +0.000 C 
ATOM      6  C   UNL     1      32.820 -19.960 -20.628  0.00  0.00    +0.000 C 
ENDBRANCH   4   5
ENDBRANCH   3   4
ENDBRANCH   2   3
ENDBRANCH   1   2
BRANCH   1   7
ATOM      7  C   UNL     1      34.333 -18.304 -25.013  0.00  0.00    +0.003 C 
BRANCH   7   8
ATOM      8  C   UNL     1      34.850 -16.865 -25.079  0.00  0.00    +0.032 C 
BRANCH   8   9
ATOM      9  C   UNL     1      33.722 -15.854 -25.236  0.00  0.00    +0.137 C 
BRANCH   9  10
ATOM     10  O   UNL     1      33.658 -15.404 -26.583  0.00  0.00    -0.382 OA
ATOM     11  H   UNL     1      33.923 -14.471 -26.624  0.00  0.00    +0.210 HD
ENDBRANCH   9  10
ENDBRANCH   8   9
ENDBRANCH   7   8
ENDBRANCH   1   7
TORSDOF 8
ENDMDL
MODEL 2
REMARK VINA RESULT:      -5.3      3.558      6.065
REMARK  Name = 8914
REMARK  8 active torsions:
REMARK  status: ('A' for Active; 'I' for Inactive)
REMARK    1  A    between atoms: C_1  and  C_2
REMARK    2  A    between atoms: C_1  and  C_7
REMARK    3  A    between atoms: C_2  and  C_3
REMARK    4  A    between atoms: C_3  and  C_4
REMARK    5  A    between atoms: C_4  and  C_5
REMARK    6  A    between atoms: C_7  and  C_8
REMARK    7  A    between atoms: C_8  and  C_9
REMARK    8  A    between atoms: C_9  and  O_10
REMARK                            x       y       z     vdW  Elec       q    Type
REMARK                         _______ _______ _______ _____ _____    ______ ____
ROOT
ATOM      1  C   UNL     1      33.561 -19.360 -21.046  0.00  0.00    +0.000 C 
ENDROOT
BRANCH   1   2
ATOM      2  C   UNL     1      34.997 -19.554 -21.538  0.00  0.00    +0.000 C 
BRANCH   2   3
ATOM      3  C   UNL     1      35.347 -18.694 -22.757  0.00  0.00    +0.000 C 
BRANCH   3   4
ATOM      4  C   UNL     1      34.796 -19.181 -24.100  0.00  0.00    +0.000 C 
BRANCH   4   5
ATOM      5  C   UNL     1      34.462 -18.047 -25.068  0.00  0.00    +0.000 C 
ATOM      6  C   UNL     1      34.719 -16.686 -24.439  0.00  0.00    +0.000 C 
ENDBRANCH   4   5
ENDBRANCH   3   4
ENDBRANCH   2   3
ENDBRANCH   1   2
BRANCH   1   7
ATOM      7  C   UNL     1      33.124 -20.514 -20.141  0.00  0.00    +0.003 C 
BRANCH   7   8
ATOM      8  C   UNL     1      34.326 -21.334 -19.665  0.00  0.00    +0.032 C 
BRANCH   8   9
ATOM      9  C   UNL     1      33.914 -22.490 -18.763  0.00  0.00    +0.137 C 
BRANCH   9  10
ATOM     10  O   UNL     1      32.539 -22.374 -18.424  0.00  0.00    -0.382 OA
ATOM     11  H   UNL     1      32.188 -21.542 -18.779  0.00  0.00    +0.210 HD
ENDBRANCH   9  10
ENDBRANCH   8   9
ENDBRANCH   7   8
ENDBRANCH   1   7
TORSDOF 8
ENDMDL
MODEL 3
REMARK VINA RESULT:      -5.3      0.932      1.693
REMARK  Name = 8914
REMARK  8 active torsions:
REMARK  status: ('A' for Active; 'I' for Inactive)
REMARK    1  A    between atoms: C_1  and  C_2
REMARK    2  A    between atoms: C_1  and  C_7
REMARK    3  A    between atoms: C_2  and  C_3
REMARK    4  A    between atoms: C_3  and  C_4
REMARK    5  A    between atoms: C_4  and  C_5
REMARK    6  A    between atoms: C_7  and  C_8
REMARK    7  A    between atoms: C_8  and  C_9
REMARK    8  A    between atoms: C_9  and  O_10
REMARK                            x       y       z     vdW  Elec       q    Type
REMARK                         _______ _______ _______ _____ _____    ______ ____
ROOT
ATOM      1  C   UNL     1      35.701 -18.353 -22.803  0.00  0.00    +0.000 C 
ENDROOT
BRANCH   1   2
ATOM      2  C   UNL     1      35.295 -18.599 -21.349  0.00  0.00    +0.000 C 
BRANCH   2   3
ATOM      3  C   UNL     1      33.817 -18.967 -21.181  0.00  0.00    +0.000 C 
BRANCH   3   4
ATOM      4  C   UNL     1      33.531 -20.243 -20.385  0.00  0.00    +0.000 C 
BRANCH   4   5
ATOM      5  C   UNL     1      34.795 -20.974 -19.932  0.00  0.00    +0.000 C 
ATOM      6  C   UNL     1      34.457 -22.243 -19.165  0.00  0.00    +0.000 C 
ENDBRANCH   4   5
ENDBRANCH   3   4
ENDBRANCH   2   3
ENDBRANCH   1   2
BRANCH   1   7
ATOM      7  C   UNL     1      34.853 -19.187 -23.766  0.00  0.00    +0.003 C 
BRANCH   7   8
ATOM      8  C   UNL     1      34.487 -18.388 -25.020  0.00  0.00    +0.032 C 
BRANCH   8   9
ATOM      9  C   UNL     1      34.580 -16.885 -24.793  0.00  0.00    +0.137 C 
BRANCH   9  10
ATOM     10  O   UNL     1      34.227 -16.193 -25.983  0.00  0.00    -0.382 OA
ATOM     11  H   UNL     1      33.461 -15.624 -25.810  0.00  0.00    +0.210 HD
ENDBRANCH   9  10
ENDBRANCH   8   9
ENDBRANCH   7   8
ENDBRANCH   1   7
TORSDOF 8
ENDMDL
MODEL 4
REMARK VINA RESULT:      -5.2      4.077      5.932
REMARK  Name = 8914
REMARK  8 active torsions:
REMARK  status: ('A' for Active; 'I' for Inactive)
REMARK    1  A    between atoms: C_1  and  C_2
REMARK    2  A    between atoms: C_1  and  C_7
REMARK    3  A    between atoms: C_2  and  C_3
REMARK    4  A    between atoms: C_3  and  C_4
REMARK    5  A    between atoms: C_4  and  C_5
REMARK    6  A    between atoms: C_7  and  C_8
REMARK    7  A    between atoms: C_8  and  C_9
REMARK    8  A    between atoms: C_9  and  O_10
REMARK                            x       y       z     vdW  Elec       q    Type
REMARK                         _______ _______ _______ _____ _____    ______ ____
ROOT
ATOM      1  C   UNL     1      33.321 -19.363 -20.927  0.00  0.00    +0.000 C 
ENDROOT
BRANCH   1   2
ATOM      2  C   UNL     1      34.711 -19.300 -21.563  0.00  0.00    +0.000 C 
BRANCH   2   3
ATOM      3  C   UNL     1      35.486 -18.026 -21.213  0.00  0.00    +0.000 C 
BRANCH   3   4
ATOM      4  C   UNL     1      34.897 -16.717 -21.748  0.00  0.00    +0.000 C 
BRANCH   4   5
ATOM      5  C   UNL     1      34.478 -15.744 -20.647  0.00  0.00    +0.000 C 
ATOM      6  C   UNL     1      33.007 -15.373 -20.766  0.00  0.00    +0.000 C 
ENDBRANCH   4   5
ENDBRANCH   3   4
ENDBRANCH   2   3
ENDBRANCH   1   2
BRANCH   1   7
ATOM      7  C   UNL     1      33.125 -20.666 -20.148  0.00  0.00    +0.003 C 
BRANCH   7   8
ATOM      8  C   UNL     1      34.466 -21.242 -19.683  0.00  0.00    +0.032 C 
BRANCH   8   9
ATOM      9  C   UNL     1      34.288 -22.435 -18.753  0.00  0.00    +0.137 C 
BRANCH   9  10
ATOM     10  O   UNL     1      33.972 -23.596 -19.509  0.00  0.00    -0.382 OA
ATOM     11  H   UNL     1      33.809 -23.346 -20.432  0.00  0.00    +0.210 HD
ENDBRANCH   9  10
ENDBRANCH   8   9
ENDBRANCH   7   8
ENDBRANCH   1   7
TORSDOF 8
ENDMDL
MODEL 5
REMARK VINA RESULT:      -5.2      1.377      2.051
REMARK  Name = 8914
REMARK  8 active torsions:
REMARK  status: ('A' for Active; 'I' for Inactive)
REMARK    1  A    between atoms: C_1  and  C_2
REMARK    2  A    between atoms: C_1  and  C_7
REMARK    3  A    between atoms: C_2  and  C_3
REMARK    4  A    between atoms: C_3  and  C_4
REMARK    5  A    between atoms: C_4  and  C_5
REMARK    6  A    between atoms: C_7  and  C_8
REMARK    7  A    between atoms: C_8  and  C_9
REMARK    8  A    between atoms: C_9  and  O_10
REMARK                            x       y       z     vdW  Elec       q    Type
REMARK                         _______ _______ _______ _____ _____    ______ ____
ROOT
ATOM      1  C   UNL     1      34.611 -19.251 -23.009  0.00  0.00    +0.000 C 
ENDROOT
BRANCH   1   2
ATOM      2  C   UNL     1      35.013 -19.338 -21.536  0.00  0.00    +0.000 C 
BRANCH   2   3
ATOM      3  C   UNL     1      33.983 -20.060 -20.662  0.00  0.00    +0.000 C 
BRANCH   3   4
ATOM      4  C   UNL     1      34.531 -21.167 -19.757  0.00  0.00    +0.000 C 
BRANCH   4   5
ATOM      5  C   UNL     1      36.057 -21.234 -19.732  0.00  0.00    +0.000 C 
ATOM      6  C   UNL     1      36.575 -21.578 -18.344  0.00  0.00    +0.000 C 
ENDBRANCH   4   5
ENDBRANCH   3   4
ENDBRANCH   2   3
ENDBRANCH   1   2
BRANCH   1   7
ATOM      7  C   UNL     1      35.331 -18.100 -23.715  0.00  0.00    +0.003 C 
BRANCH   7   8
ATOM      8  C   UNL     1      34.594 -17.680 -24.989  0.00  0.00    +0.032 C 
BRANCH   8   9
ATOM      9  C   UNL     1      34.150 -16.224 -24.945  0.00  0.00    +0.137 C 
BRANCH   9  10
ATOM     10  O   UNL     1      33.825 -15.776 -26.254  0.00  0.00    -0.382 OA
ATOM     11  H   UNL     1      33.189 -15.046 -26.196  0.00  0.00    +0.210 HD
ENDBRANCH   9  10
ENDBRANCH   8   9
ENDBRANCH   7   8
ENDBRANCH   1   7
TORSDOF 8
ENDMDL
MODEL 6
REMARK VINA RESULT:      -5.1      5.406      7.820
REMARK  Name = 8914
REMARK  8 active torsions:
REMARK  status: ('A' for Active; 'I' for Inactive)
REMARK    1  A    between atoms: C_1  and  C_2
REMARK    2  A    between atoms: C_1  and  C_7
REMARK    3  A    between atoms: C_2  and  C_3
REMARK    4  A    between atoms: C_3  and  C_4
REMARK    5  A    between atoms: C_4  and  C_5
REMARK    6  A    between atoms: C_7  and  C_8
REMARK    7  A    between atoms: C_8  and  C_9
REMARK    8  A    between atoms: C_9  and  O_10
REMARK                            x       y       z     vdW  Elec       q    Type
REMARK                         _______ _______ _______ _____ _____    ______ ____
ROOT
ATOM      1  C   UNL     1      36.363 -21.254 -18.886  0.00  0.00    +0.000 C 
ENDROOT
BRANCH   1   2
ATOM      2  C   UNL     1      35.349 -21.671 -19.952  0.00  0.00    +0.000 C 
BRANCH   2   3
ATOM      3  C   UNL     1      33.908 -21.276 -19.614  0.00  0.00    +0.000 C 
BRANCH   3   4
ATOM      4  C   UNL     1      33.238 -20.297 -20.583  0.00  0.00    +0.000 C 
BRANCH   4   5
ATOM      5  C   UNL     1      34.145 -19.141 -21.004  0.00  0.00    +0.000 C 
ATOM      6  C   UNL     1      34.514 -19.233 -22.476  0.00  0.00    +0.000 C 
ENDBRANCH   4   5
ENDBRANCH   3   4
ENDBRANCH   2   3
ENDBRANCH   1   2
BRANCH   1   7
ATOM      7  C   UNL     1      36.166 -22.047 -17.592  0.00  0.00    +0.003 C 
BRANCH   7   8
ATOM      8  C   UNL     1      37.196 -21.646 -16.532  0.00  0.00    +0.032 C 
BRANCH   8   9
ATOM      9  C   UNL     1      37.477 -22.773 -15.546  0.00  0.00    +0.137 C 
BRANCH   9  10
ATOM     10  O   UNL     1      38.653 -23.472 -15.931  0.00  0.00    -0.382 OA
ATOM     11  H   UNL     1      39.424 -23.062 -15.508  0.00  0.00    +0.210 HD
ENDBRANCH   9  10
ENDBRANCH   8   9
ENDBRANCH   7   8
ENDBRANCH   1   7
TORSDOF 8
ENDMDL
MODEL 7
REMARK VINA RESULT:      -5.1      1.389      2.146
REMARK  Name = 8914
REMARK  8 active torsions:
REMARK  status: ('A' for Active; 'I' for Inactive)
REMARK    1  A    between atoms: C_1  and  C_2
REMARK    2  A    between atoms: C_1  and  C_7
REMARK    3  A    between atoms: C_2  and  C_3
REMARK    4  A    between atoms: C_3  and  C_4
REMARK    5  A    between atoms: C_4  and  C_5
REMARK    6  A    between atoms: C_7  and  C_8
REMARK    7  A    between atoms: C_8  and  C_9
REMARK    8  A    between atoms: C_9  and  O_10
REMARK                            x       y       z     vdW  Elec       q    Type
REMARK                         _______ _______ _______ _____ _____    ______ ____
ROOT
ATOM      1  C   UNL     1      34.610 -16.959 -21.132  0.00  0.00    +0.000 C 
ENDROOT
BRANCH   1   2
ATOM      2  C   UNL     1      35.568 -18.089 -21.512  0.00  0.00    +0.000 C 
BRANCH   2   3
ATOM      3  C   UNL     1      34.895 -19.464 -21.581  0.00  0.00    +0.000 C 
BRANCH   3   4
ATOM      4  C   UNL     1      33.490 -19.552 -20.979  0.00  0.00    +0.000 C 
BRANCH   4   5
ATOM      5  C   UNL     1      33.308 -20.732 -20.025  0.00  0.00    +0.000 C 
ATOM      6  C   UNL     1      34.647 -21.331 -19.624  0.00  0.00    +0.000 C 
ENDBRANCH   4   5
ENDBRANCH   3   4
ENDBRANCH   2   3
ENDBRANCH   1   2
BRANCH   1   7
ATOM      7  C   UNL     1      34.636 -15.837 -22.172  0.00  0.00    +0.003 C 
BRANCH   7   8
ATOM      8  C   UNL     1      35.210 -16.327 -23.505  0.00  0.00    +0.032 C 
BRANCH   8   9
ATOM      9  C   UNL     1      34.196 -16.236 -24.637  0.00  0.00    +0.137 C 
BRANCH   9  10
ATOM     10  O   UNL     1      34.764 -16.738 -25.839  0.00  0.00    -0.382 OA
ATOM     11  H   UNL     1      35.603 -17.183 -25.637  0.00  0.00    +0.210 HD
ENDBRANCH   9  10
ENDBRANCH   8   9
ENDBRANCH   7   8
ENDBRANCH   1   7
TORSDOF 8
ENDMDL
MODEL 8
REMARK VINA RESULT:      -5.1      2.543      2.893
REMARK  Name = 8914
REMARK  8 active torsions:
REMARK  status: ('A' for Active; 'I' for Inactive)
REMARK    1  A    between atoms: C_1  and  C_2
REMARK    2  A    between atoms: C_1  and  C_7
REMARK    3  A    between atoms: C_2  and  C_3
REMARK    4  A    between atoms: C_3  and  C_4
REMARK    5  A    between atoms: C_4  and  C_5
REMARK    6  A    between atoms: C_7  and  C_8
REMARK    7  A    between atoms: C_8  and  C_9
REMARK    8  A    between atoms: C_9  and  O_10
REMARK                            x       y       z     vdW  Elec       q    Type
REMARK                         _______ _______ _______ _____ _____    ______ ____
ROOT
ATOM      1  C   UNL     1      34.735 -17.363 -24.013  0.00  0.00    +0.000 C 
ENDROOT
BRANCH   1   2
ATOM      2  C   UNL     1      35.265 -18.695 -23.481  0.00  0.00    +0.000 C 
BRANCH   2   3
ATOM      3  C   UNL     1      35.854 -18.600 -22.070  0.00  0.00    +0.000 C 
BRANCH   3   4
ATOM      4  C   UNL     1      35.205 -19.496 -21.011  0.00  0.00    +0.000 C 
BRANCH   4   5
ATOM      5  C   UNL     1      33.678 -19.473 -21.048  0.00  0.00    +0.000 C 
ATOM      6  C   UNL     1      33.085 -20.517 -20.113  0.00  0.00    +0.000 C 
ENDBRANCH   4   5
ENDBRANCH   3   4
ENDBRANCH   2   3
ENDBRANCH   1   2
BRANCH   1   7
ATOM      7  C   UNL     1      35.112 -16.205 -23.086  0.00  0.00    +0.003 C 
BRANCH   7   8
ATOM      8  C   UNL     1      33.866 -15.493 -22.551  0.00  0.00    +0.032 C 
BRANCH   8   9
ATOM      9  C   UNL     1      33.656 -15.738 -21.063  0.00  0.00    +0.137 C 
BRANCH   9  10
ATOM     10  O   UNL     1      34.898 -15.653 -20.377  0.00  0.00    -0.382 OA
ATOM     11  H   UNL     1      34.941 -16.345 -19.699  0.00  0.00    +0.210 HD
ENDBRANCH   9  10
ENDBRANCH   8   9
ENDBRANCH   7   8
ENDBRANCH   1   7
TORSDOF 8
ENDMDL
MODEL 9
REMARK VINA RESULT:      -5.0      1.446      2.303
REMARK  Name = 8914
REMARK  8 active torsions:
REMARK  status: ('A' for Active; 'I' for Inactive)
REMARK    1  A    between atoms: C_1  and  C_2
REMARK    2  A    between atoms: C_1  and  C_7
REMARK    3  A    between atoms: C_2  and  C_3
REMARK    4  A    between atoms: C_3  and  C_4
REMARK    5  A    between atoms: C_4  and  C_5
REMARK    6  A    between atoms: C_7  and  C_8
REMARK    7  A    between atoms: C_8  and  C_9
REMARK    8  A    between atoms: C_9  and  O_10
REMARK                            x       y       z     vdW  Elec       q    Type
REMARK                         _______ _______ _______ _____ _____    ______ ____
ROOT
ATOM      1  C   UNL     1      35.014 -18.459 -21.372  0.00  0.00    +0.000 C 
ENDROOT
BRANCH   1   2
ATOM      2  C   UNL     1      36.188 -19.218 -20.751  0.00  0.00    +0.000 C 
BRANCH   2   3
ATOM      3  C   UNL     1      35.967 -20.733 -20.680  0.00  0.00    +0.000 C 
BRANCH   3   4
ATOM      4  C   UNL     1      36.110 -21.365 -19.292  0.00  0.00    +0.000 C 
BRANCH   4   5
ATOM      5  C   UNL     1      34.854 -22.100 -18.826  0.00  0.00    +0.000 C 
ATOM      6  C   UNL     1      33.608 -21.562 -19.515  0.00  0.00    +0.000 C 
ENDBRANCH   4   5
ENDBRANCH   3   4
ENDBRANCH   2   3
ENDBRANCH   1   2
BRANCH   1   7
ATOM      7  C   UNL     1      34.610 -19.065 -22.718  0.00  0.00    +0.003 C 
BRANCH   7   8
ATOM      8  C   UNL     1      35.312 -18.357 -23.880  0.00  0.00    +0.032 C 
BRANCH   8   9
ATOM      9  C   UNL     1      34.361 -18.054 -25.030  0.00  0.00    +0.137 C 
BRANCH   9  10
ATOM     10  O   UNL     1      34.861 -16.971 -25.801  0.00  0.00    -0.382 OA
ATOM     11  H   UNL     1      34.147 -16.335 -25.966  0.00  0.00    +0.210 HD
ENDBRANCH   9  10
ENDBRANCH   8   9
ENDBRANCH   7   8
ENDBRANCH   1   7
TORSDOF 8
ENDMDL
