MODEL 1
REMARK VINA RESULT:      -9.3      0.000      0.000
REMARK  Name = 2435
REMARK  1 active torsions:
REMARK  status: ('A' for Active; 'I' for Inactive)
REMARK    1  A    between atoms: C_4  and  N_13
REMARK                            x       y       z     vdW  Elec       q    Type
REMARK                         _______ _______ _______ _____ _____    ______ ____
ROOT
ATOM      1 BR   UNL     1      34.592 -15.862 -21.024  0.00  0.00    -0.069 Br
ATOM      2  N   UNL     1      33.602 -14.621 -23.631  0.00  0.00    -0.244 NA
ATOM      3  N   UNL     1      33.567 -15.730 -26.178  0.00  0.00    -0.245 NA
ATOM      4  C   UNL     1      35.039 -17.914 -22.975  0.00  0.00    +0.040 C 
ATOM      5  C   UNL     1      34.559 -16.620 -22.782  0.00  0.00    +0.133 C 
ATOM      6  C   UNL     1      34.060 -15.867 -23.842  0.00  0.00    +0.088 C 
ATOM      7  C   UNL     1      35.022 -18.468 -24.246  0.00  0.00    -0.008 C 
ATOM      8  C   UNL     1      34.042 -16.429 -25.131  0.00  0.00    +0.078 C 
ATOM      9  C   UNL     1      34.525 -17.723 -25.313  0.00  0.00    +0.074 C 
ATOM     10  C   UNL     1      33.131 -13.938 -24.689  0.00  0.00    +0.119 C 
ATOM     11  C   UNL     1      33.114 -14.485 -25.945  0.00  0.00    +0.119 C 
ENDROOT
BRANCH   4  13
ATOM     12  N   UNL     1      35.592 -20.211 -20.172  0.00  0.00    -0.284 N 
ATOM     13  N   UNL     1      35.550 -18.690 -21.910  0.00  0.00    -0.289 N 
ATOM     14  N   UNL     1      33.615 -19.892 -21.240  0.00  0.00    -0.214 NA
ATOM     15  C   UNL     1      34.751 -21.117 -19.451  0.00  0.00    +0.085 C 
ATOM     16  C   UNL     1      33.408 -20.907 -20.162  0.00  0.00    +0.117 C 
ATOM     17  C   UNL     1      34.883 -19.573 -21.147  0.00  0.00    +0.189 C 
ATOM     18  H   UNL     1      36.549 -20.068 -19.991  0.00  0.00    +0.155 HD
ATOM     19  H   UNL     1      36.505 -18.570 -21.703  0.00  0.00    +0.155 HD
ENDBRANCH   4  13
TORSDOF 1
ENDMDL
MODEL 2
REMARK VINA RESULT:      -8.5      2.615      7.132
REMARK  Name = 2435
REMARK  1 active torsions:
REMARK  status: ('A' for Active; 'I' for Inactive)
REMARK    1  A    between atoms: C_4  and  N_13
REMARK                            x       y       z     vdW  Elec       q    Type
REMARK                         _______ _______ _______ _____ _____    ______ ____
ROOT
ATOM      1 BR   UNL     1      32.513 -20.146 -21.018  0.00  0.00    -0.069 Br
ATOM      2  N   UNL     1      32.896 -22.047 -18.661  0.00  0.00    -0.244 NA
ATOM      3  N   UNL     1      35.261 -22.849 -17.444  0.00  0.00    -0.245 NA
ATOM      4  C   UNL     1      35.354 -20.209 -20.641  0.00  0.00    +0.040 C 
ATOM      5  C   UNL     1      34.137 -20.700 -20.170  0.00  0.00    +0.133 C 
ATOM      6  C   UNL     1      34.081 -21.587 -19.098  0.00  0.00    +0.088 C 
ATOM      7  C   UNL     1      36.535 -20.608 -20.034  0.00  0.00    -0.008 C 
ATOM      8  C   UNL     1      35.279 -21.993 -18.481  0.00  0.00    +0.078 C 
ATOM      9  C   UNL     1      36.489 -21.496 -18.961  0.00  0.00    +0.074 C 
ATOM     10  C   UNL     1      32.899 -22.902 -17.623  0.00  0.00    +0.119 C 
ATOM     11  C   UNL     1      34.065 -23.296 -17.023  0.00  0.00    +0.119 C 
ENDROOT
BRANCH   4  13
ATOM     12  N   UNL     1      35.333 -17.318 -22.894  0.00  0.00    -0.284 N 
ATOM     13  N   UNL     1      35.428 -19.309 -21.728  0.00  0.00    -0.289 N 
ATOM     14  N   UNL     1      34.851 -17.260 -20.677  0.00  0.00    -0.214 NA
ATOM     15  C   UNL     1      35.058 -15.924 -22.717  0.00  0.00    +0.085 C 
ATOM     16  C   UNL     1      34.727 -15.873 -21.220  0.00  0.00    +0.117 C 
ATOM     17  C   UNL     1      35.196 -17.986 -21.713  0.00  0.00    +0.189 C 
ATOM     18  H   UNL     1      35.585 -17.736 -23.748  0.00  0.00    +0.155 HD
ATOM     19  H   UNL     1      35.678 -19.697 -22.598  0.00  0.00    +0.155 HD
ENDBRANCH   4  13
TORSDOF 1
ENDMDL
MODEL 3
REMARK VINA RESULT:      -8.2      2.728      6.283
REMARK  Name = 2435
REMARK  1 active torsions:
REMARK  status: ('A' for Active; 'I' for Inactive)
REMARK    1  A    between atoms: C_4  and  N_13
REMARK                            x       y       z     vdW  Elec       q    Type
REMARK                         _______ _______ _______ _____ _____    ______ ____
ROOT
ATOM      1 BR   UNL     1      33.080 -14.433 -26.122  0.00  0.00    -0.069 Br
ATOM      2  N   UNL     1      34.011 -17.234 -25.345  0.00  0.00    -0.244 NA
ATOM      3  N   UNL     1      35.040 -18.111 -22.918  0.00  0.00    -0.245 NA
ATOM      4  C   UNL     1      33.921 -14.146 -23.396  0.00  0.00    +0.040 C 
ATOM      5  C   UNL     1      33.784 -15.047 -24.451  0.00  0.00    +0.133 C 
ATOM      6  C   UNL     1      34.153 -16.383 -24.314  0.00  0.00    +0.088 C 
ATOM      7  C   UNL     1      34.435 -14.583 -22.185  0.00  0.00    -0.008 C 
ATOM      8  C   UNL     1      34.673 -16.827 -23.084  0.00  0.00    +0.078 C 
ATOM      9  C   UNL     1      34.807 -15.918 -22.037  0.00  0.00    +0.074 C 
ATOM     10  C   UNL     1      34.383 -18.513 -25.158  0.00  0.00    +0.119 C 
ATOM     11  C   UNL     1      34.889 -18.945 -23.962  0.00  0.00    +0.119 C 
ENDROOT
BRANCH   4  13
ATOM     12  N   UNL     1      32.448 -10.803 -23.104  0.00  0.00    -0.284 N 
ATOM     13  N   UNL     1      33.553 -12.787 -23.520  0.00  0.00    -0.289 N 
ATOM     14  N   UNL     1      31.881 -12.603 -21.844  0.00  0.00    -0.214 NA
ATOM     15  C   UNL     1      31.442 -10.232 -22.261  0.00  0.00    +0.085 C 
ATOM     16  C   UNL     1      31.047 -11.443 -21.406  0.00  0.00    +0.117 C 
ATOM     17  C   UNL     1      32.631 -12.121 -22.806  0.00  0.00    +0.189 C 
ATOM     18  H   UNL     1      32.940 -10.313 -23.801  0.00  0.00    +0.155 HD
ATOM     19  H   UNL     1      34.028 -12.269 -24.210  0.00  0.00    +0.155 HD
ENDBRANCH   4  13
TORSDOF 1
ENDMDL
MODEL 4
REMARK VINA RESULT:      -8.1      2.474      6.600
REMARK  Name = 2435
REMARK  1 active torsions:
REMARK  status: ('A' for Active; 'I' for Inactive)
REMARK    1  A    between atoms: C_4  and  N_13
REMARK                            x       y       z     vdW  Elec       q    Type
REMARK                         _______ _______ _______ _____ _____    ______ ____
ROOT
ATOM      1 BR   UNL     1      34.006 -14.524 -21.337  0.00  0.00    -0.069 Br
ATOM      2  N   UNL     1      34.657 -17.047 -22.926  0.00  0.00    -0.244 NA
ATOM      3  N   UNL     1      34.286 -17.537 -25.635  0.00  0.00    -0.245 NA
ATOM      4  C   UNL     1      33.209 -13.875 -24.013  0.00  0.00    +0.040 C 
ATOM      5  C   UNL     1      33.759 -14.868 -23.204  0.00  0.00    +0.133 C 
ATOM      6  C   UNL     1      34.129 -16.105 -23.726  0.00  0.00    +0.088 C 
ATOM      7  C   UNL     1      33.024 -14.119 -25.366  0.00  0.00    -0.008 C 
ATOM      8  C   UNL     1      33.941 -16.353 -25.098  0.00  0.00    +0.078 C 
ATOM      9  C   UNL     1      33.390 -15.354 -25.898  0.00  0.00    +0.074 C 
ATOM     10  C   UNL     1      34.996 -18.224 -23.482  0.00  0.00    +0.119 C 
ATOM     11  C   UNL     1      34.813 -18.466 -24.817  0.00  0.00    +0.119 C 
ENDROOT
BRANCH   4  13
ATOM     12  N   UNL     1      32.863 -10.338 -23.119  0.00  0.00    -0.284 N 
ATOM     13  N   UNL     1      32.829 -12.616 -23.498  0.00  0.00    -0.289 N 
ATOM     14  N   UNL     1      34.463 -11.199 -24.479  0.00  0.00    -0.214 NA
ATOM     15  C   UNL     1      33.589  -9.153 -23.459  0.00  0.00    +0.085 C 
ATOM     16  C   UNL     1      34.678  -9.723 -24.377  0.00  0.00    +0.117 C 
ATOM     17  C   UNL     1      33.413 -11.427 -23.727  0.00  0.00    +0.189 C 
ATOM     18  H   UNL     1      32.076 -10.364 -22.528  0.00  0.00    +0.155 HD
ATOM     19  H   UNL     1      32.045 -12.608 -22.904  0.00  0.00    +0.155 HD
ENDBRANCH   4  13
TORSDOF 1
ENDMDL
MODEL 5
REMARK VINA RESULT:      -8.1      6.013      8.916
REMARK  Name = 2435
REMARK  1 active torsions:
REMARK  status: ('A' for Active; 'I' for Inactive)
REMARK    1  A    between atoms: C_4  and  N_13
REMARK                            x       y       z     vdW  Elec       q    Type
REMARK                         _______ _______ _______ _____ _____    ______ ____
ROOT
ATOM      1 BR   UNL     1      37.338 -22.352 -16.335  0.00  0.00    -0.069 Br
ATOM      2  N   UNL     1      35.756 -21.470 -18.791  0.00  0.00    -0.244 NA
ATOM      3  N   UNL     1      33.091 -21.955 -19.405  0.00  0.00    -0.245 NA
ATOM      4  C   UNL     1      34.714 -23.413 -15.879  0.00  0.00    +0.040 C 
ATOM      5  C   UNL     1      35.501 -22.677 -16.764  0.00  0.00    +0.133 C 
ATOM      6  C   UNL     1      34.978 -22.177 -17.953  0.00  0.00    +0.088 C 
ATOM      7  C   UNL     1      33.384 -23.655 -16.185  0.00  0.00    -0.008 C 
ATOM      8  C   UNL     1      33.628 -22.422 -18.264  0.00  0.00    +0.078 C 
ATOM      9  C   UNL     1      32.851 -23.160 -17.373  0.00  0.00    +0.074 C 
ATOM     10  C   UNL     1      35.201 -21.011 -19.927  0.00  0.00    +0.119 C 
ATOM     11  C   UNL     1      33.887 -21.250 -20.229  0.00  0.00    +0.119 C 
ENDROOT
BRANCH   4  13
ATOM     12  N   UNL     1      36.363 -25.332 -13.227  0.00  0.00    -0.284 N 
ATOM     13  N   UNL     1      35.231 -23.927 -14.668  0.00  0.00    -0.289 N 
ATOM     14  N   UNL     1      36.368 -25.866 -15.433  0.00  0.00    -0.214 NA
ATOM     15  C   UNL     1      37.146 -26.531 -13.210  0.00  0.00    +0.085 C 
ATOM     16  C   UNL     1      37.152 -26.904 -14.698  0.00  0.00    +0.117 C 
ATOM     17  C   UNL     1      35.974 -25.034 -14.500  0.00  0.00    +0.189 C 
ATOM     18  H   UNL     1      36.138 -24.797 -12.433  0.00  0.00    +0.155 HD
ATOM     19  H   UNL     1      35.023 -23.414 -13.854  0.00  0.00    +0.155 HD
ENDBRANCH   4  13
TORSDOF 1
ENDMDL
MODEL 6
REMARK VINA RESULT:      -7.8     10.948     12.388
REMARK  Name = 2435
REMARK  1 active torsions:
REMARK  status: ('A' for Active; 'I' for Inactive)
REMARK    1  A    between atoms: C_4  and  N_13
REMARK                            x       y       z     vdW  Elec       q    Type
REMARK                         _______ _______ _______ _____ _____    ______ ____
ROOT
ATOM      1 BR   UNL     1      36.427 -22.564 -16.118  0.00  0.00    -0.069 Br
ATOM      2  N   UNL     1      38.822 -24.280 -15.321  0.00  0.00    -0.244 NA
ATOM      3  N   UNL     1      39.093 -25.974 -13.136  0.00  0.00    -0.245 NA
ATOM      4  C   UNL     1      35.562 -23.879 -13.722  0.00  0.00    +0.040 C 
ATOM      5  C   UNL     1      36.621 -23.738 -14.619  0.00  0.00    +0.133 C 
ATOM      6  C   UNL     1      37.815 -24.432 -14.443  0.00  0.00    +0.088 C 
ATOM      7  C   UNL     1      35.697 -24.725 -12.631  0.00  0.00    -0.008 C 
ATOM      8  C   UNL     1      37.953 -25.290 -13.336  0.00  0.00    +0.078 C 
ATOM      9  C   UNL     1      36.889 -25.423 -12.446  0.00  0.00    +0.074 C 
ATOM     10  C   UNL     1      39.954 -24.972 -15.103  0.00  0.00    +0.119 C 
ATOM     11  C   UNL     1      40.087 -25.808 -14.026  0.00  0.00    +0.119 C 
ENDROOT
BRANCH   4  13
ATOM     12  N   UNL     1      32.072 -22.823 -14.091  0.00  0.00    -0.284 N 
ATOM     13  N   UNL     1      34.344 -23.182 -13.886  0.00  0.00    -0.289 N 
ATOM     14  N   UNL     1      32.776 -24.963 -13.821  0.00  0.00    -0.214 NA
ATOM     15  C   UNL     1      30.822 -23.518 -14.110  0.00  0.00    +0.085 C 
ATOM     16  C   UNL     1      31.285 -24.970 -13.931  0.00  0.00    +0.117 C 
ATOM     17  C   UNL     1      33.104 -23.698 -13.925  0.00  0.00    +0.189 C 
ATOM     18  H   UNL     1      32.174 -21.848 -14.185  0.00  0.00    +0.155 HD
ATOM     19  H   UNL     1      34.412 -22.205 -13.982  0.00  0.00    +0.155 HD
ENDBRANCH   4  13
TORSDOF 1
ENDMDL
MODEL 7
REMARK VINA RESULT:      -7.8      8.809     10.318
REMARK  Name = 2435
REMARK  1 active torsions:
REMARK  status: ('A' for Active; 'I' for Inactive)
REMARK    1  A    between atoms: C_4  and  N_13
REMARK                            x       y       z     vdW  Elec       q    Type
REMARK                         _______ _______ _______ _____ _____    ______ ____
ROOT
ATOM      1 BR   UNL     1      33.998 -23.910 -13.120  0.00  0.00    -0.069 Br
ATOM      2  N   UNL     1      31.247 -23.436 -14.354  0.00  0.00    -0.244 NA
ATOM      3  N   UNL     1      30.609 -22.815 -16.986  0.00  0.00    -0.245 NA
ATOM      4  C   UNL     1      34.567 -23.361 -15.875  0.00  0.00    +0.040 C 
ATOM      5  C   UNL     1      33.548 -23.487 -14.932  0.00  0.00    +0.133 C 
ATOM      6  C   UNL     1      32.212 -23.309 -15.282  0.00  0.00    +0.088 C 
ATOM      7  C   UNL     1      34.250 -23.051 -17.189  0.00  0.00    -0.008 C 
ATOM      8  C   UNL     1      31.889 -22.995 -16.614  0.00  0.00    +0.078 C 
ATOM      9  C   UNL     1      32.916 -22.870 -17.548  0.00  0.00    +0.074 C 
ATOM     10  C   UNL     1      29.974 -23.253 -14.746  0.00  0.00    +0.119 C 
ATOM     11  C   UNL     1      29.659 -22.947 -16.043  0.00  0.00    +0.119 C 
ENDROOT
BRANCH   4  13
ATOM     12  N   UNL     1      37.897 -24.619 -15.003  0.00  0.00    -0.284 N 
ATOM     13  N   UNL     1      35.927 -23.538 -15.536  0.00  0.00    -0.289 N 
ATOM     14  N   UNL     1      36.063 -25.903 -15.372  0.00  0.00    -0.214 NA
ATOM     15  C   UNL     1      38.443 -25.927 -14.803  0.00  0.00    +0.085 C 
ATOM     16  C   UNL     1      37.208 -26.805 -15.046  0.00  0.00    +0.117 C 
ATOM     17  C   UNL     1      36.573 -24.696 -15.317  0.00  0.00    +0.189 C 
ATOM     18  H   UNL     1      38.407 -23.781 -14.925  0.00  0.00    +0.155 HD
ATOM     19  H   UNL     1      36.465 -22.717 -15.451  0.00  0.00    +0.155 HD
ENDBRANCH   4  13
TORSDOF 1
ENDMDL
MODEL 8
REMARK VINA RESULT:      -7.7      2.219      6.707
REMARK  Name = 2435
REMARK  1 active torsions:
REMARK  status: ('A' for Active; 'I' for Inactive)
REMARK    1  A    between atoms: C_4  and  N_13
REMARK                            x       y       z     vdW  Elec       q    Type
REMARK                         _______ _______ _______ _____ _____    ______ ____
ROOT
ATOM      1 BR   UNL     1      32.528 -19.132 -21.000  0.00  0.00    -0.069 Br
ATOM      2  N   UNL     1      32.970 -21.501 -19.128  0.00  0.00    -0.244 NA
ATOM      3  N   UNL     1      35.367 -22.650 -18.318  0.00  0.00    -0.245 NA
ATOM      4  C   UNL     1      35.380 -19.404 -20.899  0.00  0.00    +0.040 C 
ATOM      5  C   UNL     1      34.174 -19.926 -20.432  0.00  0.00    +0.133 C 
ATOM      6  C   UNL     1      34.145 -21.015 -19.565  0.00  0.00    +0.088 C 
ATOM      7  C   UNL     1      36.576 -19.977 -20.495  0.00  0.00    -0.008 C 
ATOM      8  C   UNL     1      35.359 -21.597 -19.154  0.00  0.00    +0.078 C 
ATOM      9  C   UNL     1      36.558 -21.067 -19.627  0.00  0.00    +0.074 C 
ATOM     10  C   UNL     1      32.999 -22.555 -18.292  0.00  0.00    +0.119 C 
ATOM     11  C   UNL     1      34.181 -23.121 -17.893  0.00  0.00    +0.119 C 
ENDROOT
BRANCH   4  13
ATOM     12  N   UNL     1      35.225 -17.087 -23.734  0.00  0.00    -0.284 N 
ATOM     13  N   UNL     1      35.426 -18.300 -21.780  0.00  0.00    -0.289 N 
ATOM     14  N   UNL     1      34.679 -19.289 -23.805  0.00  0.00    -0.214 NA
ATOM     15  C   UNL     1      34.843 -17.223 -25.107  0.00  0.00    +0.085 C 
ATOM     16  C   UNL     1      34.475 -18.711 -25.168  0.00  0.00    +0.117 C 
ATOM     17  C   UNL     1      35.103 -18.279 -23.084  0.00  0.00    +0.189 C 
ATOM     18  H   UNL     1      35.532 -16.250 -23.317  0.00  0.00    +0.155 HD
ATOM     19  H   UNL     1      35.729 -17.447 -21.393  0.00  0.00    +0.155 HD
ENDBRANCH   4  13
TORSDOF 1
ENDMDL
MODEL 9
REMARK VINA RESULT:      -7.7      2.324      6.642
REMARK  Name = 2435
REMARK  1 active torsions:
REMARK  status: ('A' for Active; 'I' for Inactive)
REMARK    1  A    between atoms: C_4  and  N_13
REMARK                            x       y       z     vdW  Elec       q    Type
REMARK                         _______ _______ _______ _____ _____    ______ ____
ROOT
ATOM      1 BR   UNL     1      37.079 -19.427 -20.757  0.00  0.00    -0.069 Br
ATOM      2  N   UNL     1      35.736 -21.528 -18.998  0.00  0.00    -0.244 NA
ATOM      3  N   UNL     1      33.039 -22.164 -18.804  0.00  0.00    -0.245 NA
ATOM      4  C   UNL     1      34.296 -19.187 -21.404  0.00  0.00    +0.040 C 
ATOM      5  C   UNL     1      35.223 -19.875 -20.621  0.00  0.00    +0.133 C 
ATOM      6  C   UNL     1      34.824 -20.879 -19.742  0.00  0.00    +0.088 C 
ATOM      7  C   UNL     1      32.950 -19.504 -21.308  0.00  0.00    -0.008 C 
ATOM      8  C   UNL     1      33.458 -21.201 -19.644  0.00  0.00    +0.078 C 
ATOM      9  C   UNL     1      32.541 -20.506 -20.430  0.00  0.00    +0.074 C 
ATOM     10  C   UNL     1      35.297 -22.488 -18.164  0.00  0.00    +0.119 C 
ATOM     11  C   UNL     1      33.967 -22.801 -18.069  0.00  0.00    +0.119 C 
ENDROOT
BRANCH   4  13
ATOM     12  N   UNL     1      34.917 -16.050 -23.193  0.00  0.00    -0.284 N 
ATOM     13  N   UNL     1      34.685 -18.167 -22.300  0.00  0.00    -0.289 N 
ATOM     14  N   UNL     1      33.772 -16.246 -21.244  0.00  0.00    -0.214 NA
ATOM     15  C   UNL     1      34.575 -14.682 -22.946  0.00  0.00    +0.085 C 
ATOM     16  C   UNL     1      33.795 -14.803 -21.631  0.00  0.00    +0.117 C 
ATOM     17  C   UNL     1      34.435 -16.850 -22.200  0.00  0.00    +0.189 C 
ATOM     18  H   UNL     1      35.430 -16.368 -23.970  0.00  0.00    +0.155 HD
ATOM     19  H   UNL     1      35.200 -18.453 -23.089  0.00  0.00    +0.155 HD
ENDBRANCH   4  13
TORSDOF 1
ENDMDL
