MODEL 1
REMARK VINA RESULT:      -9.2      0.000      0.000
REMARK  Name = 24832019
REMARK  3 active torsions:
REMARK  status: ('A' for Active; 'I' for Inactive)
REMARK    1  A    between atoms: C_3  and  C_11
REMARK    2  A    between atoms: C_10  and  O_20
REMARK    3  A    between atoms: C_12  and  N_17
REMARK                            x       y       z     vdW  Elec       q    Type
REMARK                         _______ _______ _______ _____ _____    ______ ____
ROOT
ATOM      1  S   UNL     1      34.273 -17.645 -24.394  0.00  0.00    -0.089 S 
ATOM      2  N   UNL     1      34.184 -16.126 -22.400  0.00  0.00    -0.295 N 
ATOM      3  C   UNL     1      34.381 -17.389 -22.706  0.00  0.00    +0.149 C 
ATOM      4  C   UNL     1      33.940 -15.298 -23.472  0.00  0.00    +0.055 C 
ATOM      5  C   UNL     1      33.950 -15.974 -24.685  0.00  0.00    +0.043 C 
ATOM      6  C   UNL     1      34.223 -15.648 -21.034  0.00  0.00    +0.113 C 
ATOM      7  C   UNL     1      33.700 -13.918 -23.418  0.00  0.00    +0.018 C 
ATOM      8  C   UNL     1      33.721 -15.300 -25.894  0.00  0.00    +0.044 C 
ATOM      9  C   UNL     1      33.471 -13.241 -24.620  0.00  0.00    +0.038 C 
ATOM     10  C   UNL     1      33.481 -13.922 -25.838  0.00  0.00    +0.134 C 
ENDROOT
BRANCH   3  11
ATOM     11  C   UNL     1      34.655 -18.472 -21.799  0.00  0.00    +0.006 C 
ATOM     12  C   UNL     1      35.188 -20.571 -20.039  0.00  0.00    +0.048 C 
ATOM     13  C   UNL     1      35.971 -18.766 -21.441  0.00  0.00    -0.001 C 
ATOM     14  C   UNL     1      33.605 -19.228 -21.276  0.00  0.00    -0.001 C 
ATOM     15  C   UNL     1      36.237 -19.816 -20.561  0.00  0.00    +0.014 C 
ATOM     16  C   UNL     1      33.871 -20.278 -20.397  0.00  0.00    +0.014 C 
BRANCH  12  17
ATOM     17  N   UNL     1      35.456 -21.631 -19.149  0.00  0.00    -0.304 N 
ATOM     18  C   UNL     1      36.693 -21.661 -18.396  0.00  0.00    +0.112 C 
ATOM     19  C   UNL     1      34.492 -22.698 -18.966  0.00  0.00    +0.112 C 
ENDBRANCH  12  17
ENDBRANCH   3  11
BRANCH  10  20
ATOM     20  O   UNL     1      33.256 -13.235 -26.994  0.00  0.00    -0.505 OA
ATOM     21  H   UNL     1      32.389 -13.179 -27.344  0.00  0.00    +0.292 HD
ENDBRANCH  10  20
TORSDOF 3
ENDMDL
MODEL 2
REMARK VINA RESULT:      -9.0      1.088      1.760
REMARK  Name = 24832019
REMARK  3 active torsions:
REMARK  status: ('A' for Active; 'I' for Inactive)
REMARK    1  A    between atoms: C_3  and  C_11
REMARK    2  A    between atoms: C_10  and  O_20
REMARK    3  A    between atoms: C_12  and  N_17
REMARK                            x       y       z     vdW  Elec       q    Type
REMARK                         _______ _______ _______ _____ _____    ______ ____
ROOT
ATOM      1  S   UNL     1      34.383 -15.570 -21.890  0.00  0.00    -0.089 S 
ATOM      2  N   UNL     1      34.238 -17.137 -23.844  0.00  0.00    -0.295 N 
ATOM      3  C   UNL     1      34.447 -17.149 -22.545  0.00  0.00    +0.149 C 
ATOM      4  C   UNL     1      34.017 -15.892 -24.386  0.00  0.00    +0.055 C 
ATOM      5  C   UNL     1      34.061 -14.877 -23.438  0.00  0.00    +0.043 C 
ATOM      6  C   UNL     1      34.240 -18.349 -24.636  0.00  0.00    +0.113 C 
ATOM      7  C   UNL     1      33.770 -15.607 -25.737  0.00  0.00    +0.018 C 
ATOM      8  C   UNL     1      33.859 -13.537 -23.800  0.00  0.00    +0.044 C 
ATOM      9  C   UNL     1      33.569 -14.272 -26.102  0.00  0.00    +0.038 C 
ATOM     10  C   UNL     1      33.613 -13.254 -25.149  0.00  0.00    +0.134 C 
ENDROOT
BRANCH   3  11
ATOM     11  C   UNL     1      34.703 -18.296 -21.715  0.00  0.00    +0.006 C 
ATOM     12  C   UNL     1      35.200 -20.519 -20.104  0.00  0.00    +0.048 C 
ATOM     13  C   UNL     1      36.014 -18.639 -21.385  0.00  0.00    -0.001 C 
ATOM     14  C   UNL     1      33.640 -19.064 -21.239  0.00  0.00    -0.001 C 
ATOM     15  C   UNL     1      36.262 -19.751 -20.580  0.00  0.00    +0.014 C 
ATOM     16  C   UNL     1      33.888 -20.176 -20.434  0.00  0.00    +0.014 C 
BRANCH  12  17
ATOM     17  N   UNL     1      35.451 -21.642 -19.289  0.00  0.00    -0.304 N 
ATOM     18  C   UNL     1      36.634 -21.693 -18.454  0.00  0.00    +0.112 C 
ATOM     19  C   UNL     1      34.522 -22.754 -19.266  0.00  0.00    +0.112 C 
ENDBRANCH  12  17
ENDBRANCH   3  11
BRANCH  10  20
ATOM     20  O   UNL     1      33.412 -11.962 -25.534  0.00  0.00    -0.505 OA
ATOM     21  H   UNL     1      34.139 -11.434 -25.799  0.00  0.00    +0.292 HD
ENDBRANCH  10  20
TORSDOF 3
ENDMDL
MODEL 3
REMARK VINA RESULT:      -8.8      4.024      8.513
REMARK  Name = 24832019
REMARK  3 active torsions:
REMARK  status: ('A' for Active; 'I' for Inactive)
REMARK    1  A    between atoms: C_3  and  C_11
REMARK    2  A    between atoms: C_10  and  O_20
REMARK    3  A    between atoms: C_12  and  N_17
REMARK                            x       y       z     vdW  Elec       q    Type
REMARK                         _______ _______ _______ _____ _____    ______ ____
ROOT
ATOM      1  S   UNL     1      34.198 -14.537 -22.175  0.00  0.00    -0.089 S 
ATOM      2  N   UNL     1      33.496 -14.388 -24.579  0.00  0.00    -0.295 N 
ATOM      3  C   UNL     1      33.567 -13.649 -23.494  0.00  0.00    +0.149 C 
ATOM      4  C   UNL     1      33.933 -15.684 -24.430  0.00  0.00    +0.055 C 
ATOM      5  C   UNL     1      34.370 -15.959 -23.140  0.00  0.00    +0.043 C 
ATOM      6  C   UNL     1      32.994 -13.869 -25.834  0.00  0.00    +0.113 C 
ATOM      7  C   UNL     1      33.962 -16.670 -25.426  0.00  0.00    +0.018 C 
ATOM      8  C   UNL     1      34.853 -17.230 -22.793  0.00  0.00    +0.044 C 
ATOM      9  C   UNL     1      34.443 -17.938 -25.085  0.00  0.00    +0.038 C 
ATOM     10  C   UNL     1      34.881 -18.212 -23.789  0.00  0.00    +0.134 C 
ENDROOT
BRANCH   3  11
ATOM     11  C   UNL     1      33.184 -12.269 -23.353  0.00  0.00    +0.006 C 
ATOM     12  C   UNL     1      32.440  -9.593 -23.079  0.00  0.00    +0.048 C 
ATOM     13  C   UNL     1      32.113 -11.923 -22.529  0.00  0.00    -0.001 C 
ATOM     14  C   UNL     1      33.884 -11.276 -24.039  0.00  0.00    -0.001 C 
ATOM     15  C   UNL     1      31.741 -10.586 -22.393  0.00  0.00    +0.014 C 
ATOM     16  C   UNL     1      33.512  -9.939 -23.903  0.00  0.00    +0.014 C 
BRANCH  12  17
ATOM     17  N   UNL     1      32.066  -8.241 -22.940  0.00  0.00    -0.304 N 
ATOM     18  C   UNL     1      30.959  -7.705 -23.705  0.00  0.00    +0.112 C 
ATOM     19  C   UNL     1      32.774  -7.374 -22.019  0.00  0.00    +0.112 C 
ENDBRANCH  12  17
ENDBRANCH   3  11
BRANCH  10  20
ATOM     20  O   UNL     1      35.345 -19.458 -23.486  0.00  0.00    -0.505 OA
ATOM     21  H   UNL     1      35.560 -20.058 -24.172  0.00  0.00    +0.292 HD
ENDBRANCH  10  20
TORSDOF 3
ENDMDL
MODEL 4
REMARK VINA RESULT:      -8.7      3.531      8.046
REMARK  Name = 24832019
REMARK  3 active torsions:
REMARK  status: ('A' for Active; 'I' for Inactive)
REMARK    1  A    between atoms: C_3  and  C_11
REMARK    2  A    between atoms: C_10  and  O_20
REMARK    3  A    between atoms: C_12  and  N_17
REMARK                            x       y       z     vdW  Elec       q    Type
REMARK                         _______ _______ _______ _____ _____    ______ ____
ROOT
ATOM      1  S   UNL     1      33.442 -14.935 -25.132  0.00  0.00    -0.089 S 
ATOM      2  N   UNL     1      34.237 -14.934 -22.752  0.00  0.00    -0.295 N 
ATOM      3  C   UNL     1      33.700 -14.131 -23.644  0.00  0.00    +0.149 C 
ATOM      4  C   UNL     1      34.472 -16.217 -23.191  0.00  0.00    +0.055 C 
ATOM      5  C   UNL     1      34.088 -16.412 -24.511  0.00  0.00    +0.043 C 
ATOM      6  C   UNL     1      34.555 -14.493 -21.410  0.00  0.00    +0.113 C 
ATOM      7  C   UNL     1      35.033 -17.261 -22.441  0.00  0.00    +0.018 C 
ATOM      8  C   UNL     1      34.249 -17.657 -25.137  0.00  0.00    +0.044 C 
ATOM      9  C   UNL     1      35.195 -18.504 -23.061  0.00  0.00    +0.038 C 
ATOM     10  C   UNL     1      34.809 -18.698 -24.388  0.00  0.00    +0.134 C 
ENDROOT
BRANCH   3  11
ATOM     11  C   UNL     1      33.347 -12.747 -23.469  0.00  0.00    +0.006 C 
ATOM     12  C   UNL     1      32.663 -10.063 -23.133  0.00  0.00    +0.048 C 
ATOM     13  C   UNL     1      34.049 -11.756 -24.157  0.00  0.00    -0.001 C 
ATOM     14  C   UNL     1      32.303 -12.395 -22.613  0.00  0.00    -0.001 C 
ATOM     15  C   UNL     1      33.706 -10.414 -23.988  0.00  0.00    +0.014 C 
ATOM     16  C   UNL     1      31.961 -11.053 -22.444  0.00  0.00    +0.014 C 
BRANCH  12  17
ATOM     17  N   UNL     1      32.317  -8.706 -22.962  0.00  0.00    -0.304 N 
ATOM     18  C   UNL     1      31.126  -8.170 -23.588  0.00  0.00    +0.112 C 
ATOM     19  C   UNL     1      33.140  -7.835 -22.148  0.00  0.00    +0.112 C 
ENDBRANCH  12  17
ENDBRANCH   3  11
BRANCH  10  20
ATOM     20  O   UNL     1      34.978 -19.921 -24.965  0.00  0.00    -0.505 OA
ATOM     21  H   UNL     1      35.096 -19.990 -25.892  0.00  0.00    +0.292 HD
ENDBRANCH  10  20
TORSDOF 3
ENDMDL
MODEL 5
REMARK VINA RESULT:      -8.6      3.432      7.700
REMARK  Name = 24832019
REMARK  3 active torsions:
REMARK  status: ('A' for Active; 'I' for Inactive)
REMARK    1  A    between atoms: C_3  and  C_11
REMARK    2  A    between atoms: C_10  and  O_20
REMARK    3  A    between atoms: C_12  and  N_17
REMARK                            x       y       z     vdW  Elec       q    Type
REMARK                         _______ _______ _______ _____ _____    ______ ____
ROOT
ATOM      1  S   UNL     1      32.945 -19.387 -20.994  0.00  0.00    -0.089 S 
ATOM      2  N   UNL     1      35.421 -19.048 -21.221  0.00  0.00    -0.295 N 
ATOM      3  C   UNL     1      34.283 -18.528 -21.626  0.00  0.00    +0.149 C 
ATOM      4  C   UNL     1      35.299 -20.143 -20.395  0.00  0.00    +0.055 C 
ATOM      5  C   UNL     1      33.976 -20.487 -20.151  0.00  0.00    +0.043 C 
ATOM      6  C   UNL     1      36.702 -18.503 -21.617  0.00  0.00    +0.113 C 
ATOM      7  C   UNL     1      36.351 -20.876 -19.829  0.00  0.00    +0.018 C 
ATOM      8  C   UNL     1      33.649 -21.577 -19.331  0.00  0.00    +0.044 C 
ATOM      9  C   UNL     1      36.030 -21.965 -19.012  0.00  0.00    +0.038 C 
ATOM     10  C   UNL     1      34.701 -22.309 -18.767  0.00  0.00    +0.134 C 
ENDROOT
BRANCH   3  11
ATOM     11  C   UNL     1      34.104 -17.389 -22.487  0.00  0.00    +0.006 C 
ATOM     12  C   UNL     1      33.756 -15.183 -24.160  0.00  0.00    +0.048 C 
ATOM     13  C   UNL     1      34.330 -17.511 -23.858  0.00  0.00    -0.001 C 
ATOM     14  C   UNL     1      33.704 -16.165 -21.952  0.00  0.00    -0.001 C 
ATOM     15  C   UNL     1      34.156 -16.407 -24.694  0.00  0.00    +0.014 C 
ATOM     16  C   UNL     1      33.530 -15.061 -22.788  0.00  0.00    +0.014 C 
BRANCH  12  17
ATOM     17  N   UNL     1      33.579 -14.068 -25.004  0.00  0.00    -0.304 N 
ATOM     18  C   UNL     1      33.176 -14.249 -26.383  0.00  0.00    +0.112 C 
ATOM     19  C   UNL     1      33.785 -12.725 -24.499  0.00  0.00    +0.112 C 
ENDBRANCH  12  17
ENDBRANCH   3  11
BRANCH  10  20
ATOM     20  O   UNL     1      34.418 -23.374 -17.965  0.00  0.00    -0.505 OA
ATOM     21  H   UNL     1      34.183 -24.198 -18.345  0.00  0.00    +0.292 HD
ENDBRANCH  10  20
TORSDOF 3
ENDMDL
MODEL 6
REMARK VINA RESULT:      -8.2      3.866      6.039
REMARK  Name = 24832019
REMARK  3 active torsions:
REMARK  status: ('A' for Active; 'I' for Inactive)
REMARK    1  A    between atoms: C_3  and  C_11
REMARK    2  A    between atoms: C_10  and  O_20
REMARK    3  A    between atoms: C_12  and  N_17
REMARK                            x       y       z     vdW  Elec       q    Type
REMARK                         _______ _______ _______ _____ _____    ______ ____
ROOT
ATOM      1  S   UNL     1      34.208 -11.064 -24.577  0.00  0.00    -0.089 S 
ATOM      2  N   UNL     1      32.586 -11.709 -22.774  0.00  0.00    -0.295 N 
ATOM      3  C   UNL     1      33.446 -12.251 -23.608  0.00  0.00    +0.149 C 
ATOM      4  C   UNL     1      32.483 -10.339 -22.853  0.00  0.00    +0.055 C 
ATOM      5  C   UNL     1      33.322  -9.792 -23.815  0.00  0.00    +0.043 C 
ATOM      6  C   UNL     1      31.810 -12.502 -21.844  0.00  0.00    +0.113 C 
ATOM      7  C   UNL     1      31.645  -9.524 -22.080  0.00  0.00    +0.018 C 
ATOM      8  C   UNL     1      33.359  -8.408 -24.044  0.00  0.00    +0.044 C 
ATOM      9  C   UNL     1      31.678  -8.144 -22.304  0.00  0.00    +0.038 C 
ATOM     10  C   UNL     1      32.521  -7.596 -23.271  0.00  0.00    +0.134 C 
ENDROOT
BRANCH   3  11
ATOM     11  C   UNL     1      33.761 -13.648 -23.749  0.00  0.00    +0.006 C 
ATOM     12  C   UNL     1      34.372 -16.357 -24.023  0.00  0.00    +0.048 C 
ATOM     13  C   UNL     1      33.373 -14.338 -24.897  0.00  0.00    -0.001 C 
ATOM     14  C   UNL     1      34.455 -14.313 -22.737  0.00  0.00    -0.001 C 
ATOM     15  C   UNL     1      33.678 -15.693 -25.034  0.00  0.00    +0.014 C 
ATOM     16  C   UNL     1      34.760 -15.667 -22.874  0.00  0.00    +0.014 C 
BRANCH  12  17
ATOM     17  N   UNL     1      34.681 -17.726 -24.162  0.00  0.00    -0.304 N 
ATOM     18  C   UNL     1      35.590 -18.369 -23.236  0.00  0.00    +0.112 C 
ATOM     19  C   UNL     1      34.083 -18.510 -25.224  0.00  0.00    +0.112 C 
ENDBRANCH  12  17
ENDBRANCH   3  11
BRANCH  10  20
ATOM     20  O   UNL     1      32.533  -6.247 -23.467  0.00  0.00    -0.505 OA
ATOM     21  H   UNL     1      32.108  -5.878 -24.216  0.00  0.00    +0.292 HD
ENDBRANCH  10  20
TORSDOF 3
ENDMDL
MODEL 7
REMARK VINA RESULT:      -8.1      3.483      7.740
REMARK  Name = 24832019
REMARK  3 active torsions:
REMARK  status: ('A' for Active; 'I' for Inactive)
REMARK    1  A    between atoms: C_3  and  C_11
REMARK    2  A    between atoms: C_10  and  O_20
REMARK    3  A    between atoms: C_12  and  N_17
REMARK                            x       y       z     vdW  Elec       q    Type
REMARK                         _______ _______ _______ _____ _____    ______ ____
ROOT
ATOM      1  S   UNL     1      36.463 -18.821 -20.998  0.00  0.00    -0.089 S 
ATOM      2  N   UNL     1      34.053 -19.518 -21.025  0.00  0.00    -0.295 N 
ATOM      3  C   UNL     1      34.860 -18.629 -21.562  0.00  0.00    +0.149 C 
ATOM      4  C   UNL     1      34.653 -20.392 -20.147  0.00  0.00    +0.055 C 
ATOM      5  C   UNL     1      36.014 -20.157 -20.000  0.00  0.00    +0.043 C 
ATOM      6  C   UNL     1      32.641 -19.567 -21.339  0.00  0.00    +0.113 C 
ATOM      7  C   UNL     1      34.021 -21.427 -19.445  0.00  0.00    +0.018 C 
ATOM      8  C   UNL     1      36.799 -20.946 -19.147  0.00  0.00    +0.044 C 
ATOM      9  C   UNL     1      34.799 -22.217 -18.593  0.00  0.00    +0.038 C 
ATOM     10  C   UNL     1      36.166 -21.979 -18.446  0.00  0.00    +0.134 C 
ENDROOT
BRANCH   3  11
ATOM     11  C   UNL     1      34.515 -17.598 -22.506  0.00  0.00    +0.006 C 
ATOM     12  C   UNL     1      33.845 -15.601 -24.336  0.00  0.00    +0.048 C 
ATOM     13  C   UNL     1      34.569 -17.860 -23.874  0.00  0.00    -0.001 C 
ATOM     14  C   UNL     1      34.125 -16.338 -22.051  0.00  0.00    -0.001 C 
ATOM     15  C   UNL     1      34.234 -16.861 -24.789  0.00  0.00    +0.014 C 
ATOM     16  C   UNL     1      33.790 -15.339 -22.966  0.00  0.00    +0.014 C 
BRANCH  12  17
ATOM     17  N   UNL     1      33.505 -14.592 -25.260  0.00  0.00    -0.304 N 
ATOM     18  C   UNL     1      33.091 -14.938 -26.604  0.00  0.00    +0.112 C 
ATOM     19  C   UNL     1      33.553 -13.196 -24.873  0.00  0.00    +0.112 C 
ENDBRANCH  12  17
ENDBRANCH   3  11
BRANCH  10  20
ATOM     20  O   UNL     1      36.900 -22.766 -17.609  0.00  0.00    -0.505 OA
ATOM     21  H   UNL     1      37.750 -22.489 -17.330  0.00  0.00    +0.292 HD
ENDBRANCH  10  20
TORSDOF 3
ENDMDL
MODEL 8
REMARK VINA RESULT:      -8.1      4.298      6.758
REMARK  Name = 24832019
REMARK  3 active torsions:
REMARK  status: ('A' for Active; 'I' for Inactive)
REMARK    1  A    between atoms: C_3  and  C_11
REMARK    2  A    between atoms: C_10  and  O_20
REMARK    3  A    between atoms: C_12  and  N_17
REMARK                            x       y       z     vdW  Elec       q    Type
REMARK                         _______ _______ _______ _____ _____    ______ ____
ROOT
ATOM      1  S   UNL     1      31.948 -11.165 -22.325  0.00  0.00    -0.089 S 
ATOM      2  N   UNL     1      33.807 -10.611 -23.916  0.00  0.00    -0.295 N 
ATOM      3  C   UNL     1      33.216 -11.649 -23.366  0.00  0.00    +0.149 C 
ATOM      4  C   UNL     1      33.294  -9.387 -23.549  0.00  0.00    +0.055 C 
ATOM      5  C   UNL     1      32.236  -9.495 -22.654  0.00  0.00    +0.043 C 
ATOM      6  C   UNL     1      34.913 -10.752 -24.838  0.00  0.00    +0.113 C 
ATOM      7  C   UNL     1      33.741  -8.134 -23.989  0.00  0.00    +0.018 C 
ATOM      8  C   UNL     1      31.582  -8.355 -22.164  0.00  0.00    +0.044 C 
ATOM      9  C   UNL     1      33.092  -6.994 -23.503  0.00  0.00    +0.038 C 
ATOM     10  C   UNL     1      32.031  -7.104 -22.605  0.00  0.00    +0.134 C 
ENDROOT
BRANCH   3  11
ATOM     11  C   UNL     1      33.536 -13.038 -23.563  0.00  0.00    +0.006 C 
ATOM     12  C   UNL     1      34.157 -15.731 -23.946  0.00  0.00    +0.048 C 
ATOM     13  C   UNL     1      33.154 -13.682 -24.740  0.00  0.00    -0.001 C 
ATOM     14  C   UNL     1      34.229 -13.741 -22.578  0.00  0.00    -0.001 C 
ATOM     15  C   UNL     1      33.464 -15.028 -24.931  0.00  0.00    +0.014 C 
ATOM     16  C   UNL     1      34.540 -15.088 -22.769  0.00  0.00    +0.014 C 
BRANCH  12  17
ATOM     17  N   UNL     1      34.473 -17.092 -24.140  0.00  0.00    -0.304 N 
ATOM     18  C   UNL     1      34.189 -17.737 -25.405  0.00  0.00    +0.112 C 
ATOM     19  C   UNL     1      35.097 -17.859 -23.080  0.00  0.00    +0.112 C 
ENDBRANCH  12  17
ENDBRANCH   3  11
BRANCH  10  20
ATOM     20  O   UNL     1      31.416  -5.976 -22.148  0.00  0.00    -0.505 OA
ATOM     21  H   UNL     1      31.383  -5.210 -22.687  0.00  0.00    +0.292 HD
ENDBRANCH  10  20
TORSDOF 3
ENDMDL
MODEL 9
REMARK VINA RESULT:      -7.9      5.650     10.582
REMARK  Name = 24832019
REMARK  3 active torsions:
REMARK  status: ('A' for Active; 'I' for Inactive)
REMARK    1  A    between atoms: C_3  and  C_11
REMARK    2  A    between atoms: C_10  and  O_20
REMARK    3  A    between atoms: C_12  and  N_17
REMARK                            x       y       z     vdW  Elec       q    Type
REMARK                         _______ _______ _______ _____ _____    ______ ____
ROOT
ATOM      1  S   UNL     1      33.812 -11.470 -24.319  0.00  0.00    -0.089 S 
ATOM      2  N   UNL     1      32.240 -11.302 -22.371  0.00  0.00    -0.295 N 
ATOM      3  C   UNL     1      32.770 -10.556 -23.316  0.00  0.00    +0.149 C 
ATOM      4  C   UNL     1      32.623 -12.623 -22.388  0.00  0.00    +0.055 C 
ATOM      5  C   UNL     1      33.510 -12.912 -23.418  0.00  0.00    +0.043 C 
ATOM      6  C   UNL     1      31.321 -10.765 -21.389  0.00  0.00    +0.113 C 
ATOM      7  C   UNL     1      32.205 -13.621 -21.496  0.00  0.00    +0.018 C 
ATOM      8  C   UNL     1      34.015 -14.208 -23.599  0.00  0.00    +0.044 C 
ATOM      9  C   UNL     1      32.706 -14.915 -21.673  0.00  0.00    +0.038 C 
ATOM     10  C   UNL     1      33.596 -15.203 -22.708  0.00  0.00    +0.134 C 
ENDROOT
BRANCH   3  11
ATOM     11  C   UNL     1      32.553  -9.152 -23.541  0.00  0.00    +0.006 C 
ATOM     12  C   UNL     1      32.132  -6.428 -23.976  0.00  0.00    +0.048 C 
ATOM     13  C   UNL     1      31.263  -8.673 -23.768  0.00  0.00    -0.001 C 
ATOM     14  C   UNL     1      33.633  -8.268 -23.532  0.00  0.00    -0.001 C 
ATOM     15  C   UNL     1      31.053  -7.311 -23.986  0.00  0.00    +0.014 C 
ATOM     16  C   UNL     1      33.423  -6.907 -23.750  0.00  0.00    +0.014 C 
BRANCH  12  17
ATOM     17  N   UNL     1      31.919  -5.051 -24.196  0.00  0.00    -0.304 N 
ATOM     18  C   UNL     1      32.280  -4.446 -25.461  0.00  0.00    +0.112 C 
ATOM     19  C   UNL     1      31.324  -4.227 -23.162  0.00  0.00    +0.112 C 
ENDBRANCH  12  17
ENDBRANCH   3  11
BRANCH  10  20
ATOM     20  O   UNL     1      34.067 -16.474 -22.856  0.00  0.00    -0.505 OA
ATOM     21  H   UNL     1      33.594 -17.194 -22.490  0.00  0.00    +0.292 HD
ENDBRANCH  10  20
TORSDOF 3
ENDMDL
