MODEL 1
REMARK VINA RESULT:      -7.1      0.000      0.000
REMARK  Name = 9822750
REMARK  11 active torsions:
REMARK  status: ('A' for Active; 'I' for Inactive)
REMARK    1  A    between atoms: C_2  and  C_10
REMARK    2  A    between atoms: C_3  and  C_17
REMARK    3  A    between atoms: C_4  and  C_22
REMARK    4  A    between atoms: C_5  and  C_25
REMARK    5  A    between atoms: C_17  and  O_18
REMARK    6  A    between atoms: O_18  and  C_19
REMARK    7  A    between atoms: C_22  and  O_23
REMARK    8  A    between atoms: C_25  and  O_26
REMARK    9  A    between atoms: O_26  and  C_27
REMARK   10  A    between atoms: C_27  and  C_28
REMARK   11  A    between atoms: C_28  and  N_29
REMARK                            x       y       z     vdW  Elec       q    Type
REMARK                         _______ _______ _______ _____ _____    ______ ____
ROOT
ATOM      1  N   UNL     1      31.639 -11.272 -21.462  0.00  0.00    -0.332 N 
ATOM      2  C   UNL     1      33.102  -9.046 -22.430  0.00  0.00    +0.012 C 
ATOM      3  C   UNL     1      33.128 -10.426 -23.095  0.00  0.00    +0.074 C 
ATOM      4  C   UNL     1      32.342  -9.042 -21.099  0.00  0.00    +0.085 C 
ATOM      5  C   UNL     1      32.393 -11.452 -22.609  0.00  0.00    +0.128 C 
ATOM      6  C   UNL     1      31.637 -10.120 -20.691  0.00  0.00    +0.028 C 
ATOM      7  C   UNL     1      30.819 -10.202 -19.431  0.00  0.00    +0.047 C 
ATOM      8  H   UNL     1      31.063 -12.017 -21.171  0.00  0.00    +0.147 HD
ENDROOT
BRANCH   2  10
ATOM      9 CL   UNL     1      34.985  -6.966 -23.715  0.00  0.00    -0.082 Cl
ATOM     10  C   UNL     1      32.503  -8.036 -23.366  0.00  0.00    +0.011 C 
ATOM     11  C   UNL     1      33.284  -7.063 -23.989  0.00  0.00    +0.058 C 
ATOM     12  C   UNL     1      31.130  -8.089 -23.606  0.00  0.00    +0.001 C 
ATOM     13  C   UNL     1      32.690  -6.142 -24.853  0.00  0.00    +0.011 C 
ATOM     14  C   UNL     1      30.538  -7.169 -24.471  0.00  0.00    +0.000 C 
ATOM     15  C   UNL     1      31.317  -6.195 -25.094  0.00  0.00    +0.001 C 
ENDBRANCH   2  10
BRANCH   3  17
ATOM     16  O   UNL     1      35.193 -10.229 -24.242  0.00  0.00    -0.245 OA
ATOM     17  C   UNL     1      34.029 -10.584 -24.248  0.00  0.00    +0.339 C 
BRANCH  17  18
ATOM     18  O   UNL     1      33.335 -11.168 -25.255  0.00  0.00    -0.446 OA
BRANCH  18  19
ATOM     19  C   UNL     1      34.135 -11.856 -26.223  0.00  0.00    +0.209 C 
ATOM     20  C   UNL     1      33.317 -12.974 -26.833  0.00  0.00    +0.051 C 
ENDBRANCH  18  19
ENDBRANCH  17  18
ENDBRANCH   3  17
BRANCH   4  22
ATOM     21  O   UNL     1      33.437  -7.582 -19.585  0.00  0.00    -0.245 OA
ATOM     22  C   UNL     1      32.464  -7.828 -20.275  0.00  0.00    +0.342 C 
BRANCH  22  23
ATOM     23  O   UNL     1      31.340  -7.088 -20.435  0.00  0.00    -0.441 OA
ATOM     24  C   UNL     1      31.551  -5.766 -20.941  0.00  0.00    +0.256 C 
ENDBRANCH  22  23
ENDBRANCH   4  22
BRANCH   5  25
ATOM     25  C   UNL     1      32.310 -12.827 -23.216  0.00  0.00    +0.166 C 
BRANCH  25  26
ATOM     26  O   UNL     1      33.108 -13.723 -22.467  0.00  0.00    -0.354 OA
BRANCH  26  27
ATOM     27  C   UNL     1      34.227 -14.187 -23.215  0.00  0.00    +0.119 C 
BRANCH  27  28
ATOM     28  C   UNL     1      34.637 -15.551 -22.686  0.00  0.00    -0.054 C 
BRANCH  28  29
ATOM     29  N   UNL     1      35.363 -16.299 -23.702  0.00  0.00    +0.382 N 
ATOM     30  H   UNL     1      36.345 -16.372 -23.433  0.00  0.00    -0.089 HD
ATOM     31  H   UNL     1      35.291 -15.815 -24.597  0.00  0.00    -0.089 HD
ATOM     32  H   UNL     1      34.964 -17.233 -23.787  0.00  0.00    -0.089 HD
ENDBRANCH  28  29
ENDBRANCH  27  28
ENDBRANCH  26  27
ENDBRANCH  25  26
ENDBRANCH   5  25
TORSDOF 11
ENDMDL
MODEL 2
REMARK VINA RESULT:      -6.8     13.958     16.959
REMARK  Name = 9822750
REMARK  11 active torsions:
REMARK  status: ('A' for Active; 'I' for Inactive)
REMARK    1  A    between atoms: C_2  and  C_10
REMARK    2  A    between atoms: C_3  and  C_17
REMARK    3  A    between atoms: C_4  and  C_22
REMARK    4  A    between atoms: C_5  and  C_25
REMARK    5  A    between atoms: C_17  and  O_18
REMARK    6  A    between atoms: O_18  and  C_19
REMARK    7  A    between atoms: C_22  and  O_23
REMARK    8  A    between atoms: C_25  and  O_26
REMARK    9  A    between atoms: O_26  and  C_27
REMARK   10  A    between atoms: C_27  and  C_28
REMARK   11  A    between atoms: C_28  and  N_29
REMARK                            x       y       z     vdW  Elec       q    Type
REMARK                         _______ _______ _______ _____ _____    ______ ____
ROOT
ATOM      1  N   UNL     1      33.803 -22.955 -17.479  0.00  0.00    -0.332 N 
ATOM      2  C   UNL     1      35.069 -23.200 -14.955  0.00  0.00    +0.012 C 
ATOM      3  C   UNL     1      33.579 -23.477 -15.182  0.00  0.00    +0.074 C 
ATOM      4  C   UNL     1      35.759 -22.616 -16.192  0.00  0.00    +0.085 C 
ATOM      5  C   UNL     1      33.025 -23.371 -16.411  0.00  0.00    +0.128 C 
ATOM      6  C   UNL     1      35.122 -22.542 -17.382  0.00  0.00    +0.028 C 
ATOM      7  C   UNL     1      35.724 -22.034 -18.664  0.00  0.00    +0.047 C 
ATOM      8  H   UNL     1      33.388 -22.951 -18.373  0.00  0.00    +0.147 HD
ENDROOT
BRANCH   2  10
ATOM      9 CL   UNL     1      36.164 -23.336 -12.073  0.00  0.00    -0.082 Cl
ATOM     10  C   UNL     1      35.766 -24.458 -14.525  0.00  0.00    +0.011 C 
ATOM     11  C   UNL     1      36.289 -24.602 -13.240  0.00  0.00    +0.058 C 
ATOM     12  C   UNL     1      35.882 -25.499 -15.446  0.00  0.00    +0.001 C 
ATOM     13  C   UNL     1      36.930 -25.787 -12.877  0.00  0.00    +0.011 C 
ATOM     14  C   UNL     1      36.522 -26.684 -15.082  0.00  0.00    +0.000 C 
ATOM     15  C   UNL     1      37.046 -26.828 -13.798  0.00  0.00    +0.001 C 
ENDBRANCH   2  10
BRANCH   3  17
ATOM     16  O   UNL     1      32.727 -23.105 -13.002  0.00  0.00    -0.245 OA
ATOM     17  C   UNL     1      32.784 -23.813 -13.990  0.00  0.00    +0.339 C 
BRANCH  17  18
ATOM     18  O   UNL     1      32.167 -25.001 -14.208  0.00  0.00    -0.446 OA
BRANCH  18  19
ATOM     19  C   UNL     1      30.885 -25.141 -13.587  0.00  0.00    +0.209 C 
ATOM     20  C   UNL     1      29.892 -25.641 -14.615  0.00  0.00    +0.051 C 
ENDBRANCH  18  19
ENDBRANCH  17  18
ENDBRANCH   3  17
BRANCH   4  22
ATOM     21  O   UNL     1      37.528 -21.071 -16.516  0.00  0.00    -0.245 OA
ATOM     22  C   UNL     1      37.124 -22.098 -16.001  0.00  0.00    +0.342 C 
BRANCH  22  23
ATOM     23  O   UNL     1      37.793 -22.946 -15.184  0.00  0.00    -0.441 OA
ATOM     24  C   UNL     1      38.865 -23.666 -15.802  0.00  0.00    +0.256 C 
ENDBRANCH  22  23
ENDBRANCH   4  22
BRANCH   5  25
ATOM     25  C   UNL     1      31.589 -23.669 -16.748  0.00  0.00    +0.166 C 
BRANCH  25  26
ATOM     26  O   UNL     1      30.872 -22.456 -16.873  0.00  0.00    -0.354 OA
BRANCH  26  27
ATOM     27  C   UNL     1      29.755 -22.408 -15.991  0.00  0.00    +0.119 C 
BRANCH  27  28
ATOM     28  C   UNL     1      28.503 -22.782 -16.767  0.00  0.00    -0.054 C 
BRANCH  28  29
ATOM     29  N   UNL     1      27.308 -22.388 -16.036  0.00  0.00    +0.382 N 
ATOM     30  H   UNL     1      26.578 -22.120 -16.696  0.00  0.00    -0.089 HD
ATOM     31  H   UNL     1      27.526 -21.597 -15.430  0.00  0.00    -0.089 HD
ATOM     32  H   UNL     1      26.982 -23.170 -15.468  0.00  0.00    -0.089 HD
ENDBRANCH  28  29
ENDBRANCH  27  28
ENDBRANCH  26  27
ENDBRANCH  25  26
ENDBRANCH   5  25
TORSDOF 11
ENDMDL
MODEL 3
REMARK VINA RESULT:      -6.2     13.579     16.941
REMARK  Name = 9822750
REMARK  11 active torsions:
REMARK  status: ('A' for Active; 'I' for Inactive)
REMARK    1  A    between atoms: C_2  and  C_10
REMARK    2  A    between atoms: C_3  and  C_17
REMARK    3  A    between atoms: C_4  and  C_22
REMARK    4  A    between atoms: C_5  and  C_25
REMARK    5  A    between atoms: C_17  and  O_18
REMARK    6  A    between atoms: O_18  and  C_19
REMARK    7  A    between atoms: C_22  and  O_23
REMARK    8  A    between atoms: C_25  and  O_26
REMARK    9  A    between atoms: O_26  and  C_27
REMARK   10  A    between atoms: C_27  and  C_28
REMARK   11  A    between atoms: C_28  and  N_29
REMARK                            x       y       z     vdW  Elec       q    Type
REMARK                         _______ _______ _______ _____ _____    ______ ____
ROOT
ATOM      1  N   UNL     1      32.748 -23.461 -16.876  0.00  0.00    -0.332 N 
ATOM      2  C   UNL     1      34.994 -23.411 -15.146  0.00  0.00    +0.012 C 
ATOM      3  C   UNL     1      33.601 -23.876 -14.707  0.00  0.00    +0.074 C 
ATOM      4  C   UNL     1      35.004 -22.820 -16.559  0.00  0.00    +0.085 C 
ATOM      5  C   UNL     1      32.566 -23.906 -15.577  0.00  0.00    +0.128 C 
ATOM      6  C   UNL     1      33.916 -22.889 -17.357  0.00  0.00    +0.028 C 
ATOM      7  C   UNL     1      33.838 -22.386 -18.773  0.00  0.00    +0.047 C 
ATOM      8  H   UNL     1      31.995 -23.557 -17.502  0.00  0.00    +0.147 HD
ENDROOT
BRANCH   2  10
ATOM      9 CL   UNL     1      37.669 -22.924 -13.686  0.00  0.00    -0.082 Cl
ATOM     10  C   UNL     1      35.967 -24.551 -15.059  0.00  0.00    +0.011 C 
ATOM     11  C   UNL     1      37.198 -24.416 -14.417  0.00  0.00    +0.058 C 
ATOM     12  C   UNL     1      35.614 -25.769 -15.641  0.00  0.00    +0.001 C 
ATOM     13  C   UNL     1      38.075 -25.499 -14.357  0.00  0.00    +0.011 C 
ATOM     14  C   UNL     1      36.491 -26.851 -15.580  0.00  0.00    +0.000 C 
ATOM     15  C   UNL     1      37.722 -26.716 -14.939  0.00  0.00    +0.001 C 
ENDBRANCH   2  10
BRANCH   3  17
ATOM     16  O   UNL     1      32.531 -24.923 -12.869  0.00  0.00    -0.245 OA
ATOM     17  C   UNL     1      33.445 -24.236 -13.289  0.00  0.00    +0.339 C 
BRANCH  17  18
ATOM     18  O   UNL     1      34.464 -23.680 -12.591  0.00  0.00    -0.446 OA
BRANCH  18  19
ATOM     19  C   UNL     1      35.069 -24.534 -11.615  0.00  0.00    +0.209 C 
ATOM     20  C   UNL     1      36.134 -23.757 -10.871  0.00  0.00    +0.051 C 
ENDBRANCH  18  19
ENDBRANCH  17  18
ENDBRANCH   3  17
BRANCH   4  22
ATOM     21  O   UNL     1      36.920 -21.464 -16.221  0.00  0.00    -0.245 OA
ATOM     22  C   UNL     1      36.238 -22.132 -16.976  0.00  0.00    +0.342 C 
BRANCH  22  23
ATOM     23  O   UNL     1      36.444 -22.384 -18.292  0.00  0.00    -0.441 OA
ATOM     24  C   UNL     1      36.808 -21.244 -19.078  0.00  0.00    +0.256 C 
ENDBRANCH  22  23
ENDBRANCH   4  22
BRANCH   5  25
ATOM     25  C   UNL     1      31.177 -24.391 -15.260  0.00  0.00    +0.166 C 
BRANCH  25  26
ATOM     26  O   UNL     1      30.240 -23.702 -16.065  0.00  0.00    -0.354 OA
BRANCH  26  27
ATOM     27  C   UNL     1      29.410 -22.840 -15.293  0.00  0.00    +0.119 C 
BRANCH  27  28
ATOM     28  C   UNL     1      28.185 -22.476 -16.115  0.00  0.00    -0.054 C 
BRANCH  28  29
ATOM     29  N   UNL     1      28.229 -23.124 -17.417  0.00  0.00    +0.382 N 
ATOM     30  H   UNL     1      28.472 -22.437 -18.131  0.00  0.00    -0.089 HD
ATOM     31  H   UNL     1      27.315 -23.525 -17.628  0.00  0.00    -0.089 HD
ATOM     32  H   UNL     1      28.930 -23.864 -17.406  0.00  0.00    -0.089 HD
ENDBRANCH  28  29
ENDBRANCH  27  28
ENDBRANCH  26  27
ENDBRANCH  25  26
ENDBRANCH   5  25
TORSDOF 11
ENDMDL
MODEL 4
REMARK VINA RESULT:      -5.6     13.696     16.307
REMARK  Name = 9822750
REMARK  11 active torsions:
REMARK  status: ('A' for Active; 'I' for Inactive)
REMARK    1  A    between atoms: C_2  and  C_10
REMARK    2  A    between atoms: C_3  and  C_17
REMARK    3  A    between atoms: C_4  and  C_22
REMARK    4  A    between atoms: C_5  and  C_25
REMARK    5  A    between atoms: C_17  and  O_18
REMARK    6  A    between atoms: O_18  and  C_19
REMARK    7  A    between atoms: C_22  and  O_23
REMARK    8  A    between atoms: C_25  and  O_26
REMARK    9  A    between atoms: O_26  and  C_27
REMARK   10  A    between atoms: C_27  and  C_28
REMARK   11  A    between atoms: C_28  and  N_29
REMARK                            x       y       z     vdW  Elec       q    Type
REMARK                         _______ _______ _______ _____ _____    ______ ____
ROOT
ATOM      1  N   UNL     1      33.710 -23.543 -13.430  0.00  0.00    -0.332 N 
ATOM      2  C   UNL     1      34.290 -23.967 -16.173  0.00  0.00    +0.012 C 
ATOM      3  C   UNL     1      33.011 -23.283 -15.677  0.00  0.00    +0.074 C 
ATOM      4  C   UNL     1      35.134 -24.546 -15.032  0.00  0.00    +0.085 C 
ATOM      5  C   UNL     1      32.791 -23.081 -14.358  0.00  0.00    +0.128 C 
ATOM      6  C   UNL     1      34.833 -24.295 -13.739  0.00  0.00    +0.028 C 
ATOM      7  C   UNL     1      35.623 -24.771 -12.550  0.00  0.00    +0.047 C 
ATOM      8  H   UNL     1      33.554 -23.322 -12.483  0.00  0.00    +0.147 HD
ENDROOT
BRANCH   2  10
ATOM      9 CL   UNL     1      33.829 -23.873 -19.222  0.00  0.00    -0.082 Cl
ATOM     10  C   UNL     1      35.109 -23.002 -16.979  0.00  0.00    +0.011 C 
ATOM     11  C   UNL     1      34.963 -22.896 -18.363  0.00  0.00    +0.058 C 
ATOM     12  C   UNL     1      36.034 -22.199 -16.312  0.00  0.00    +0.001 C 
ATOM     13  C   UNL     1      35.742 -21.986 -19.077  0.00  0.00    +0.011 C 
ATOM     14  C   UNL     1      36.812 -21.289 -17.028  0.00  0.00    +0.000 C 
ATOM     15  C   UNL     1      36.667 -21.183 -18.410  0.00  0.00    +0.001 C 
ENDBRANCH   2  10
BRANCH   3  17
ATOM     16  O   UNL     1      32.249 -22.100 -17.583  0.00  0.00    -0.245 OA
ATOM     17  C   UNL     1      32.025 -22.910 -16.703  0.00  0.00    +0.339 C 
BRANCH  17  18
ATOM     18  O   UNL     1      30.887 -23.610 -16.478  0.00  0.00    -0.446 OA
BRANCH  18  19
ATOM     19  C   UNL     1      29.679 -22.846 -16.557  0.00  0.00    +0.209 C 
ATOM     20  C   UNL     1      28.535 -23.769 -16.923  0.00  0.00    +0.051 C 
ENDBRANCH  18  19
ENDBRANCH  17  18
ENDBRANCH   3  17
BRANCH   4  22
ATOM     21  O   UNL     1      36.097 -26.539 -15.881  0.00  0.00    -0.245 OA
ATOM     22  C   UNL     1      36.252 -25.423 -15.420  0.00  0.00    +0.342 C 
BRANCH  22  23
ATOM     23  O   UNL     1      37.413 -24.770 -15.174  0.00  0.00    -0.441 OA
ATOM     24  C   UNL     1      38.482 -25.593 -14.694  0.00  0.00    +0.256 C 
ENDBRANCH  22  23
ENDBRANCH   4  22
BRANCH   5  25
ATOM     25  C   UNL     1      31.597 -22.377 -13.773  0.00  0.00    +0.166 C 
BRANCH  25  26
ATOM     26  O   UNL     1      31.119 -23.103 -12.657  0.00  0.00    -0.354 OA
BRANCH  26  27
ATOM     27  C   UNL     1      30.072 -23.999 -13.016  0.00  0.00    +0.119 C 
BRANCH  27  28
ATOM     28  C   UNL     1      30.687 -25.293 -13.522  0.00  0.00    -0.054 C 
BRANCH  28  29
ATOM     29  N   UNL     1      29.904 -25.840 -14.620  0.00  0.00    +0.382 N 
ATOM     30  H   UNL     1      29.885 -25.171 -15.390  0.00  0.00    -0.089 HD
ATOM     31  H   UNL     1      28.951 -26.018 -14.302  0.00  0.00    -0.089 HD
ATOM     32  H   UNL     1      30.325 -26.712 -14.937  0.00  0.00    -0.089 HD
ENDBRANCH  28  29
ENDBRANCH  27  28
ENDBRANCH  26  27
ENDBRANCH  25  26
ENDBRANCH   5  25
TORSDOF 11
ENDMDL
MODEL 5
REMARK VINA RESULT:      -5.5      1.082      1.414
REMARK  Name = 9822750
REMARK  11 active torsions:
REMARK  status: ('A' for Active; 'I' for Inactive)
REMARK    1  A    between atoms: C_2  and  C_10
REMARK    2  A    between atoms: C_3  and  C_17
REMARK    3  A    between atoms: C_4  and  C_22
REMARK    4  A    between atoms: C_5  and  C_25
REMARK    5  A    between atoms: C_17  and  O_18
REMARK    6  A    between atoms: O_18  and  C_19
REMARK    7  A    between atoms: C_22  and  O_23
REMARK    8  A    between atoms: C_25  and  O_26
REMARK    9  A    between atoms: O_26  and  C_27
REMARK   10  A    between atoms: C_27  and  C_28
REMARK   11  A    between atoms: C_28  and  N_29
REMARK                            x       y       z     vdW  Elec       q    Type
REMARK                         _______ _______ _______ _____ _____    ______ ____
ROOT
ATOM      1  N   UNL     1      31.710 -11.102 -21.519  0.00  0.00    -0.332 N 
ATOM      2  C   UNL     1      33.214  -8.884 -22.442  0.00  0.00    +0.012 C 
ATOM      3  C   UNL     1      33.238 -10.259 -23.118  0.00  0.00    +0.074 C 
ATOM      4  C   UNL     1      32.429  -8.882 -21.126  0.00  0.00    +0.085 C 
ATOM      5  C   UNL     1      32.483 -11.281 -22.654  0.00  0.00    +0.128 C 
ATOM      6  C   UNL     1      31.706  -9.956 -20.739  0.00  0.00    +0.028 C 
ATOM      7  C   UNL     1      30.864 -10.040 -19.495  0.00  0.00    +0.047 C 
ATOM      8  H   UNL     1      31.121 -11.843 -21.246  0.00  0.00    +0.147 HD
ENDROOT
BRANCH   2  10
ATOM      9 CL   UNL     1      30.215  -9.075 -23.142  0.00  0.00    -0.082 Cl
ATOM     10  C   UNL     1      32.643  -7.861 -23.381  0.00  0.00    +0.011 C 
ATOM     11  C   UNL     1      31.297  -7.875 -23.749  0.00  0.00    +0.058 C 
ATOM     12  C   UNL     1      33.494  -6.879 -23.888  0.00  0.00    +0.001 C 
ATOM     13  C   UNL     1      30.804  -6.907 -24.623  0.00  0.00    +0.011 C 
ATOM     14  C   UNL     1      33.000  -5.911 -24.761  0.00  0.00    +0.000 C 
ATOM     15  C   UNL     1      31.655  -5.925 -25.130  0.00  0.00    +0.001 C 
ENDBRANCH   2  10
BRANCH   3  17
ATOM     16  O   UNL     1      35.322 -10.061 -24.230  0.00  0.00    -0.245 OA
ATOM     17  C   UNL     1      34.158 -10.417 -24.255  0.00  0.00    +0.339 C 
BRANCH  17  18
ATOM     18  O   UNL     1      33.483 -11.003 -25.274  0.00  0.00    -0.446 OA
BRANCH  18  19
ATOM     19  C   UNL     1      34.294 -11.738 -26.196  0.00  0.00    +0.209 C 
ATOM     20  C   UNL     1      33.464 -12.844 -26.810  0.00  0.00    +0.051 C 
ENDBRANCH  18  19
ENDBRANCH  17  18
ENDBRANCH   3  17
BRANCH   4  22
ATOM     21  O   UNL     1      33.505  -7.453 -19.570  0.00  0.00    -0.245 OA
ATOM     22  C   UNL     1      32.549  -7.676 -20.289  0.00  0.00    +0.342 C 
BRANCH  22  23
ATOM     23  O   UNL     1      31.444  -6.915 -20.477  0.00  0.00    -0.441 OA
ATOM     24  C   UNL     1      31.689  -5.612 -21.017  0.00  0.00    +0.256 C 
ENDBRANCH  22  23
ENDBRANCH   4  22
BRANCH   5  25
ATOM     25  C   UNL     1      32.397 -12.650 -23.273  0.00  0.00    +0.166 C 
BRANCH  25  26
ATOM     26  O   UNL     1      33.000 -13.596 -22.413  0.00  0.00    -0.354 OA
BRANCH  26  27
ATOM     27  C   UNL     1      34.289 -13.987 -22.875  0.00  0.00    +0.119 C 
BRANCH  27  28
ATOM     28  C   UNL     1      34.278 -15.483 -23.147  0.00  0.00    -0.054 C 
BRANCH  28  29
ATOM     29  N   UNL     1      33.830 -15.755 -24.504  0.00  0.00    +0.382 N 
ATOM     30  H   UNL     1      33.263 -16.602 -24.512  0.00  0.00    -0.089 HD
ATOM     31  H   UNL     1      34.640 -15.883 -25.110  0.00  0.00    -0.089 HD
ATOM     32  H   UNL     1      33.273 -14.971 -24.843  0.00  0.00    -0.089 HD
ENDBRANCH  28  29
ENDBRANCH  27  28
ENDBRANCH  26  27
ENDBRANCH  25  26
ENDBRANCH   5  25
TORSDOF 11
ENDMDL
MODEL 6
REMARK VINA RESULT:      -5.1      2.124      3.432
REMARK  Name = 9822750
REMARK  11 active torsions:
REMARK  status: ('A' for Active; 'I' for Inactive)
REMARK    1  A    between atoms: C_2  and  C_10
REMARK    2  A    between atoms: C_3  and  C_17
REMARK    3  A    between atoms: C_4  and  C_22
REMARK    4  A    between atoms: C_5  and  C_25
REMARK    5  A    between atoms: C_17  and  O_18
REMARK    6  A    between atoms: O_18  and  C_19
REMARK    7  A    between atoms: C_22  and  O_23
REMARK    8  A    between atoms: C_25  and  O_26
REMARK    9  A    between atoms: O_26  and  C_27
REMARK   10  A    between atoms: C_27  and  C_28
REMARK   11  A    between atoms: C_28  and  N_29
REMARK                            x       y       z     vdW  Elec       q    Type
REMARK                         _______ _______ _______ _____ _____    ______ ____
ROOT
ATOM      1  N   UNL     1      32.905 -11.198 -23.407  0.00  0.00    -0.332 N 
ATOM      2  C   UNL     1      33.080  -8.730 -22.024  0.00  0.00    +0.012 C 
ATOM      3  C   UNL     1      33.794  -9.005 -23.352  0.00  0.00    +0.074 C 
ATOM      4  C   UNL     1      32.405  -9.977 -21.443  0.00  0.00    +0.085 C 
ATOM      5  C   UNL     1      33.660 -10.192 -23.987  0.00  0.00    +0.128 C 
ATOM      6  C   UNL     1      32.325 -11.126 -22.151  0.00  0.00    +0.028 C 
ATOM      7  C   UNL     1      31.643 -12.387 -21.694  0.00  0.00    +0.047 C 
ATOM      8  H   UNL     1      32.772 -12.026 -23.925  0.00  0.00    +0.147 HD
ENDROOT
BRANCH   2  10
ATOM      9 CL   UNL     1      32.985  -6.487 -19.907  0.00  0.00    -0.082 Cl
ATOM     10  C   UNL     1      32.068  -7.636 -22.203  0.00  0.00    +0.011 C 
ATOM     11  C   UNL     1      31.959  -6.584 -21.292  0.00  0.00    +0.058 C 
ATOM     12  C   UNL     1      31.225  -7.688 -23.312  0.00  0.00    +0.001 C 
ATOM     13  C   UNL     1      31.006  -5.585 -21.493  0.00  0.00    +0.011 C 
ATOM     14  C   UNL     1      30.273  -6.688 -23.513  0.00  0.00    +0.000 C 
ATOM     15  C   UNL     1      30.163  -5.637 -22.603  0.00  0.00    +0.001 C 
ENDBRANCH   2  10
BRANCH   3  17
ATOM     16  O   UNL     1      35.625  -7.504 -23.253  0.00  0.00    -0.245 OA
ATOM     17  C   UNL     1      34.665  -7.936 -23.864  0.00  0.00    +0.339 C 
BRANCH  17  18
ATOM     18  O   UNL     1      34.205  -7.555 -25.081  0.00  0.00    -0.446 OA
BRANCH  18  19
ATOM     19  C   UNL     1      34.458  -6.190 -25.425  0.00  0.00    +0.209 C 
ATOM     20  C   UNL     1      33.137  -5.482 -25.641  0.00  0.00    +0.051 C 
ENDBRANCH  18  19
ENDBRANCH  17  18
ENDBRANCH   3  17
BRANCH   4  22
ATOM     21  O   UNL     1      32.592  -9.522 -19.123  0.00  0.00    -0.245 OA
ATOM     22  C   UNL     1      31.901  -9.871 -20.063  0.00  0.00    +0.342 C 
BRANCH  22  23
ATOM     23  O   UNL     1      30.592 -10.218 -20.059  0.00  0.00    -0.441 OA
ATOM     24  C   UNL     1      30.098 -10.709 -18.808  0.00  0.00    +0.256 C 
ENDBRANCH  22  23
ENDBRANCH   4  22
BRANCH   5  25
ATOM     25  C   UNL     1      34.275 -10.543 -25.314  0.00  0.00    +0.166 C 
BRANCH  25  26
ATOM     26  O   UNL     1      34.253 -11.946 -25.489  0.00  0.00    -0.354 OA
BRANCH  26  27
ATOM     27  C   UNL     1      33.676 -12.316 -26.737  0.00  0.00    +0.119 C 
BRANCH  27  28
ATOM     28  C   UNL     1      33.143 -13.735 -26.629  0.00  0.00    -0.054 C 
BRANCH  28  29
ATOM     29  N   UNL     1      33.067 -14.150 -25.236  0.00  0.00    +0.382 N 
ATOM     30  H   UNL     1      33.744 -13.620 -24.686  0.00  0.00    -0.089 HD
ATOM     31  H   UNL     1      33.278 -15.145 -25.166  0.00  0.00    -0.089 HD
ATOM     32  H   UNL     1      32.129 -13.975 -24.879  0.00  0.00    -0.089 HD
ENDBRANCH  28  29
ENDBRANCH  27  28
ENDBRANCH  26  27
ENDBRANCH  25  26
ENDBRANCH   5  25
TORSDOF 11
ENDMDL
MODEL 7
REMARK VINA RESULT:      -5.1      2.431      4.444
REMARK  Name = 9822750
REMARK  11 active torsions:
REMARK  status: ('A' for Active; 'I' for Inactive)
REMARK    1  A    between atoms: C_2  and  C_10
REMARK    2  A    between atoms: C_3  and  C_17
REMARK    3  A    between atoms: C_4  and  C_22
REMARK    4  A    between atoms: C_5  and  C_25
REMARK    5  A    between atoms: C_17  and  O_18
REMARK    6  A    between atoms: O_18  and  C_19
REMARK    7  A    between atoms: C_22  and  O_23
REMARK    8  A    between atoms: C_25  and  O_26
REMARK    9  A    between atoms: O_26  and  C_27
REMARK   10  A    between atoms: C_27  and  C_28
REMARK   11  A    between atoms: C_28  and  N_29
REMARK                            x       y       z     vdW  Elec       q    Type
REMARK                         _______ _______ _______ _____ _____    ______ ____
ROOT
ATOM      1  N   UNL     1      31.590 -12.882 -21.324  0.00  0.00    -0.332 N 
ATOM      2  C   UNL     1      33.633 -12.330 -23.210  0.00  0.00    +0.012 C 
ATOM      3  C   UNL     1      33.584 -13.611 -22.371  0.00  0.00    +0.074 C 
ATOM      4  C   UNL     1      32.564 -11.311 -22.802  0.00  0.00    +0.085 C 
ATOM      5  C   UNL     1      32.574 -13.841 -21.501  0.00  0.00    +0.128 C 
ATOM      6  C   UNL     1      31.594 -11.629 -21.916  0.00  0.00    +0.028 C 
ATOM      7  C   UNL     1      30.473 -10.722 -21.486  0.00  0.00    +0.047 C 
ATOM      8  H   UNL     1      30.834 -13.106 -20.733  0.00  0.00    +0.147 HD
ENDROOT
BRANCH   2  10
ATOM      9 CL   UNL     1      35.217 -10.636 -25.245  0.00  0.00    -0.082 Cl
ATOM     10  C   UNL     1      33.493 -12.665 -24.667  0.00  0.00    +0.011 C 
ATOM     11  C   UNL     1      34.174 -11.949 -25.651  0.00  0.00    +0.058 C 
ATOM     12  C   UNL     1      32.656 -13.722 -25.026  0.00  0.00    +0.001 C 
ATOM     13  C   UNL     1      34.018 -12.291 -26.995  0.00  0.00    +0.011 C 
ATOM     14  C   UNL     1      32.501 -14.063 -26.369  0.00  0.00    +0.000 C 
ATOM     15  C   UNL     1      33.181 -13.348 -27.354  0.00  0.00    +0.001 C 
ENDBRANCH   2  10
BRANCH   3  17
ATOM     16  O   UNL     1      35.494 -14.802 -21.632  0.00  0.00    -0.245 OA
ATOM     17  C   UNL     1      34.712 -14.543 -22.527  0.00  0.00    +0.339 C 
BRANCH  17  18
ATOM     18  O   UNL     1      34.699 -15.022 -23.795  0.00  0.00    -0.446 OA
BRANCH  18  19
ATOM     19  C   UNL     1      35.224 -16.344 -23.949  0.00  0.00    +0.209 C 
ATOM     20  C   UNL     1      34.534 -17.016 -25.117  0.00  0.00    +0.051 C 
ENDBRANCH  18  19
ENDBRANCH  17  18
ENDBRANCH   3  17
BRANCH   4  22
ATOM     21  O   UNL     1      31.987  -9.569 -24.302  0.00  0.00    -0.245 OA
ATOM     22  C   UNL     1      32.682  -9.964 -23.384  0.00  0.00    +0.342 C 
BRANCH  22  23
ATOM     23  O   UNL     1      33.661  -9.298 -22.726  0.00  0.00    -0.441 OA
ATOM     24  C   UNL     1      33.797  -7.917 -23.077  0.00  0.00    +0.256 C 
ENDBRANCH  22  23
ENDBRANCH   4  22
BRANCH   5  25
ATOM     25  C   UNL     1      32.407 -15.084 -20.670  0.00  0.00    +0.166 C 
BRANCH  25  26
ATOM     26  O   UNL     1      32.646 -16.224 -21.472  0.00  0.00    -0.354 OA
BRANCH  26  27
ATOM     27  C   UNL     1      33.020 -17.354 -20.689  0.00  0.00    +0.119 C 
BRANCH  27  28
ATOM     28  C   UNL     1      34.143 -18.091 -21.401  0.00  0.00    -0.054 C 
BRANCH  28  29
ATOM     29  N   UNL     1      35.411 -17.874 -20.721  0.00  0.00    +0.382 N 
ATOM     30  H   UNL     1      35.431 -18.418 -19.858  0.00  0.00    -0.089 HD
ATOM     31  H   UNL     1      35.514 -16.884 -20.501  0.00  0.00    -0.089 HD
ATOM     32  H   UNL     1      36.177 -18.169 -21.326  0.00  0.00    -0.089 HD
ENDBRANCH  28  29
ENDBRANCH  27  28
ENDBRANCH  26  27
ENDBRANCH  25  26
ENDBRANCH   5  25
TORSDOF 11
ENDMDL
MODEL 8
REMARK VINA RESULT:      -4.6     13.956     17.289
REMARK  Name = 9822750
REMARK  11 active torsions:
REMARK  status: ('A' for Active; 'I' for Inactive)
REMARK    1  A    between atoms: C_2  and  C_10
REMARK    2  A    between atoms: C_3  and  C_17
REMARK    3  A    between atoms: C_4  and  C_22
REMARK    4  A    between atoms: C_5  and  C_25
REMARK    5  A    between atoms: C_17  and  O_18
REMARK    6  A    between atoms: O_18  and  C_19
REMARK    7  A    between atoms: C_22  and  O_23
REMARK    8  A    between atoms: C_25  and  O_26
REMARK    9  A    between atoms: O_26  and  C_27
REMARK   10  A    between atoms: C_27  and  C_28
REMARK   11  A    between atoms: C_28  and  N_29
REMARK                            x       y       z     vdW  Elec       q    Type
REMARK                         _______ _______ _______ _____ _____    ______ ____
ROOT
ATOM      1  N   UNL     1      33.242 -23.821 -15.720  0.00  0.00    -0.332 N 
ATOM      2  C   UNL     1      35.881 -23.255 -14.853  0.00  0.00    +0.012 C 
ATOM      3  C   UNL     1      34.780 -23.773 -13.921  0.00  0.00    +0.074 C 
ATOM      4  C   UNL     1      35.362 -22.916 -16.254  0.00  0.00    +0.085 C 
ATOM      5  C   UNL     1      33.542 -24.052 -14.388  0.00  0.00    +0.128 C 
ATOM      6  C   UNL     1      34.103 -23.228 -16.631  0.00  0.00    +0.028 C 
ATOM      7  C   UNL     1      33.513 -22.985 -17.994  0.00  0.00    +0.047 C 
ATOM      8  H   UNL     1      32.354 -24.096 -16.043  0.00  0.00    +0.147 HD
ENDROOT
BRANCH   2  10
ATOM      9 CL   UNL     1      35.116 -26.228 -15.166  0.00  0.00    -0.082 Cl
ATOM     10  C   UNL     1      36.991 -24.262 -14.946  0.00  0.00    +0.011 C 
ATOM     11  C   UNL     1      36.732 -25.625 -15.089  0.00  0.00    +0.058 C 
ATOM     12  C   UNL     1      38.307 -23.804 -14.886  0.00  0.00    +0.001 C 
ATOM     13  C   UNL     1      37.790 -26.530 -15.172  0.00  0.00    +0.011 C 
ATOM     14  C   UNL     1      39.365 -24.710 -14.970  0.00  0.00    +0.000 C 
ATOM     15  C   UNL     1      39.106 -26.073 -15.113  0.00  0.00    +0.001 C 
ENDBRANCH   2  10
BRANCH   3  17
ATOM     16  O   UNL     1      34.676 -24.764 -11.771  0.00  0.00    -0.245 OA
ATOM     17  C   UNL     1      35.129 -23.899 -12.497  0.00  0.00    +0.339 C 
BRANCH  17  18
ATOM     18  O   UNL     1      36.004 -22.913 -12.182  0.00  0.00    -0.446 OA
BRANCH  18  19
ATOM     19  C   UNL     1      36.895 -23.214 -11.104  0.00  0.00    +0.209 C 
ATOM     20  C   UNL     1      37.962 -24.168 -11.597  0.00  0.00    +0.051 C 
ENDBRANCH  18  19
ENDBRANCH  17  18
ENDBRANCH   3  17
BRANCH   4  22
ATOM     21  O   UNL     1      36.392 -22.423 -18.332  0.00  0.00    -0.245 OA
ATOM     22  C   UNL     1      36.288 -22.192 -17.142  0.00  0.00    +0.342 C 
BRANCH  22  23
ATOM     23  O   UNL     1      36.956 -21.272 -16.404  0.00  0.00    -0.441 OA
ATOM     24  C   UNL     1      37.798 -20.389 -17.153  0.00  0.00    +0.256 C 
ENDBRANCH  22  23
ENDBRANCH   4  22
BRANCH   5  25
ATOM     25  C   UNL     1      32.409 -24.611 -13.569  0.00  0.00    +0.166 C 
BRANCH  25  26
ATOM     26  O   UNL     1      31.188 -24.046 -14.004  0.00  0.00    -0.354 OA
BRANCH  26  27
ATOM     27  C   UNL     1      30.228 -25.045 -14.332  0.00  0.00    +0.119 C 
BRANCH  27  28
ATOM     28  C   UNL     1      29.314 -24.507 -15.420  0.00  0.00    -0.054 C 
BRANCH  28  29
ATOM     29  N   UNL     1      29.801 -23.228 -15.914  0.00  0.00    +0.382 N 
ATOM     30  H   UNL     1      29.139 -22.850 -16.591  0.00  0.00    -0.089 HD
ATOM     31  H   UNL     1      30.708 -23.359 -16.362  0.00  0.00    -0.089 HD
ATOM     32  H   UNL     1      29.898 -22.577 -15.135  0.00  0.00    -0.089 HD
ENDBRANCH  28  29
ENDBRANCH  27  28
ENDBRANCH  26  27
ENDBRANCH  25  26
ENDBRANCH   5  25
TORSDOF 11
ENDMDL
MODEL 9
REMARK VINA RESULT:      -4.6      2.363      5.423
REMARK  Name = 9822750
REMARK  11 active torsions:
REMARK  status: ('A' for Active; 'I' for Inactive)
REMARK    1  A    between atoms: C_2  and  C_10
REMARK    2  A    between atoms: C_3  and  C_17
REMARK    3  A    between atoms: C_4  and  C_22
REMARK    4  A    between atoms: C_5  and  C_25
REMARK    5  A    between atoms: C_17  and  O_18
REMARK    6  A    between atoms: O_18  and  C_19
REMARK    7  A    between atoms: C_22  and  O_23
REMARK    8  A    between atoms: C_25  and  O_26
REMARK    9  A    between atoms: O_26  and  C_27
REMARK   10  A    between atoms: C_27  and  C_28
REMARK   11  A    between atoms: C_28  and  N_29
REMARK                            x       y       z     vdW  Elec       q    Type
REMARK                         _______ _______ _______ _____ _____    ______ ____
ROOT
ATOM      1  N   UNL     1      33.447 -14.464 -22.925  0.00  0.00    -0.332 N 
ATOM      2  C   UNL     1      32.365 -11.994 -23.799  0.00  0.00    +0.012 C 
ATOM      3  C   UNL     1      32.278 -12.487 -22.351  0.00  0.00    +0.074 C 
ATOM      4  C   UNL     1      32.944 -13.046 -24.752  0.00  0.00    +0.085 C 
ATOM      5  C   UNL     1      32.832 -13.663 -21.977  0.00  0.00    +0.128 C 
ATOM      6  C   UNL     1      33.471 -14.199 -24.286  0.00  0.00    +0.028 C 
ATOM      7  C   UNL     1      34.107 -15.272 -25.129  0.00  0.00    +0.047 C 
ATOM      8  H   UNL     1      33.898 -15.281 -22.611  0.00  0.00    +0.147 HD
ENDROOT
BRANCH   2  10
ATOM      9 CL   UNL     1      30.916  -9.299 -23.397  0.00  0.00    -0.082 Cl
ATOM     10  C   UNL     1      33.184 -10.737 -23.865  0.00  0.00    +0.011 C 
ATOM     11  C   UNL     1      32.607  -9.478 -23.694  0.00  0.00    +0.058 C 
ATOM     12  C   UNL     1      34.553 -10.850 -24.103  0.00  0.00    +0.001 C 
ATOM     13  C   UNL     1      33.401  -8.334 -23.761  0.00  0.00    +0.011 C 
ATOM     14  C   UNL     1      35.347  -9.705 -24.170  0.00  0.00    +0.000 C 
ATOM     15  C   UNL     1      34.771  -8.447 -24.000  0.00  0.00    +0.001 C 
ENDBRANCH   2  10
BRANCH   3  17
ATOM     16  O   UNL     1      30.307 -11.582 -21.397  0.00  0.00    -0.245 OA
ATOM     17  C   UNL     1      31.522 -11.643 -21.413  0.00  0.00    +0.339 C 
BRANCH  17  18
ATOM     18  O   UNL     1      32.405 -10.987 -20.621  0.00  0.00    -0.446 OA
BRANCH  18  19
ATOM     19  C   UNL     1      31.826 -10.027 -19.732  0.00  0.00    +0.209 C 
ATOM     20  C   UNL     1      32.312  -8.645 -20.114  0.00  0.00    +0.051 C 
ENDBRANCH  18  19
ENDBRANCH  17  18
ENDBRANCH   3  17
BRANCH   4  22
ATOM     21  O   UNL     1      31.959 -13.188 -26.904  0.00  0.00    -0.245 OA
ATOM     22  C   UNL     1      32.847 -12.755 -26.192  0.00  0.00    +0.342 C 
BRANCH  22  23
ATOM     23  O   UNL     1      33.884 -11.954 -26.537  0.00  0.00    -0.441 OA
ATOM     24  C   UNL     1      34.779 -12.506 -27.508  0.00  0.00    +0.256 C 
ENDBRANCH  22  23
ENDBRANCH   4  22
BRANCH   5  25
ATOM     25  C   UNL     1      32.846 -14.212 -20.576  0.00  0.00    +0.166 C 
BRANCH  25  26
ATOM     26  O   UNL     1      33.110 -15.601 -20.615  0.00  0.00    -0.354 OA
BRANCH  26  27
ATOM     27  C   UNL     1      34.486 -15.886 -20.390  0.00  0.00    +0.119 C 
BRANCH  27  28
ATOM     28  C   UNL     1      34.924 -16.977 -21.353  0.00  0.00    -0.054 C 
BRANCH  28  29
ATOM     29  N   UNL     1      35.640 -18.028 -20.646  0.00  0.00    +0.382 N 
ATOM     30  H   UNL     1      35.266 -18.937 -20.918  0.00  0.00    -0.089 HD
ATOM     31  H   UNL     1      35.526 -17.901 -19.641  0.00  0.00    -0.089 HD
ATOM     32  H   UNL     1      36.631 -17.985 -20.884  0.00  0.00    -0.089 HD
ENDBRANCH  28  29
ENDBRANCH  27  28
ENDBRANCH  26  27
ENDBRANCH  25  26
ENDBRANCH   5  25
TORSDOF 11
ENDMDL
