MODEL 1
REMARK VINA RESULT:      -5.1      0.000      0.000
REMARK  Name = 131153
REMARK  5 active torsions:
REMARK  status: ('A' for Active; 'I' for Inactive)
REMARK    1  A    between atoms: C_1  and  C_3
REMARK    2  A    between atoms: C_1  and  C_6
REMARK    3  A    between atoms: C_3  and  C_5
REMARK    4  A    between atoms: C_6  and  C_8
REMARK    5  A    between atoms: C_8  and  O_9
REMARK                            x       y       z     vdW  Elec       q    Type
REMARK                         _______ _______ _______ _____ _____    ______ ____
ROOT
ATOM      1  C   UNL     1      37.939 -24.851 -13.919  0.00  0.00    +0.079 C 
ENDROOT
BRANCH   1   3
ATOM      2  O   UNL     1      36.182 -25.244 -15.538  0.00  0.00    -0.293 OA
ATOM      3  C   UNL     1      37.021 -24.474 -15.072  0.00  0.00    +0.187 C 
BRANCH   3   5
ATOM      4  F   UNL     1      38.441 -22.927 -16.165  0.00  0.00    -0.226 F 
ATOM      5  C   UNL     1      37.200 -23.088 -15.633  0.00  0.00    +0.257 C 
ENDBRANCH   3   5
ENDBRANCH   1   3
BRANCH   1   6
ATOM      6  C   UNL     1      38.932 -25.954 -14.271  0.00  0.00    +0.117 C 
BRANCH   6   8
ATOM      7  O   UNL     1      40.962 -24.610 -14.350  0.00  0.00    -0.250 OA
ATOM      8  C   UNL     1      40.211 -25.418 -14.876  0.00  0.00    +0.314 C 
BRANCH   8   9
ATOM      9  O   UNL     1      40.435 -25.945 -16.109  0.00  0.00    -0.480 OA
ATOM     10  H   UNL     1      41.287 -26.265 -16.334  0.00  0.00    +0.295 HD
ENDBRANCH   8   9
ENDBRANCH   6   8
ENDBRANCH   1   6
TORSDOF 5
ENDMDL
MODEL 2
REMARK VINA RESULT:      -5.0      2.358      3.026
REMARK  Name = 131153
REMARK  5 active torsions:
REMARK  status: ('A' for Active; 'I' for Inactive)
REMARK    1  A    between atoms: C_1  and  C_3
REMARK    2  A    between atoms: C_1  and  C_6
REMARK    3  A    between atoms: C_3  and  C_5
REMARK    4  A    between atoms: C_6  and  C_8
REMARK    5  A    between atoms: C_8  and  O_9
REMARK                            x       y       z     vdW  Elec       q    Type
REMARK                         _______ _______ _______ _____ _____    ______ ____
ROOT
ATOM      1  C   UNL     1      38.378 -25.405 -12.846  0.00  0.00    +0.079 C 
ENDROOT
BRANCH   1   3
ATOM      2  O   UNL     1      39.029 -23.348 -11.747  0.00  0.00    -0.293 OA
ATOM      3  C   UNL     1      38.126 -24.112 -12.087  0.00  0.00    +0.187 C 
BRANCH   3   5
ATOM      4  F   UNL     1      36.096 -23.084 -12.744  0.00  0.00    -0.226 F 
ATOM      5  C   UNL     1      36.688 -23.809 -11.756  0.00  0.00    +0.257 C 
ENDBRANCH   3   5
ENDBRANCH   1   3
BRANCH   1   6
ATOM      6  C   UNL     1      38.612 -25.195 -14.339  0.00  0.00    +0.117 C 
BRANCH   6   8
ATOM      7  O   UNL     1      40.469 -26.146 -15.597  0.00  0.00    -0.250 OA
ATOM      8  C   UNL     1      40.061 -25.381 -14.735  0.00  0.00    +0.314 C 
BRANCH   8   9
ATOM      9  O   UNL     1      40.882 -24.587 -13.999  0.00  0.00    -0.480 OA
ATOM     10  H   UNL     1      41.598 -24.144 -14.411  0.00  0.00    +0.295 HD
ENDBRANCH   8   9
ENDBRANCH   6   8
ENDBRANCH   1   6
TORSDOF 5
ENDMDL
MODEL 3
REMARK VINA RESULT:      -4.9      2.255      2.410
REMARK  Name = 131153
REMARK  5 active torsions:
REMARK  status: ('A' for Active; 'I' for Inactive)
REMARK    1  A    between atoms: C_1  and  C_3
REMARK    2  A    between atoms: C_1  and  C_6
REMARK    3  A    between atoms: C_3  and  C_5
REMARK    4  A    between atoms: C_6  and  C_8
REMARK    5  A    between atoms: C_8  and  O_9
REMARK                            x       y       z     vdW  Elec       q    Type
REMARK                         _______ _______ _______ _____ _____    ______ ____
ROOT
ATOM      1  C   UNL     1      38.291 -24.808 -13.252  0.00  0.00    +0.079 C 
ENDROOT
BRANCH   1   3
ATOM      2  O   UNL     1      37.027 -26.457 -12.009  0.00  0.00    -0.293 OA
ATOM      3  C   UNL     1      37.029 -25.409 -12.655  0.00  0.00    +0.187 C 
BRANCH   3   5
ATOM      4  F   UNL     1      35.280 -24.881 -14.162  0.00  0.00    -0.226 F 
ATOM      5  C   UNL     1      35.752 -24.650 -12.907  0.00  0.00    +0.257 C 
ENDBRANCH   3   5
ENDBRANCH   1   3
BRANCH   1   6
ATOM      6  C   UNL     1      38.654 -25.391 -14.615  0.00  0.00    +0.117 C 
BRANCH   6   8
ATOM      7  O   UNL     1      40.956 -24.680 -14.254  0.00  0.00    -0.250 OA
ATOM      8  C   UNL     1      40.133 -25.296 -14.917  0.00  0.00    +0.314 C 
BRANCH   8   9
ATOM      9  O   UNL     1      40.454 -25.983 -16.045  0.00  0.00    -0.480 OA
ATOM     10  H   UNL     1      40.297 -25.602 -16.886  0.00  0.00    +0.295 HD
ENDBRANCH   8   9
ENDBRANCH   6   8
ENDBRANCH   1   6
TORSDOF 5
ENDMDL
MODEL 4
REMARK VINA RESULT:      -4.9      7.279      8.605
REMARK  Name = 131153
REMARK  5 active torsions:
REMARK  status: ('A' for Active; 'I' for Inactive)
REMARK    1  A    between atoms: C_1  and  C_3
REMARK    2  A    between atoms: C_1  and  C_6
REMARK    3  A    between atoms: C_3  and  C_5
REMARK    4  A    between atoms: C_6  and  C_8
REMARK    5  A    between atoms: C_8  and  O_9
REMARK                            x       y       z     vdW  Elec       q    Type
REMARK                         _______ _______ _______ _____ _____    ______ ____
ROOT
ATOM      1  C   UNL     1      33.976 -20.159 -20.495  0.00  0.00    +0.079 C 
ENDROOT
BRANCH   1   3
ATOM      2  O   UNL     1      35.882 -18.667 -20.543  0.00  0.00    -0.293 OA
ATOM      3  C   UNL     1      34.930 -19.167 -21.141  0.00  0.00    +0.187 C 
BRANCH   3   5
ATOM      4  F   UNL     1      34.926 -19.847 -23.409  0.00  0.00    -0.226 F 
ATOM      5  C   UNL     1      34.641 -18.810 -22.576  0.00  0.00    +0.257 C 
ENDBRANCH   3   5
ENDBRANCH   1   3
BRANCH   1   6
ATOM      6  C   UNL     1      34.686 -21.250 -19.698  0.00  0.00    +0.117 C 
BRANCH   6   8
ATOM      7  O   UNL     1      34.037 -23.585 -19.451  0.00  0.00    -0.250 OA
ATOM      8  C   UNL     1      33.770 -22.398 -19.333  0.00  0.00    +0.314 C 
BRANCH   8   9
ATOM      9  O   UNL     1      32.579 -21.949 -18.854  0.00  0.00    -0.480 OA
ATOM     10  H   UNL     1      31.884 -21.740 -19.447  0.00  0.00    +0.295 HD
ENDBRANCH   8   9
ENDBRANCH   6   8
ENDBRANCH   1   6
TORSDOF 5
ENDMDL
MODEL 5
REMARK VINA RESULT:      -4.8      7.959      9.226
REMARK  Name = 131153
REMARK  5 active torsions:
REMARK  status: ('A' for Active; 'I' for Inactive)
REMARK    1  A    between atoms: C_1  and  C_3
REMARK    2  A    between atoms: C_1  and  C_6
REMARK    3  A    between atoms: C_3  and  C_5
REMARK    4  A    between atoms: C_6  and  C_8
REMARK    5  A    between atoms: C_8  and  O_9
REMARK                            x       y       z     vdW  Elec       q    Type
REMARK                         _______ _______ _______ _____ _____    ______ ____
ROOT
ATOM      1  C   UNL     1      34.095 -19.442 -21.613  0.00  0.00    +0.079 C 
ENDROOT
BRANCH   1   3
ATOM      2  O   UNL     1      36.129 -18.610 -20.597  0.00  0.00    -0.293 OA
ATOM      3  C   UNL     1      35.054 -18.360 -21.140  0.00  0.00    +0.187 C 
BRANCH   3   5
ATOM      4  F   UNL     1      34.967 -16.139 -20.324  0.00  0.00    -0.226 F 
ATOM      5  C   UNL     1      34.610 -16.939 -21.365  0.00  0.00    +0.257 C 
ENDBRANCH   3   5
ENDBRANCH   1   3
BRANCH   1   6
ATOM      6  C   UNL     1      33.115 -19.895 -20.536  0.00  0.00    +0.117 C 
BRANCH   6   8
ATOM      7  O   UNL     1      32.830 -22.119 -19.583  0.00  0.00    -0.250 OA
ATOM      8  C   UNL     1      33.553 -21.169 -19.846  0.00  0.00    +0.314 C 
BRANCH   8   9
ATOM      9  O   UNL     1      34.875 -21.134 -19.534  0.00  0.00    -0.480 OA
ATOM     10  H   UNL     1      35.280 -20.322 -19.298  0.00  0.00    +0.295 HD
ENDBRANCH   8   9
ENDBRANCH   6   8
ENDBRANCH   1   6
TORSDOF 5
ENDMDL
MODEL 6
REMARK VINA RESULT:      -4.8      9.861     11.395
REMARK  Name = 131153
REMARK  5 active torsions:
REMARK  status: ('A' for Active; 'I' for Inactive)
REMARK    1  A    between atoms: C_1  and  C_3
REMARK    2  A    between atoms: C_1  and  C_6
REMARK    3  A    between atoms: C_3  and  C_5
REMARK    4  A    between atoms: C_6  and  C_8
REMARK    5  A    between atoms: C_8  and  O_9
REMARK                            x       y       z     vdW  Elec       q    Type
REMARK                         _______ _______ _______ _____ _____    ______ ____
ROOT
ATOM      1  C   UNL     1      35.701 -18.618 -22.946  0.00  0.00    +0.079 C 
ENDROOT
BRANCH   1   3
ATOM      2  O   UNL     1      35.579 -17.987 -20.612  0.00  0.00    -0.293 OA
ATOM      3  C   UNL     1      35.105 -18.631 -21.547  0.00  0.00    +0.187 C 
BRANCH   3   5
ATOM      4  F   UNL     1      33.901 -20.108 -20.143  0.00  0.00    -0.226 F 
ATOM      5  C   UNL     1      33.886 -19.495 -21.357  0.00  0.00    +0.257 C 
ENDBRANCH   3   5
ENDBRANCH   1   3
BRANCH   1   6
ATOM      6  C   UNL     1      34.685 -18.284 -24.035  0.00  0.00    +0.117 C 
BRANCH   6   8
ATOM      7  O   UNL     1      34.707 -16.674 -25.863  0.00  0.00    -0.250 OA
ATOM      8  C   UNL     1      34.957 -16.951 -24.699  0.00  0.00    +0.314 C 
BRANCH   8   9
ATOM      9  O   UNL     1      35.534 -16.075 -23.835  0.00  0.00    -0.480 OA
ATOM     10  H   UNL     1      35.749 -16.348 -22.964  0.00  0.00    +0.295 HD
ENDBRANCH   8   9
ENDBRANCH   6   8
ENDBRANCH   1   6
TORSDOF 5
ENDMDL
MODEL 7
REMARK VINA RESULT:      -4.8      2.672      3.676
REMARK  Name = 131153
REMARK  5 active torsions:
REMARK  status: ('A' for Active; 'I' for Inactive)
REMARK    1  A    between atoms: C_1  and  C_3
REMARK    2  A    between atoms: C_1  and  C_6
REMARK    3  A    between atoms: C_3  and  C_5
REMARK    4  A    between atoms: C_6  and  C_8
REMARK    5  A    between atoms: C_8  and  O_9
REMARK                            x       y       z     vdW  Elec       q    Type
REMARK                         _______ _______ _______ _____ _____    ______ ____
ROOT
ATOM      1  C   UNL     1      38.391 -25.387 -12.934  0.00  0.00    +0.079 C 
ENDROOT
BRANCH   1   3
ATOM      2  O   UNL     1      38.834 -23.355 -11.694  0.00  0.00    -0.293 OA
ATOM      3  C   UNL     1      38.021 -24.210 -12.045  0.00  0.00    +0.187 C 
BRANCH   3   5
ATOM      4  F   UNL     1      35.904 -23.175 -12.265  0.00  0.00    -0.226 F 
ATOM      5  C   UNL     1      36.585 -24.146 -11.598  0.00  0.00    +0.257 C 
ENDBRANCH   3   5
ENDBRANCH   1   3
BRANCH   1   6
ATOM      6  C   UNL     1      37.180 -26.137 -13.481  0.00  0.00    +0.117 C 
BRANCH   6   8
ATOM      7  O   UNL     1      36.384 -26.832 -15.676  0.00  0.00    -0.250 OA
ATOM      8  C   UNL     1      37.288 -26.422 -14.963  0.00  0.00    +0.314 C 
BRANCH   8   9
ATOM      9  O   UNL     1      38.542 -26.172 -15.426  0.00  0.00    -0.480 OA
ATOM     10  H   UNL     1      38.999 -25.403 -15.148  0.00  0.00    +0.295 HD
ENDBRANCH   8   9
ENDBRANCH   6   8
ENDBRANCH   1   6
TORSDOF 5
ENDMDL
MODEL 8
REMARK VINA RESULT:      -4.8      9.329     10.232
REMARK  Name = 131153
REMARK  5 active torsions:
REMARK  status: ('A' for Active; 'I' for Inactive)
REMARK    1  A    between atoms: C_1  and  C_3
REMARK    2  A    between atoms: C_1  and  C_6
REMARK    3  A    between atoms: C_3  and  C_5
REMARK    4  A    between atoms: C_6  and  C_8
REMARK    5  A    between atoms: C_8  and  O_9
REMARK                            x       y       z     vdW  Elec       q    Type
REMARK                         _______ _______ _______ _____ _____    ______ ____
ROOT
ATOM      1  C   UNL     1      42.636 -15.290 -16.672  0.00  0.00    +0.079 C 
ENDROOT
BRANCH   1   3
ATOM      2  O   UNL     1      41.808 -17.501 -17.210  0.00  0.00    -0.293 OA
ATOM      3  C   UNL     1      42.377 -16.477 -17.587  0.00  0.00    +0.187 C 
BRANCH   3   5
ATOM      4  F   UNL     1      41.867 -15.958 -19.839  0.00  0.00    -0.226 F 
ATOM      5  C   UNL     1      42.870 -16.339 -19.003  0.00  0.00    +0.257 C 
ENDBRANCH   3   5
ENDBRANCH   1   3
BRANCH   1   6
ATOM      6  C   UNL     1      41.389 -14.458 -16.392  0.00  0.00    +0.117 C 
BRANCH   6   8
ATOM      7  O   UNL     1      40.762 -14.135 -14.060  0.00  0.00    -0.250 OA
ATOM      8  C   UNL     1      40.731 -14.814 -15.077  0.00  0.00    +0.314 C 
BRANCH   8   9
ATOM      9  O   UNL     1      40.092 -16.011 -15.150  0.00  0.00    -0.480 OA
ATOM     10  H   UNL     1      39.760 -16.315 -15.972  0.00  0.00    +0.295 HD
ENDBRANCH   8   9
ENDBRANCH   6   8
ENDBRANCH   1   6
TORSDOF 5
ENDMDL
MODEL 9
REMARK VINA RESULT:      -4.7     10.682     11.984
REMARK  Name = 131153
REMARK  5 active torsions:
REMARK  status: ('A' for Active; 'I' for Inactive)
REMARK    1  A    between atoms: C_1  and  C_3
REMARK    2  A    between atoms: C_1  and  C_6
REMARK    3  A    between atoms: C_3  and  C_5
REMARK    4  A    between atoms: C_6  and  C_8
REMARK    5  A    between atoms: C_8  and  O_9
REMARK                            x       y       z     vdW  Elec       q    Type
REMARK                         _______ _______ _______ _____ _____    ______ ____
ROOT
ATOM      1  C   UNL     1      35.205 -16.307 -23.520  0.00  0.00    +0.079 C 
ENDROOT
BRANCH   1   3
ATOM      2  O   UNL     1      34.722 -17.112 -25.752  0.00  0.00    -0.293 OA
ATOM      3  C   UNL     1      34.858 -17.365 -24.556  0.00  0.00    +0.187 C 
BRANCH   3   5
ATOM      4  F   UNL     1      34.683 -19.675 -25.046  0.00  0.00    -0.226 F 
ATOM      5  C   UNL     1      34.676 -18.767 -24.034  0.00  0.00    +0.257 C 
ENDBRANCH   3   5
ENDBRANCH   1   3
BRANCH   1   6
ATOM      6  C   UNL     1      34.227 -16.263 -22.349  0.00  0.00    +0.117 C 
BRANCH   6   8
ATOM      7  O   UNL     1      35.394 -17.634 -20.708  0.00  0.00    -0.250 OA
ATOM      8  C   UNL     1      34.889 -16.566 -21.023  0.00  0.00    +0.314 C 
BRANCH   8   9
ATOM      9  O   UNL     1      34.850 -15.491 -20.192  0.00  0.00    -0.480 OA
ATOM     10  H   UNL     1      35.646 -15.064 -19.940  0.00  0.00    +0.295 HD
ENDBRANCH   8   9
ENDBRANCH   6   8
ENDBRANCH   1   6
TORSDOF 5
ENDMDL
