MODEL 1
REMARK VINA RESULT:      -6.9      0.000      0.000
REMARK  Name = 76883
REMARK  3 active torsions:
REMARK  status: ('A' for Active; 'I' for Inactive)
REMARK    1  A    between atoms: C_1  and  C_10
REMARK    2  A    between atoms: C_2  and  O_8
REMARK    3  A    between atoms: C_10  and  C_11
REMARK                            x       y       z     vdW  Elec       q    Type
REMARK                         _______ _______ _______ _____ _____    ______ ____
ROOT
ATOM      1  C   UNL     1      34.666 -19.363 -21.321  0.00  0.00    +0.016 C 
ATOM      2  C   UNL     1      35.693 -19.951 -20.583  0.00  0.00    +0.126 C 
ATOM      3  C   UNL     1      35.403 -20.957 -19.662  0.00  0.00    +0.012 C 
ATOM      4  C   UNL     1      33.348 -19.783 -21.138  0.00  0.00    -0.001 C 
ATOM      5  C   UNL     1      34.085 -21.377 -19.479  0.00  0.00    -0.001 C 
ATOM      6  C   UNL     1      33.058 -20.789 -20.217  0.00  0.00    -0.000 C 
ATOM      7  C   UNL     1      36.489 -21.599 -18.863  0.00  0.00    +0.034 C 
ENDROOT
BRANCH   2   8
ATOM      8  O   UNL     1      36.982 -19.542 -20.761  0.00  0.00    -0.506 OA
ATOM      9  H   UNL     1      37.267 -19.244 -21.602  0.00  0.00    +0.292 HD
ENDBRANCH   2   8
BRANCH   1  10
ATOM     10  C   UNL     1      34.956 -18.285 -22.312  0.00  0.00    +0.055 C 
BRANCH  10  11
ATOM     11  C   UNL     1      35.142 -18.807 -23.712  0.00  0.00    -0.021 C 
ATOM     12  C   UNL     1      34.501 -18.328 -24.784  0.00  0.00    -0.005 C 
ENDBRANCH  10  11
ENDBRANCH   1  10
TORSDOF 3
ENDMDL
MODEL 2
REMARK VINA RESULT:      -6.9      1.635      2.457
REMARK  Name = 76883
REMARK  3 active torsions:
REMARK  status: ('A' for Active; 'I' for Inactive)
REMARK    1  A    between atoms: C_1  and  C_10
REMARK    2  A    between atoms: C_2  and  O_8
REMARK    3  A    between atoms: C_10  and  C_11
REMARK                            x       y       z     vdW  Elec       q    Type
REMARK                         _______ _______ _______ _____ _____    ______ ____
ROOT
ATOM      1  C   UNL     1      34.762 -19.937 -20.737  0.00  0.00    +0.016 C 
ATOM      2  C   UNL     1      33.853 -20.756 -20.067  0.00  0.00    +0.126 C 
ATOM      3  C   UNL     1      34.311 -21.715 -19.164  0.00  0.00    +0.012 C 
ATOM      4  C   UNL     1      36.130 -20.078 -20.503  0.00  0.00    -0.001 C 
ATOM      5  C   UNL     1      35.679 -21.856 -18.930  0.00  0.00    -0.001 C 
ATOM      6  C   UNL     1      36.589 -21.037 -19.600  0.00  0.00    -0.000 C 
ATOM      7  C   UNL     1      33.354 -22.600 -18.437  0.00  0.00    +0.034 C 
ENDROOT
BRANCH   2   8
ATOM      8  O   UNL     1      32.515 -20.619 -20.294  0.00  0.00    -0.506 OA
ATOM      9  H   UNL     1      32.162 -19.783 -20.526  0.00  0.00    +0.292 HD
ENDBRANCH   2   8
BRANCH   1  10
ATOM     10  C   UNL     1      34.291 -18.904 -21.707  0.00  0.00    +0.055 C 
BRANCH  10  11
ATOM     11  C   UNL     1      35.166 -18.802 -22.928  0.00  0.00    -0.021 C 
ATOM     12  C   UNL     1      34.766 -19.109 -24.167  0.00  0.00    -0.005 C 
ENDBRANCH  10  11
ENDBRANCH   1  10
TORSDOF 3
ENDMDL
MODEL 3
REMARK VINA RESULT:      -6.8      1.751      4.682
REMARK  Name = 76883
REMARK  3 active torsions:
REMARK  status: ('A' for Active; 'I' for Inactive)
REMARK    1  A    between atoms: C_1  and  C_10
REMARK    2  A    between atoms: C_2  and  O_8
REMARK    3  A    between atoms: C_10  and  C_11
REMARK                            x       y       z     vdW  Elec       q    Type
REMARK                         _______ _______ _______ _____ _____    ______ ____
ROOT
ATOM      1  C   UNL     1      34.999 -18.638 -22.186  0.00  0.00    +0.016 C 
ATOM      2  C   UNL     1      34.895 -17.249 -22.109  0.00  0.00    +0.126 C 
ATOM      3  C   UNL     1      34.678 -16.500 -23.265  0.00  0.00    +0.012 C 
ATOM      4  C   UNL     1      34.887 -19.278 -23.421  0.00  0.00    -0.001 C 
ATOM      5  C   UNL     1      34.566 -17.140 -24.500  0.00  0.00    -0.001 C 
ATOM      6  C   UNL     1      34.670 -18.529 -24.577  0.00  0.00    -0.000 C 
ATOM      7  C   UNL     1      34.564 -15.013 -23.203  0.00  0.00    +0.034 C 
ENDROOT
BRANCH   2   8
ATOM      8  O   UNL     1      35.004 -16.622 -20.903  0.00  0.00    -0.506 OA
ATOM      9  H   UNL     1      35.357 -17.081 -20.166  0.00  0.00    +0.292 HD
ENDBRANCH   2   8
BRANCH   1  10
ATOM     10  C   UNL     1      35.230 -19.457 -20.959  0.00  0.00    +0.055 C 
BRANCH  10  11
ATOM     11  C   UNL     1      34.040 -20.299 -20.581  0.00  0.00    -0.021 C 
ATOM     12  C   UNL     1      32.782 -19.846 -20.539  0.00  0.00    -0.005 C 
ENDBRANCH  10  11
ENDBRANCH   1  10
TORSDOF 3
ENDMDL
MODEL 4
REMARK VINA RESULT:      -6.8      0.986      4.340
REMARK  Name = 76883
REMARK  3 active torsions:
REMARK  status: ('A' for Active; 'I' for Inactive)
REMARK    1  A    between atoms: C_1  and  C_10
REMARK    2  A    between atoms: C_2  and  O_8
REMARK    3  A    between atoms: C_10  and  C_11
REMARK                            x       y       z     vdW  Elec       q    Type
REMARK                         _______ _______ _______ _____ _____    ______ ____
ROOT
ATOM      1  C   UNL     1      35.426 -20.907 -19.746  0.00  0.00    +0.016 C 
ATOM      2  C   UNL     1      35.581 -19.824 -20.611  0.00  0.00    +0.126 C 
ATOM      3  C   UNL     1      34.466 -19.258 -21.227  0.00  0.00    +0.012 C 
ATOM      4  C   UNL     1      34.154 -21.425 -19.497  0.00  0.00    -0.001 C 
ATOM      5  C   UNL     1      33.194 -19.776 -20.979  0.00  0.00    -0.001 C 
ATOM      6  C   UNL     1      33.039 -20.859 -20.114  0.00  0.00    -0.000 C 
ATOM      7  C   UNL     1      34.611 -18.098 -22.155  0.00  0.00    +0.034 C 
ENDROOT
BRANCH   2   8
ATOM      8  O   UNL     1      36.824 -19.317 -20.854  0.00  0.00    -0.506 OA
ATOM      9  H   UNL     1      37.566 -19.888 -20.880  0.00  0.00    +0.292 HD
ENDBRANCH   2   8
BRANCH   1  10
ATOM     10  C   UNL     1      36.608 -21.527 -19.075  0.00  0.00    +0.055 C 
BRANCH  10  11
ATOM     11  C   UNL     1      36.336 -21.920 -17.648  0.00  0.00    -0.021 C 
ATOM     12  C   UNL     1      37.220 -21.795 -16.652  0.00  0.00    -0.005 C 
ENDBRANCH  10  11
ENDBRANCH   1  10
TORSDOF 3
ENDMDL
MODEL 5
REMARK VINA RESULT:      -6.7      1.868      4.870
REMARK  Name = 76883
REMARK  3 active torsions:
REMARK  status: ('A' for Active; 'I' for Inactive)
REMARK    1  A    between atoms: C_1  and  C_10
REMARK    2  A    between atoms: C_2  and  O_8
REMARK    3  A    between atoms: C_10  and  C_11
REMARK                            x       y       z     vdW  Elec       q    Type
REMARK                         _______ _______ _______ _____ _____    ______ ____
ROOT
ATOM      1  C   UNL     1      34.820 -18.187 -21.705  0.00  0.00    +0.016 C 
ATOM      2  C   UNL     1      34.818 -18.160 -23.099  0.00  0.00    +0.126 C 
ATOM      3  C   UNL     1      34.768 -16.940 -23.773  0.00  0.00    +0.012 C 
ATOM      4  C   UNL     1      34.773 -16.993 -20.984  0.00  0.00    -0.001 C 
ATOM      5  C   UNL     1      34.721 -15.746 -23.053  0.00  0.00    -0.001 C 
ATOM      6  C   UNL     1      34.724 -15.773 -21.658  0.00  0.00    -0.000 C 
ATOM      7  C   UNL     1      34.766 -16.890 -25.266  0.00  0.00    +0.034 C 
ENDROOT
BRANCH   2   8
ATOM      8  O   UNL     1      34.864 -19.326 -23.805  0.00  0.00    -0.506 OA
ATOM      9  H   UNL     1      34.260 -20.016 -23.611  0.00  0.00    +0.292 HD
ENDBRANCH   2   8
BRANCH   1  10
ATOM     10  C   UNL     1      34.873 -19.483 -20.964  0.00  0.00    +0.055 C 
BRANCH  10  11
ATOM     11  C   UNL     1      33.510 -20.014 -20.609  0.00  0.00    -0.021 C 
ATOM     12  C   UNL     1      33.296 -21.033 -19.769  0.00  0.00    -0.005 C 
ENDBRANCH  10  11
ENDBRANCH   1  10
TORSDOF 3
ENDMDL
MODEL 6
REMARK VINA RESULT:      -6.6      2.125      5.087
REMARK  Name = 76883
REMARK  3 active torsions:
REMARK  status: ('A' for Active; 'I' for Inactive)
REMARK    1  A    between atoms: C_1  and  C_10
REMARK    2  A    between atoms: C_2  and  O_8
REMARK    3  A    between atoms: C_10  and  C_11
REMARK                            x       y       z     vdW  Elec       q    Type
REMARK                         _______ _______ _______ _____ _____    ______ ____
ROOT
ATOM      1  C   UNL     1      34.285 -21.583 -19.353  0.00  0.00    +0.016 C 
ATOM      2  C   UNL     1      33.846 -20.581 -20.218  0.00  0.00    +0.126 C 
ATOM      3  C   UNL     1      34.772 -19.763 -20.866  0.00  0.00    +0.012 C 
ATOM      4  C   UNL     1      35.651 -21.768 -19.136  0.00  0.00    -0.001 C 
ATOM      5  C   UNL     1      36.138 -19.948 -20.648  0.00  0.00    -0.001 C 
ATOM      6  C   UNL     1      36.577 -20.950 -19.783  0.00  0.00    -0.000 C 
ATOM      7  C   UNL     1      34.322 -18.685 -21.795  0.00  0.00    +0.034 C 
ENDROOT
BRANCH   2   8
ATOM      8  O   UNL     1      32.512 -20.400 -20.432  0.00  0.00    -0.506 OA
ATOM      9  H   UNL     1      31.942 -20.217 -19.711  0.00  0.00    +0.292 HD
ENDBRANCH   2   8
BRANCH   1  10
ATOM     10  C   UNL     1      33.310 -22.470 -18.651  0.00  0.00    +0.055 C 
BRANCH  10  11
ATOM     11  C   UNL     1      33.858 -23.053 -17.376  0.00  0.00    -0.021 C 
ATOM     12  C   UNL     1      33.120 -23.311 -16.290  0.00  0.00    -0.005 C 
ENDBRANCH  10  11
ENDBRANCH   1  10
TORSDOF 3
ENDMDL
MODEL 7
REMARK VINA RESULT:      -6.5      3.038      5.973
REMARK  Name = 76883
REMARK  3 active torsions:
REMARK  status: ('A' for Active; 'I' for Inactive)
REMARK    1  A    between atoms: C_1  and  C_10
REMARK    2  A    between atoms: C_2  and  O_8
REMARK    3  A    between atoms: C_10  and  C_11
REMARK                            x       y       z     vdW  Elec       q    Type
REMARK                         _______ _______ _______ _____ _____    ______ ____
ROOT
ATOM      1  C   UNL     1      34.888 -16.994 -23.513  0.00  0.00    +0.016 C 
ATOM      2  C   UNL     1      34.286 -16.676 -24.730  0.00  0.00    +0.126 C 
ATOM      3  C   UNL     1      33.718 -15.416 -24.919  0.00  0.00    +0.012 C 
ATOM      4  C   UNL     1      34.924 -16.052 -22.485  0.00  0.00    -0.001 C 
ATOM      5  C   UNL     1      33.754 -14.473 -23.891  0.00  0.00    -0.001 C 
ATOM      6  C   UNL     1      34.357 -14.792 -22.674  0.00  0.00    -0.000 C 
ATOM      7  C   UNL     1      33.069 -15.056 -26.215  0.00  0.00    +0.034 C 
ENDROOT
BRANCH   2   8
ATOM      8  O   UNL     1      34.251 -17.596 -25.736  0.00  0.00    -0.506 OA
ATOM      9  H   UNL     1      33.820 -18.418 -25.605  0.00  0.00    +0.292 HD
ENDBRANCH   2   8
BRANCH   1  10
ATOM     10  C   UNL     1      35.502 -18.338 -23.291  0.00  0.00    +0.055 C 
BRANCH  10  11
ATOM     11  C   UNL     1      34.587 -19.290 -22.569  0.00  0.00    -0.021 C 
ATOM     12  C   UNL     1      34.744 -19.662 -21.293  0.00  0.00    -0.005 C 
ENDBRANCH  10  11
ENDBRANCH   1  10
TORSDOF 3
ENDMDL
MODEL 8
REMARK VINA RESULT:      -6.5      2.973      4.945
REMARK  Name = 76883
REMARK  3 active torsions:
REMARK  status: ('A' for Active; 'I' for Inactive)
REMARK    1  A    between atoms: C_1  and  C_10
REMARK    2  A    between atoms: C_2  and  O_8
REMARK    3  A    between atoms: C_10  and  C_11
REMARK                            x       y       z     vdW  Elec       q    Type
REMARK                         _______ _______ _______ _____ _____    ______ ____
ROOT
ATOM      1  C   UNL     1      34.654 -16.693 -21.650  0.00  0.00    +0.016 C 
ATOM      2  C   UNL     1      34.761 -16.387 -23.007  0.00  0.00    +0.126 C 
ATOM      3  C   UNL     1      34.795 -17.412 -23.952  0.00  0.00    +0.012 C 
ATOM      4  C   UNL     1      34.581 -18.024 -21.239  0.00  0.00    -0.001 C 
ATOM      5  C   UNL     1      34.722 -18.743 -23.541  0.00  0.00    -0.001 C 
ATOM      6  C   UNL     1      34.615 -19.049 -22.184  0.00  0.00    -0.000 C 
ATOM      7  C   UNL     1      34.908 -17.105 -25.409  0.00  0.00    +0.034 C 
ENDROOT
BRANCH   2   8
ATOM      8  O   UNL     1      34.831 -15.087 -23.410  0.00  0.00    -0.506 OA
ATOM      9  H   UNL     1      35.017 -14.412 -22.787  0.00  0.00    +0.292 HD
ENDBRANCH   2   8
BRANCH   1  10
ATOM     10  C   UNL     1      34.615 -15.610 -20.622  0.00  0.00    +0.055 C 
BRANCH  10  11
ATOM     11  C   UNL     1      33.221 -15.116 -20.341  0.00  0.00    -0.021 C 
ATOM     12  C   UNL     1      32.698 -14.002 -20.867  0.00  0.00    -0.005 C 
ENDBRANCH  10  11
ENDBRANCH   1  10
TORSDOF 3
ENDMDL
MODEL 9
REMARK VINA RESULT:      -6.4     10.081     11.210
REMARK  Name = 76883
REMARK  3 active torsions:
REMARK  status: ('A' for Active; 'I' for Inactive)
REMARK    1  A    between atoms: C_1  and  C_10
REMARK    2  A    between atoms: C_2  and  O_8
REMARK    3  A    between atoms: C_10  and  C_11
REMARK                            x       y       z     vdW  Elec       q    Type
REMARK                         _______ _______ _______ _____ _____    ______ ____
ROOT
ATOM      1  C   UNL     1      32.355  -8.703 -21.820  0.00  0.00    +0.016 C 
ATOM      2  C   UNL     1      32.233  -9.074 -20.481  0.00  0.00    +0.126 C 
ATOM      3  C   UNL     1      31.577 -10.257 -20.141  0.00  0.00    +0.012 C 
ATOM      4  C   UNL     1      31.822  -9.517 -22.820  0.00  0.00    -0.001 C 
ATOM      5  C   UNL     1      31.044 -11.071 -21.142  0.00  0.00    -0.001 C 
ATOM      6  C   UNL     1      31.167 -10.700 -22.481  0.00  0.00    -0.000 C 
ATOM      7  C   UNL     1      31.436 -10.671 -18.714  0.00  0.00    +0.034 C 
ENDROOT
BRANCH   2   8
ATOM      8  O   UNL     1      32.754  -8.280 -19.502  0.00  0.00    -0.506 OA
ATOM      9  H   UNL     1      32.218  -8.009 -18.783  0.00  0.00    +0.292 HD
ENDBRANCH   2   8
BRANCH   1  10
ATOM     10  C   UNL     1      33.054  -7.440 -22.204  0.00  0.00    +0.055 C 
BRANCH  10  11
ATOM     11  C   UNL     1      34.288  -7.679 -23.032  0.00  0.00    -0.021 C 
ATOM     12  C   UNL     1      34.527  -7.093 -24.210  0.00  0.00    -0.005 C 
ENDBRANCH  10  11
ENDBRANCH   1  10
TORSDOF 3
ENDMDL
