MODEL 1
REMARK VINA RESULT:      -7.7      0.000      0.000
REMARK  Name = 446056
REMARK  6 active torsions:
REMARK  status: ('A' for Active; 'I' for Inactive)
REMARK    1  A    between atoms: CA_1  and  N_3
REMARK    2  A    between atoms: CA_1  and  C_11
REMARK    3  A    between atoms: CA_1  and  CB_14
REMARK    4  A    between atoms: N_4  and  O_8
REMARK    5  A    between atoms: C_11  and  O_12
REMARK    6  A    between atoms: CB_14  and  CG_15
REMARK                            x       y       z     vdW  Elec       q    Type
REMARK                         _______ _______ _______ _____ _____    ______ ____
ROOT
ATOM      1  CA  UNL     1      35.640 -24.679 -14.432  0.00  0.00    +0.177 C 
ENDROOT
BRANCH   1   3
ATOM      2  O   UNL     1      34.866 -24.973 -11.690  0.00  0.00    -0.251 OA
ATOM      3  N   UNL     1      36.342 -24.163 -13.283  0.00  0.00    -0.279 N 
ATOM      4  N   UNL     1      36.737 -23.778 -11.059  0.00  0.00    -0.181 N 
ATOM      5  C   ACE A   0      35.889 -24.355 -11.981  0.00  0.00    +0.323 C 
ATOM      6  H   UNL     1      37.172 -23.655 -13.425  0.00  0.00    +0.151 HD
ATOM      7  H   UNL     1      37.549 -23.290 -11.328  0.00  0.00    +0.184 HD
BRANCH   4   8
ATOM      8  O   UNL     1      36.372 -23.930  -9.714  0.00  0.00    -0.294 OA
ATOM      9  H   UNL     1      36.853 -24.679  -9.331  0.00  0.00    +0.241 HD
ENDBRANCH   4   8
ENDBRANCH   1   3
BRANCH   1  11
ATOM     10  OXT UNL     1      36.004 -26.719 -15.679  0.00  0.00    -0.248 OA
ATOM     11  C   UNL     1      36.481 -25.711 -15.169  0.00  0.00    +0.332 C 
BRANCH  11  12
ATOM     12  O   UNL     1      37.804 -25.429 -15.229  0.00  0.00    -0.479 OA
ATOM     13  H   UNL     1      38.432 -26.068 -14.957  0.00  0.00    +0.295 HD
ENDBRANCH  11  12
ENDBRANCH   1  11
BRANCH   1  14
ATOM     14  CB  UNL     1      35.238 -23.549 -15.389  0.00  0.00    +0.057 C 
BRANCH  14  15
ATOM     15  CG  UNL     1      33.742 -23.388 -15.514  0.00  0.00    -0.020 C 
ATOM     16  CD1 UNL     1      32.959 -23.408 -14.371  0.00  0.00    -0.004 C 
ATOM     17  CD2 UNL     1      33.179 -23.227 -16.769  0.00  0.00    -0.004 C 
ATOM     18  CE1 UNL     1      31.577 -23.260 -14.486  0.00  0.00    -0.000 C 
ATOM     19  CE2 UNL     1      31.797 -23.079 -16.886  0.00  0.00    -0.000 C 
ATOM     20  CZ  UNL     1      30.996 -23.096 -15.743  0.00  0.00    -0.000 C 
ENDBRANCH  14  15
ENDBRANCH   1  14
TORSDOF 6
ENDMDL
MODEL 2
REMARK VINA RESULT:      -7.7      8.907     10.200
REMARK  Name = 446056
REMARK  6 active torsions:
REMARK  status: ('A' for Active; 'I' for Inactive)
REMARK    1  A    between atoms: CA_1  and  N_3
REMARK    2  A    between atoms: CA_1  and  C_11
REMARK    3  A    between atoms: CA_1  and  CB_14
REMARK    4  A    between atoms: N_4  and  O_8
REMARK    5  A    between atoms: C_11  and  O_12
REMARK    6  A    between atoms: CB_14  and  CG_15
REMARK                            x       y       z     vdW  Elec       q    Type
REMARK                         _______ _______ _______ _____ _____    ______ ____
ROOT
ATOM      1  CA  UNL     1      34.482 -18.391 -21.599  0.00  0.00    +0.177 C 
ENDROOT
BRANCH   1   3
ATOM      2  O   UNL     1      32.424 -20.266 -20.925  0.00  0.00    -0.251 OA
ATOM      3  N   UNL     1      34.584 -19.471 -20.649  0.00  0.00    -0.279 N 
ATOM      4  N   UNL     1      33.874 -21.290 -19.449  0.00  0.00    -0.181 N 
ATOM      5  C   ACE A   0      33.526 -20.337 -20.384  0.00  0.00    +0.323 C 
ATOM      6  H   UNL     1      35.433 -19.601 -20.169  0.00  0.00    +0.151 HD
ATOM      7  H   UNL     1      34.767 -21.316 -19.036  0.00  0.00    +0.184 HD
BRANCH   4   8
ATOM      8  O   UNL     1      32.876 -22.219 -19.125  0.00  0.00    -0.294 OA
ATOM      9  H   UNL     1      33.054 -22.593 -18.248  0.00  0.00    +0.241 HD
ENDBRANCH   4   8
ENDBRANCH   1   3
BRANCH   1  11
ATOM     10  OXT UNL     1      34.782 -19.361 -23.795  0.00  0.00    -0.248 OA
ATOM     11  C   UNL     1      35.255 -18.707 -22.872  0.00  0.00    +0.332 C 
BRANCH  11  12
ATOM     12  O   UNL     1      36.511 -18.203 -22.914  0.00  0.00    -0.479 OA
ATOM     13  H   UNL     1      37.248 -18.780 -22.894  0.00  0.00    +0.295 HD
ENDBRANCH  11  12
ENDBRANCH   1  11
BRANCH   1  14
ATOM     14  CB  UNL     1      34.982 -17.073 -20.995  0.00  0.00    +0.057 C 
BRANCH  14  15
ATOM     15  CG  UNL     1      34.202 -15.873 -21.475  0.00  0.00    -0.020 C 
ATOM     16  CD1 UNL     1      33.101 -15.445 -20.752  0.00  0.00    -0.004 C 
ATOM     17  CD2 UNL     1      34.601 -15.223 -22.632  0.00  0.00    -0.004 C 
ATOM     18  CE1 UNL     1      32.380 -14.336 -21.196  0.00  0.00    -0.000 C 
ATOM     19  CE2 UNL     1      33.881 -14.114 -23.077  0.00  0.00    -0.000 C 
ATOM     20  CZ  UNL     1      32.769 -13.671 -22.358  0.00  0.00    -0.000 C 
ENDBRANCH  14  15
ENDBRANCH   1  14
TORSDOF 6
ENDMDL
MODEL 3
REMARK VINA RESULT:      -7.6      1.864      3.803
REMARK  Name = 446056
REMARK  6 active torsions:
REMARK  status: ('A' for Active; 'I' for Inactive)
REMARK    1  A    between atoms: CA_1  and  N_3
REMARK    2  A    between atoms: CA_1  and  C_11
REMARK    3  A    between atoms: CA_1  and  CB_14
REMARK    4  A    between atoms: N_4  and  O_8
REMARK    5  A    between atoms: C_11  and  O_12
REMARK    6  A    between atoms: CB_14  and  CG_15
REMARK                            x       y       z     vdW  Elec       q    Type
REMARK                         _______ _______ _______ _____ _____    ______ ____
ROOT
ATOM      1  CA  UNL     1      36.762 -23.849 -13.131  0.00  0.00    +0.177 C 
ENDROOT
BRANCH   1   3
ATOM      2  O   UNL     1      38.575 -23.620 -15.337  0.00  0.00    -0.251 OA
ATOM      3  N   UNL     1      37.660 -24.869 -13.612  0.00  0.00    -0.279 N 
ATOM      4  N   UNL     1      39.275 -25.786 -14.955  0.00  0.00    -0.181 N 
ATOM      5  C   ACE A   0      38.509 -24.668 -14.697  0.00  0.00    +0.323 C 
ATOM      6  H   UNL     1      37.672 -25.742 -13.158  0.00  0.00    +0.151 HD
ATOM      7  H   UNL     1      39.195 -26.610 -14.421  0.00  0.00    +0.184 HD
BRANCH   4   8
ATOM      8  O   UNL     1      40.174 -25.676 -16.025  0.00  0.00    -0.294 OA
ATOM      9  H   UNL     1      40.450 -26.562 -16.308  0.00  0.00    +0.241 HD
ENDBRANCH   4   8
ENDBRANCH   1   3
BRANCH   1  11
ATOM     10  OXT UNL     1      37.038 -23.821 -10.728  0.00  0.00    -0.248 OA
ATOM     11  C   UNL     1      37.245 -23.275 -11.807  0.00  0.00    +0.332 C 
BRANCH  11  12
ATOM     12  O   UNL     1      37.932 -22.113 -11.907  0.00  0.00    -0.479 OA
ATOM     13  H   UNL     1      38.236 -21.818 -12.742  0.00  0.00    +0.295 HD
ENDBRANCH  11  12
ENDBRANCH   1  11
BRANCH   1  14
ATOM     14  CB  UNL     1      35.336 -24.393 -12.978  0.00  0.00    +0.057 C 
BRANCH  14  15
ATOM     15  CG  UNL     1      34.430 -23.996 -14.118  0.00  0.00    -0.020 C 
ATOM     16  CD1 UNL     1      33.057 -24.007 -13.930  0.00  0.00    -0.004 C 
ATOM     17  CD2 UNL     1      34.986 -23.630 -15.333  0.00  0.00    -0.004 C 
ATOM     18  CE1 UNL     1      32.219 -23.641 -14.983  0.00  0.00    -0.000 C 
ATOM     19  CE2 UNL     1      34.150 -23.264 -16.387  0.00  0.00    -0.000 C 
ATOM     20  CZ  UNL     1      32.765 -23.269 -16.212  0.00  0.00    -0.000 C 
ENDBRANCH  14  15
ENDBRANCH   1  14
TORSDOF 6
ENDMDL
MODEL 4
REMARK VINA RESULT:      -7.6      1.634      2.447
REMARK  Name = 446056
REMARK  6 active torsions:
REMARK  status: ('A' for Active; 'I' for Inactive)
REMARK    1  A    between atoms: CA_1  and  N_3
REMARK    2  A    between atoms: CA_1  and  C_11
REMARK    3  A    between atoms: CA_1  and  CB_14
REMARK    4  A    between atoms: N_4  and  O_8
REMARK    5  A    between atoms: C_11  and  O_12
REMARK    6  A    between atoms: CB_14  and  CG_15
REMARK                            x       y       z     vdW  Elec       q    Type
REMARK                         _______ _______ _______ _____ _____    ______ ____
ROOT
ATOM      1  CA  UNL     1      36.070 -24.298 -14.482  0.00  0.00    +0.177 C 
ENDROOT
BRANCH   1   3
ATOM      2  O   UNL     1      34.304 -24.545 -12.240  0.00  0.00    -0.251 OA
ATOM      3  N   UNL     1      36.444 -24.275 -13.089  0.00  0.00    -0.279 N 
ATOM      4  N   UNL     1      36.117 -24.361 -10.822  0.00  0.00    -0.181 N 
ATOM      5  C   ACE A   0      35.513 -24.402 -12.062  0.00  0.00    +0.323 C 
ATOM      6  H   UNL     1      37.394 -24.164 -12.856  0.00  0.00    +0.151 HD
ATOM      7  H   UNL     1      37.089 -24.245 -10.718  0.00  0.00    +0.184 HD
BRANCH   4   8
ATOM      8  O   UNL     1      35.261 -24.495  -9.722  0.00  0.00    -0.294 OA
ATOM      9  H   UNL     1      35.363 -25.380  -9.338  0.00  0.00    +0.241 HD
ENDBRANCH   4   8
ENDBRANCH   1   3
BRANCH   1  11
ATOM     10  OXT UNL     1      36.040 -26.418 -15.644  0.00  0.00    -0.248 OA
ATOM     11  C   UNL     1      36.698 -25.485 -15.197  0.00  0.00    +0.332 C 
BRANCH  11  12
ATOM     12  O   UNL     1      38.046 -25.431 -15.314  0.00  0.00    -0.479 OA
ATOM     13  H   UNL     1      38.588 -25.611 -14.572  0.00  0.00    +0.295 HD
ENDBRANCH  11  12
ENDBRANCH   1  11
BRANCH   1  14
ATOM     14  CB  UNL     1      36.468 -22.992 -15.183  0.00  0.00    +0.057 C 
BRANCH  14  15
ATOM     15  CG  UNL     1      35.694 -22.750 -16.456  0.00  0.00    -0.020 C 
ATOM     16  CD1 UNL     1      36.311 -22.097 -17.511  0.00  0.00    -0.004 C 
ATOM     17  CD2 UNL     1      34.381 -23.183 -16.547  0.00  0.00    -0.004 C 
ATOM     18  CE1 UNL     1      35.596 -21.872 -18.688  0.00  0.00    -0.000 C 
ATOM     19  CE2 UNL     1      33.666 -22.959 -17.723  0.00  0.00    -0.000 C 
ATOM     20  CZ  UNL     1      34.274 -22.303 -18.794  0.00  0.00    -0.000 C 
ENDBRANCH  14  15
ENDBRANCH   1  14
TORSDOF 6
ENDMDL
MODEL 5
REMARK VINA RESULT:      -7.5     10.284     11.554
REMARK  Name = 446056
REMARK  6 active torsions:
REMARK  status: ('A' for Active; 'I' for Inactive)
REMARK    1  A    between atoms: CA_1  and  N_3
REMARK    2  A    between atoms: CA_1  and  C_11
REMARK    3  A    between atoms: CA_1  and  CB_14
REMARK    4  A    between atoms: N_4  and  O_8
REMARK    5  A    between atoms: C_11  and  O_12
REMARK    6  A    between atoms: CB_14  and  CG_15
REMARK                            x       y       z     vdW  Elec       q    Type
REMARK                         _______ _______ _______ _____ _____    ______ ____
ROOT
ATOM      1  CA  UNL     1      34.799 -17.205 -23.420  0.00  0.00    +0.177 C 
ENDROOT
BRANCH   1   3
ATOM      2  O   UNL     1      34.580 -18.663 -20.964  0.00  0.00    -0.251 OA
ATOM      3  N   UNL     1      35.876 -17.840 -22.700  0.00  0.00    -0.279 N 
ATOM      4  N   UNL     1      36.854 -19.055 -21.021  0.00  0.00    -0.181 N 
ATOM      5  C   ACE A   0      35.675 -18.530 -21.508  0.00  0.00    +0.323 C 
ATOM      6  H   UNL     1      36.787 -17.782 -23.065  0.00  0.00    +0.151 HD
ATOM      7  H   UNL     1      37.714 -18.928 -21.484  0.00  0.00    +0.184 HD
BRANCH   4   8
ATOM      8  O   UNL     1      36.751 -19.782 -19.828  0.00  0.00    -0.294 OA
ATOM      9  H   UNL     1      35.840 -19.739 -19.500  0.00  0.00    +0.241 HD
ENDBRANCH   4   8
ENDBRANCH   1   3
BRANCH   1  11
ATOM     10  OXT UNL     1      34.417 -19.001 -24.993  0.00  0.00    -0.248 OA
ATOM     11  C   UNL     1      34.636 -17.809 -24.807  0.00  0.00    +0.332 C 
BRANCH  11  12
ATOM     12  O   UNL     1      34.745 -16.927 -25.828  0.00  0.00    -0.479 OA
ATOM     13  H   UNL     1      34.999 -16.042 -25.658  0.00  0.00    +0.295 HD
ENDBRANCH  11  12
ENDBRANCH   1  11
BRANCH   1  14
ATOM     14  CB  UNL     1      35.023 -15.692 -23.529  0.00  0.00    +0.057 C 
BRANCH  14  15
ATOM     15  CG  UNL     1      34.023 -14.890 -22.732  0.00  0.00    -0.020 C 
ATOM     16  CD1 UNL     1      33.840 -15.175 -21.389  0.00  0.00    -0.004 C 
ATOM     17  CD2 UNL     1      33.305 -13.884 -23.358  0.00  0.00    -0.004 C 
ATOM     18  CE1 UNL     1      32.916 -14.435 -20.651  0.00  0.00    -0.000 C 
ATOM     19  CE2 UNL     1      32.380 -13.143 -22.622  0.00  0.00    -0.000 C 
ATOM     20  CZ  UNL     1      32.186 -13.419 -21.268  0.00  0.00    -0.000 C 
ENDBRANCH  14  15
ENDBRANCH   1  14
TORSDOF 6
ENDMDL
MODEL 6
REMARK VINA RESULT:      -7.5      8.798     10.116
REMARK  Name = 446056
REMARK  6 active torsions:
REMARK  status: ('A' for Active; 'I' for Inactive)
REMARK    1  A    between atoms: CA_1  and  N_3
REMARK    2  A    between atoms: CA_1  and  C_11
REMARK    3  A    between atoms: CA_1  and  CB_14
REMARK    4  A    between atoms: N_4  and  O_8
REMARK    5  A    between atoms: C_11  and  O_12
REMARK    6  A    between atoms: CB_14  and  CG_15
REMARK                            x       y       z     vdW  Elec       q    Type
REMARK                         _______ _______ _______ _____ _____    ______ ____
ROOT
ATOM      1  CA  UNL     1      34.564 -17.881 -21.652  0.00  0.00    +0.177 C 
ENDROOT
BRANCH   1   3
ATOM      2  O   UNL     1      34.805 -15.359 -20.313  0.00  0.00    -0.251 OA
ATOM      3  N   UNL     1      33.539 -16.874 -21.528  0.00  0.00    -0.279 N 
ATOM      4  N   UNL     1      32.622 -14.875 -20.884  0.00  0.00    -0.181 N 
ATOM      5  C   ACE A   0      33.747 -15.673 -20.855  0.00  0.00    +0.323 C 
ATOM      6  H   UNL     1      32.658 -17.044 -21.932  0.00  0.00    +0.151 HD
ATOM      7  H   UNL     1      31.790 -15.159 -21.328  0.00  0.00    +0.184 HD
BRANCH   4   8
ATOM      8  O   UNL     1      32.737 -13.634 -20.244  0.00  0.00    -0.294 OA
ATOM      9  H   UNL     1      33.252 -13.737 -19.428  0.00  0.00    +0.241 HD
ENDBRANCH   4   8
ENDBRANCH   1   3
BRANCH   1  11
ATOM     10  OXT UNL     1      35.887 -18.541 -23.566  0.00  0.00    -0.248 OA
ATOM     11  C   UNL     1      35.427 -17.634 -22.881  0.00  0.00    +0.332 C 
BRANCH  11  12
ATOM     12  O   UNL     1      35.646 -16.329 -23.169  0.00  0.00    -0.479 OA
ATOM     13  H   UNL     1      36.268 -16.093 -23.828  0.00  0.00    +0.295 HD
ENDBRANCH  11  12
ENDBRANCH   1  11
BRANCH   1  14
ATOM     14  CB  UNL     1      33.955 -19.287 -21.712  0.00  0.00    +0.057 C 
BRANCH  14  15
ATOM     15  CG  UNL     1      34.516 -20.216 -20.662  0.00  0.00    -0.020 C 
ATOM     16  CD1 UNL     1      33.650 -21.001 -19.918  0.00  0.00    -0.004 C 
ATOM     17  CD2 UNL     1      35.885 -20.265 -20.460  0.00  0.00    -0.004 C 
ATOM     18  CE1 UNL     1      34.167 -21.859 -18.947  0.00  0.00    -0.000 C 
ATOM     19  CE2 UNL     1      36.404 -21.123 -19.490  0.00  0.00    -0.000 C 
ATOM     20  CZ  UNL     1      35.544 -21.920 -18.733  0.00  0.00    -0.000 C 
ENDBRANCH  14  15
ENDBRANCH   1  14
TORSDOF 6
ENDMDL
MODEL 7
REMARK VINA RESULT:      -7.5      2.153      4.168
REMARK  Name = 446056
REMARK  6 active torsions:
REMARK  status: ('A' for Active; 'I' for Inactive)
REMARK    1  A    between atoms: CA_1  and  N_3
REMARK    2  A    between atoms: CA_1  and  C_11
REMARK    3  A    between atoms: CA_1  and  CB_14
REMARK    4  A    between atoms: N_4  and  O_8
REMARK    5  A    between atoms: C_11  and  O_12
REMARK    6  A    between atoms: CB_14  and  CG_15
REMARK                            x       y       z     vdW  Elec       q    Type
REMARK                         _______ _______ _______ _____ _____    ______ ____
ROOT
ATOM      1  CA  UNL     1      34.925 -24.066 -14.451  0.00  0.00    +0.177 C 
ENDROOT
BRANCH   1   3
ATOM      2  O   UNL     1      37.703 -24.749 -14.288  0.00  0.00    -0.251 OA
ATOM      3  N   UNL     1      35.505 -25.365 -14.691  0.00  0.00    -0.279 N 
ATOM      4  N   UNL     1      37.177 -26.924 -14.853  0.00  0.00    -0.181 N 
ATOM      5  C   ACE A   0      36.872 -25.605 -14.588  0.00  0.00    +0.323 C 
ATOM      6  H   UNL     1      34.911 -26.110 -14.938  0.00  0.00    +0.151 HD
ATOM      7  H   UNL     1      36.485 -27.583 -15.091  0.00  0.00    +0.184 HD
BRANCH   4   8
ATOM      8  O   UNL     1      38.532 -27.268 -14.762  0.00  0.00    -0.294 OA
ATOM      9  H   UNL     1      38.617 -28.148 -14.363  0.00  0.00    +0.241 HD
ENDBRANCH   4   8
ENDBRANCH   1   3
BRANCH   1  11
ATOM     10  OXT UNL     1      34.632 -24.539 -12.097  0.00  0.00    -0.248 OA
ATOM     11  C   UNL     1      34.185 -24.035 -13.122  0.00  0.00    +0.332 C 
BRANCH  11  12
ATOM     12  O   UNL     1      32.990 -23.398 -13.151  0.00  0.00    -0.479 OA
ATOM     13  H   UNL     1      32.922 -22.516 -12.846  0.00  0.00    +0.295 HD
ENDBRANCH  11  12
ENDBRANCH   1  11
BRANCH   1  14
ATOM     14  CB  UNL     1      33.979 -23.664 -15.589  0.00  0.00    +0.057 C 
BRANCH  14  15
ATOM     15  CG  UNL     1      34.688 -22.964 -16.724  0.00  0.00    -0.020 C 
ATOM     16  CD1 UNL     1      34.032 -22.796 -17.932  0.00  0.00    -0.004 C 
ATOM     17  CD2 UNL     1      35.982 -22.505 -16.536  0.00  0.00    -0.004 C 
ATOM     18  CE1 UNL     1      34.687 -22.150 -18.982  0.00  0.00    -0.000 C 
ATOM     19  CE2 UNL     1      36.637 -21.859 -17.584  0.00  0.00    -0.000 C 
ATOM     20  CZ  UNL     1      35.989 -21.682 -18.808  0.00  0.00    -0.000 C 
ENDBRANCH  14  15
ENDBRANCH   1  14
TORSDOF 6
ENDMDL
MODEL 8
REMARK VINA RESULT:      -7.4      2.310      3.309
REMARK  Name = 446056
REMARK  6 active torsions:
REMARK  status: ('A' for Active; 'I' for Inactive)
REMARK    1  A    between atoms: CA_1  and  N_3
REMARK    2  A    between atoms: CA_1  and  C_11
REMARK    3  A    between atoms: CA_1  and  CB_14
REMARK    4  A    between atoms: N_4  and  O_8
REMARK    5  A    between atoms: C_11  and  O_12
REMARK    6  A    between atoms: CB_14  and  CG_15
REMARK                            x       y       z     vdW  Elec       q    Type
REMARK                         _______ _______ _______ _____ _____    ______ ____
ROOT
ATOM      1  CA  UNL     1      38.801 -25.752 -13.976  0.00  0.00    +0.177 C 
ENDROOT
BRANCH   1   3
ATOM      2  O   UNL     1      37.126 -26.098 -11.678  0.00  0.00    -0.251 OA
ATOM      3  N   UNL     1      38.395 -24.725 -13.049  0.00  0.00    -0.279 N 
ATOM      4  N   UNL     1      37.338 -23.846 -11.215  0.00  0.00    -0.181 N 
ATOM      5  C   ACE A   0      37.574 -24.986 -11.955  0.00  0.00    +0.323 C 
ATOM      6  H   UNL     1      38.708 -23.804 -13.196  0.00  0.00    +0.151 HD
ATOM      7  H   UNL     1      37.713 -22.971 -11.467  0.00  0.00    +0.184 HD
BRANCH   4   8
ATOM      8  O   UNL     1      36.530 -24.010 -10.082  0.00  0.00    -0.294 OA
ATOM      9  H   UNL     1      36.975 -23.629  -9.309  0.00  0.00    +0.241 HD
ENDBRANCH   4   8
ENDBRANCH   1   3
BRANCH   1  11
ATOM     10  OXT UNL     1      40.953 -24.661 -14.143  0.00  0.00    -0.248 OA
ATOM     11  C   UNL     1      40.110 -25.385 -14.661  0.00  0.00    +0.332 C 
BRANCH  11  12
ATOM     12  O   UNL     1      40.279 -25.925 -15.891  0.00  0.00    -0.479 OA
ATOM     13  H   UNL     1      39.534 -26.124 -16.422  0.00  0.00    +0.295 HD
ENDBRANCH  11  12
ENDBRANCH   1  11
BRANCH   1  14
ATOM     14  CB  UNL     1      37.714 -26.012 -15.026  0.00  0.00    +0.057 C 
BRANCH  14  15
ATOM     15  CG  UNL     1      36.739 -24.867 -15.158  0.00  0.00    -0.020 C 
ATOM     16  CD1 UNL     1      35.399 -25.080 -14.879  0.00  0.00    -0.004 C 
ATOM     17  CD2 UNL     1      37.201 -23.624 -15.559  0.00  0.00    -0.004 C 
ATOM     18  CE1 UNL     1      34.497 -24.023 -15.002  0.00  0.00    -0.000 C 
ATOM     19  CE2 UNL     1      36.301 -22.566 -15.682  0.00  0.00    -0.000 C 
ATOM     20  CZ  UNL     1      34.948 -22.766 -15.404  0.00  0.00    -0.000 C 
ENDBRANCH  14  15
ENDBRANCH   1  14
TORSDOF 6
ENDMDL
MODEL 9
REMARK VINA RESULT:      -7.4      3.180      4.768
REMARK  Name = 446056
REMARK  6 active torsions:
REMARK  status: ('A' for Active; 'I' for Inactive)
REMARK    1  A    between atoms: CA_1  and  N_3
REMARK    2  A    between atoms: CA_1  and  C_11
REMARK    3  A    between atoms: CA_1  and  CB_14
REMARK    4  A    between atoms: N_4  and  O_8
REMARK    5  A    between atoms: C_11  and  O_12
REMARK    6  A    between atoms: CB_14  and  CG_15
REMARK                            x       y       z     vdW  Elec       q    Type
REMARK                         _______ _______ _______ _____ _____    ______ ____
ROOT
ATOM      1  CA  UNL     1      34.273 -23.020 -16.269  0.00  0.00    +0.177 C 
ENDROOT
BRANCH   1   3
ATOM      2  O   UNL     1      36.996 -22.165 -16.016  0.00  0.00    -0.251 OA
ATOM      3  N   UNL     1      35.400 -23.843 -15.905  0.00  0.00    -0.279 N 
ATOM      4  N   UNL     1      37.592 -24.318 -15.434  0.00  0.00    -0.181 N 
ATOM      5  C   ACE A   0      36.695 -23.339 -15.807  0.00  0.00    +0.323 C 
ATOM      6  H   UNL     1      35.249 -24.798 -15.721  0.00  0.00    +0.151 HD
ATOM      7  H   UNL     1      37.315 -25.249 -15.275  0.00  0.00    +0.184 HD
BRANCH   4   8
ATOM      8  O   UNL     1      38.924 -23.903 -15.294  0.00  0.00    -0.294 OA
ATOM      9  H   UNL     1      39.180 -23.372 -16.064  0.00  0.00    +0.241 HD
ENDBRANCH   4   8
ENDBRANCH   1   3
BRANCH   1  11
ATOM     10  OXT UNL     1      31.956 -23.175 -15.595  0.00  0.00    -0.248 OA
ATOM     11  C   UNL     1      33.138 -23.174 -15.268  0.00  0.00    +0.332 C 
BRANCH  11  12
ATOM     12  O   UNL     1      33.530 -23.318 -13.980  0.00  0.00    -0.479 OA
ATOM     13  H   UNL     1      34.236 -22.802 -13.645  0.00  0.00    +0.295 HD
ENDBRANCH  11  12
ENDBRANCH   1  11
BRANCH   1  14
ATOM     14  CB  UNL     1      33.777 -23.355 -17.681  0.00  0.00    +0.057 C 
BRANCH  14  15
ATOM     15  CG  UNL     1      34.056 -22.256 -18.678  0.00  0.00    -0.020 C 
ATOM     16  CD1 UNL     1      32.996 -21.547 -19.222  0.00  0.00    -0.004 C 
ATOM     17  CD2 UNL     1      35.366 -21.977 -19.033  0.00  0.00    -0.004 C 
ATOM     18  CE1 UNL     1      33.253 -20.532 -20.143  0.00  0.00    -0.000 C 
ATOM     19  CE2 UNL     1      35.624 -20.962 -19.954  0.00  0.00    -0.000 C 
ATOM     20  CZ  UNL     1      34.567 -20.239 -20.510  0.00  0.00    -0.000 C 
ENDBRANCH  14  15
ENDBRANCH   1  14
TORSDOF 6
ENDMDL
