MODEL 1
REMARK VINA RESULT:      -6.3      0.000      0.000
REMARK  Name = 1050
REMARK  4 active torsions:
REMARK  status: ('A' for Active; 'I' for Inactive)
REMARK    1  A    between atoms: C_2  and  C_12
REMARK    2  A    between atoms: C_3  and  C_11
REMARK    3  A    between atoms: C_4  and  O_8
REMARK    4  A    between atoms: C_12  and  O_13
REMARK                            x       y       z     vdW  Elec       q    Type
REMARK                         _______ _______ _______ _____ _____    ______ ____
ROOT
ATOM      1  N   UNL     1      34.995 -16.193 -22.406  0.00  0.00    -0.245 NA
ATOM      2  C   UNL     1      33.807 -14.478 -23.627  0.00  0.00    +0.032 C 
ATOM      3  C   UNL     1      33.714 -15.318 -24.731  0.00  0.00    +0.077 C 
ATOM      4  C   UNL     1      34.261 -16.595 -24.674  0.00  0.00    +0.150 C 
ATOM      5  C   UNL     1      34.885 -16.981 -23.499  0.00  0.00    +0.093 C 
ATOM      6  C   UNL     1      34.452 -14.959 -22.498  0.00  0.00    +0.097 C 
ATOM      7  C   UNL     1      35.491 -18.341 -23.384  0.00  0.00    +0.055 C 
ENDROOT
BRANCH   4   8
ATOM      8  O   UNL     1      34.187 -17.439 -25.737  0.00  0.00    -0.504 OA
ATOM      9  H   UNL     1      34.219 -17.098 -26.608  0.00  0.00    +0.292 HD
ENDBRANCH   4   8
BRANCH   3  11
ATOM     10  O   UNL     1      33.590 -14.869 -27.050  0.00  0.00    -0.283 OA
ATOM     11  C   UNL     1      33.046 -14.864 -25.945  0.00  0.00    +0.237 C 
ENDBRANCH   3  11
BRANCH   2  12
ATOM     12  C   UNL     1      33.241 -13.100 -23.627  0.00  0.00    +0.165 C 
BRANCH  12  13
ATOM     13  O   UNL     1      34.260 -12.170 -23.978  0.00  0.00    -0.377 OA
ATOM     14  H   UNL     1      35.045 -12.328 -23.431  0.00  0.00    +0.211 HD
ENDBRANCH  12  13
ENDBRANCH   2  12
TORSDOF 4
ENDMDL
MODEL 2
REMARK VINA RESULT:      -6.2      2.006      3.571
REMARK  Name = 1050
REMARK  4 active torsions:
REMARK  status: ('A' for Active; 'I' for Inactive)
REMARK    1  A    between atoms: C_2  and  C_12
REMARK    2  A    between atoms: C_3  and  C_11
REMARK    3  A    between atoms: C_4  and  O_8
REMARK    4  A    between atoms: C_12  and  O_13
REMARK                            x       y       z     vdW  Elec       q    Type
REMARK                         _______ _______ _______ _____ _____    ______ ____
ROOT
ATOM      1  N   UNL     1      33.324 -14.588 -23.840  0.00  0.00    -0.245 NA
ATOM      2  C   UNL     1      34.440 -16.204 -22.430  0.00  0.00    +0.032 C 
ATOM      3  C   UNL     1      34.747 -16.976 -23.545  0.00  0.00    +0.077 C 
ATOM      4  C   UNL     1      34.344 -16.555 -24.808  0.00  0.00    +0.150 C 
ATOM      5  C   UNL     1      33.641 -15.365 -24.901  0.00  0.00    +0.093 C 
ATOM      6  C   UNL     1      33.733 -15.028 -22.630  0.00  0.00    +0.097 C 
ATOM      7  C   UNL     1      33.183 -14.867 -26.232  0.00  0.00    +0.055 C 
ENDROOT
BRANCH   4   8
ATOM      8  O   UNL     1      34.628 -17.288 -25.917  0.00  0.00    -0.504 OA
ATOM      9  H   UNL     1      34.350 -18.180 -25.972  0.00  0.00    +0.292 HD
ENDBRANCH   4   8
BRANCH   3  11
ATOM     10  O   UNL     1      35.055 -19.311 -23.773  0.00  0.00    -0.283 OA
ATOM     11  C   UNL     1      35.490 -18.222 -23.395  0.00  0.00    +0.237 C 
ENDBRANCH   3  11
BRANCH   2  12
ATOM     12  C   UNL     1      34.845 -16.602 -21.053  0.00  0.00    +0.165 C 
BRANCH  12  13
ATOM     13  O   UNL     1      34.883 -15.449 -20.219  0.00  0.00    -0.377 OA
ATOM     14  H   UNL     1      34.355 -15.610 -19.421  0.00  0.00    +0.211 HD
ENDBRANCH  12  13
ENDBRANCH   2  12
TORSDOF 4
ENDMDL
MODEL 3
REMARK VINA RESULT:      -6.2     12.369     14.290
REMARK  Name = 1050
REMARK  4 active torsions:
REMARK  status: ('A' for Active; 'I' for Inactive)
REMARK    1  A    between atoms: C_2  and  C_12
REMARK    2  A    between atoms: C_3  and  C_11
REMARK    3  A    between atoms: C_4  and  O_8
REMARK    4  A    between atoms: C_12  and  O_13
REMARK                            x       y       z     vdW  Elec       q    Type
REMARK                         _______ _______ _______ _____ _____    ______ ____
ROOT
ATOM      1  N   UNL     1      38.416 -26.075 -12.999  0.00  0.00    -0.245 NA
ATOM      2  C   UNL     1      36.437 -24.732 -13.357  0.00  0.00    +0.032 C 
ATOM      3  C   UNL     1      37.055 -24.094 -14.426  0.00  0.00    +0.077 C 
ATOM      4  C   UNL     1      38.353 -24.445 -14.783  0.00  0.00    +0.150 C 
ATOM      5  C   UNL     1      38.984 -25.433 -14.044  0.00  0.00    +0.093 C 
ATOM      6  C   UNL     1      37.155 -25.708 -12.681  0.00  0.00    +0.097 C 
ATOM      7  C   UNL     1      40.377 -25.848 -14.383  0.00  0.00    +0.055 C 
ENDROOT
BRANCH   4   8
ATOM      8  O   UNL     1      38.984 -23.840 -15.824  0.00  0.00    -0.504 OA
ATOM      9  H   UNL     1      38.842 -24.143 -16.698  0.00  0.00    +0.292 HD
ENDBRANCH   4   8
BRANCH   3  11
ATOM     10  O   UNL     1      36.181 -23.112 -16.393  0.00  0.00    -0.283 OA
ATOM     11  C   UNL     1      36.348 -23.061 -15.174  0.00  0.00    +0.237 C 
ENDBRANCH   3  11
BRANCH   2  12
ATOM     12  C   UNL     1      35.051 -24.399 -12.928  0.00  0.00    +0.165 C 
BRANCH  12  13
ATOM     13  O   UNL     1      34.791 -24.996 -11.661  0.00  0.00    -0.377 OA
ATOM     14  H   UNL     1      33.850 -25.226 -11.599  0.00  0.00    +0.211 HD
ENDBRANCH  12  13
ENDBRANCH   2  12
TORSDOF 4
ENDMDL
MODEL 4
REMARK VINA RESULT:      -6.2     12.903     14.955
REMARK  Name = 1050
REMARK  4 active torsions:
REMARK  status: ('A' for Active; 'I' for Inactive)
REMARK    1  A    between atoms: C_2  and  C_12
REMARK    2  A    between atoms: C_3  and  C_11
REMARK    3  A    between atoms: C_4  and  O_8
REMARK    4  A    between atoms: C_12  and  O_13
REMARK                            x       y       z     vdW  Elec       q    Type
REMARK                         _______ _______ _______ _____ _____    ______ ____
ROOT
ATOM      1  N   UNL     1      35.472 -24.721 -15.552  0.00  0.00    -0.245 NA
ATOM      2  C   UNL     1      36.768 -25.240 -13.579  0.00  0.00    +0.032 C 
ATOM      3  C   UNL     1      35.812 -24.624 -12.780  0.00  0.00    +0.077 C 
ATOM      4  C   UNL     1      34.685 -24.056 -13.365  0.00  0.00    +0.150 C 
ATOM      5  C   UNL     1      34.564 -24.130 -14.744  0.00  0.00    +0.093 C 
ATOM      6  C   UNL     1      36.552 -25.262 -14.949  0.00  0.00    +0.097 C 
ATOM      7  C   UNL     1      33.375 -23.536 -15.424  0.00  0.00    +0.055 C 
ENDROOT
BRANCH   4   8
ATOM      8  O   UNL     1      33.733 -23.446 -12.611  0.00  0.00    -0.504 OA
ATOM      9  H   UNL     1      33.473 -23.820 -11.793  0.00  0.00    +0.292 HD
ENDBRANCH   4   8
BRANCH   3  11
ATOM     10  O   UNL     1      35.238 -25.156 -10.547  0.00  0.00    -0.283 OA
ATOM     11  C   UNL     1      35.986 -24.572 -11.333  0.00  0.00    +0.237 C 
ENDBRANCH   3  11
BRANCH   2  12
ATOM     12  C   UNL     1      37.994 -25.866 -13.010  0.00  0.00    +0.165 C 
BRANCH  12  13
ATOM     13  O   UNL     1      38.670 -26.595 -14.030  0.00  0.00    -0.377 OA
ATOM     14  H   UNL     1      39.410 -26.067 -14.369  0.00  0.00    +0.211 HD
ENDBRANCH  12  13
ENDBRANCH   2  12
TORSDOF 4
ENDMDL
MODEL 5
REMARK VINA RESULT:      -6.1      1.413      1.869
REMARK  Name = 1050
REMARK  4 active torsions:
REMARK  status: ('A' for Active; 'I' for Inactive)
REMARK    1  A    between atoms: C_2  and  C_12
REMARK    2  A    between atoms: C_3  and  C_11
REMARK    3  A    between atoms: C_4  and  O_8
REMARK    4  A    between atoms: C_12  and  O_13
REMARK                            x       y       z     vdW  Elec       q    Type
REMARK                         _______ _______ _______ _____ _____    ______ ____
ROOT
ATOM      1  N   UNL     1      35.068 -16.526 -20.825  0.00  0.00    -0.245 NA
ATOM      2  C   UNL     1      34.089 -15.331 -22.685  0.00  0.00    +0.032 C 
ATOM      3  C   UNL     1      34.438 -16.367 -23.544  0.00  0.00    +0.077 C 
ATOM      4  C   UNL     1      35.103 -17.482 -23.046  0.00  0.00    +0.150 C 
ATOM      5  C   UNL     1      35.392 -17.513 -21.691  0.00  0.00    +0.093 C 
ATOM      6  C   UNL     1      34.423 -15.459 -21.345  0.00  0.00    +0.097 C 
ATOM      7  C   UNL     1      36.105 -18.686 -21.103  0.00  0.00    +0.055 C 
ENDROOT
BRANCH   4   8
ATOM      8  O   UNL     1      35.458 -18.510 -23.861  0.00  0.00    -0.504 OA
ATOM      9  H   UNL     1      36.254 -18.464 -24.352  0.00  0.00    +0.292 HD
ENDBRANCH   4   8
BRANCH   3  11
ATOM     10  O   UNL     1      34.843 -16.738 -25.845  0.00  0.00    -0.283 OA
ATOM     11  C   UNL     1      34.111 -16.287 -24.963  0.00  0.00    +0.237 C 
ENDBRANCH   3  11
BRANCH   2  12
ATOM     12  C   UNL     1      33.377 -14.112 -23.159  0.00  0.00    +0.165 C 
BRANCH  12  13
ATOM     13  O   UNL     1      34.324 -13.082 -23.420  0.00  0.00    -0.377 OA
ATOM     14  H   UNL     1      35.129 -13.470 -23.798  0.00  0.00    +0.211 HD
ENDBRANCH  12  13
ENDBRANCH   2  12
TORSDOF 4
ENDMDL
MODEL 6
REMARK VINA RESULT:      -5.9      6.038      8.244
REMARK  Name = 1050
REMARK  4 active torsions:
REMARK  status: ('A' for Active; 'I' for Inactive)
REMARK    1  A    between atoms: C_2  and  C_12
REMARK    2  A    between atoms: C_3  and  C_11
REMARK    3  A    between atoms: C_4  and  O_8
REMARK    4  A    between atoms: C_12  and  O_13
REMARK                            x       y       z     vdW  Elec       q    Type
REMARK                         _______ _______ _______ _____ _____    ______ ____
ROOT
ATOM      1  N   UNL     1      36.027 -19.550 -20.727  0.00  0.00    -0.245 NA
ATOM      2  C   UNL     1      36.048 -21.207 -18.966  0.00  0.00    +0.032 C 
ATOM      3  C   UNL     1      34.713 -21.500 -19.216  0.00  0.00    +0.077 C 
ATOM      4  C   UNL     1      34.033 -20.820 -20.221  0.00  0.00    +0.150 C 
ATOM      5  C   UNL     1      34.729 -19.862 -20.941  0.00  0.00    +0.093 C 
ATOM      6  C   UNL     1      36.655 -20.232 -19.743  0.00  0.00    +0.097 C 
ATOM      7  C   UNL     1      34.048 -19.101 -22.030  0.00  0.00    +0.055 C 
ENDROOT
BRANCH   4   8
ATOM      8  O   UNL     1      32.727 -21.084 -20.488  0.00  0.00    -0.504 OA
ATOM      9  H   UNL     1      32.499 -21.788 -21.062  0.00  0.00    +0.292 HD
ENDBRANCH   4   8
BRANCH   3  11
ATOM     10  O   UNL     1      33.733 -23.627 -18.879  0.00  0.00    -0.283 OA
ATOM     11  C   UNL     1      34.024 -22.518 -18.430  0.00  0.00    +0.237 C 
ENDBRANCH   3  11
BRANCH   2  12
ATOM     12  C   UNL     1      36.829 -21.902 -17.905  0.00  0.00    +0.165 C 
BRANCH  12  13
ATOM     13  O   UNL     1      37.235 -20.956 -16.921  0.00  0.00    -0.377 OA
ATOM     14  H   UNL     1      37.829 -20.304 -17.325  0.00  0.00    +0.211 HD
ENDBRANCH  12  13
ENDBRANCH   2  12
TORSDOF 4
ENDMDL
MODEL 7
REMARK VINA RESULT:      -5.9     12.665     14.439
REMARK  Name = 1050
REMARK  4 active torsions:
REMARK  status: ('A' for Active; 'I' for Inactive)
REMARK    1  A    between atoms: C_2  and  C_12
REMARK    2  A    between atoms: C_3  and  C_11
REMARK    3  A    between atoms: C_4  and  O_8
REMARK    4  A    between atoms: C_12  and  O_13
REMARK                            x       y       z     vdW  Elec       q    Type
REMARK                         _______ _______ _______ _____ _____    ______ ____
ROOT
ATOM      1  N   UNL     1      37.058 -23.086 -15.791  0.00  0.00    -0.245 NA
ATOM      2  C   UNL     1      38.421 -24.784 -14.740  0.00  0.00    +0.032 C 
ATOM      3  C   UNL     1      37.311 -25.258 -14.049  0.00  0.00    +0.077 C 
ATOM      4  C   UNL     1      36.075 -24.647 -14.229  0.00  0.00    +0.150 C 
ATOM      5  C   UNL     1      36.002 -23.574 -15.103  0.00  0.00    +0.093 C 
ATOM      6  C   UNL     1      38.243 -23.705 -15.592  0.00  0.00    +0.097 C 
ATOM      7  C   UNL     1      34.700 -22.881 -15.332  0.00  0.00    +0.055 C 
ENDROOT
BRANCH   4   8
ATOM      8  O   UNL     1      34.971 -25.086 -13.568  0.00  0.00    -0.504 OA
ATOM      9  H   UNL     1      34.154 -25.161 -14.018  0.00  0.00    +0.292 HD
ENDBRANCH   4   8
BRANCH   3  11
ATOM     10  O   UNL     1      37.038 -26.363 -11.976  0.00  0.00    -0.283 OA
ATOM     11  C   UNL     1      37.440 -26.390 -13.140  0.00  0.00    +0.237 C 
ENDBRANCH   3  11
BRANCH   2  12
ATOM     12  C   UNL     1      39.771 -25.396 -14.589  0.00  0.00    +0.165 C 
BRANCH  12  13
ATOM     13  O   UNL     1      40.267 -25.769 -15.870  0.00  0.00    -0.377 OA
ATOM     14  H   UNL     1      39.523 -25.917 -16.475  0.00  0.00    +0.211 HD
ENDBRANCH  12  13
ENDBRANCH   2  12
TORSDOF 4
ENDMDL
MODEL 8
REMARK VINA RESULT:      -5.9      2.228      4.374
REMARK  Name = 1050
REMARK  4 active torsions:
REMARK  status: ('A' for Active; 'I' for Inactive)
REMARK    1  A    between atoms: C_2  and  C_12
REMARK    2  A    between atoms: C_3  and  C_11
REMARK    3  A    between atoms: C_4  and  O_8
REMARK    4  A    between atoms: C_12  and  O_13
REMARK                            x       y       z     vdW  Elec       q    Type
REMARK                         _______ _______ _______ _____ _____    ______ ____
ROOT
ATOM      1  N   UNL     1      34.058 -16.698 -25.895  0.00  0.00    -0.245 NA
ATOM      2  C   UNL     1      34.768 -17.325 -23.671  0.00  0.00    +0.032 C 
ATOM      3  C   UNL     1      34.343 -16.095 -23.181  0.00  0.00    +0.077 C 
ATOM      4  C   UNL     1      33.776 -15.166 -24.047  0.00  0.00    +0.150 C 
ATOM      5  C   UNL     1      33.657 -15.513 -25.383  0.00  0.00    +0.093 C 
ATOM      6  C   UNL     1      34.604 -17.576 -25.025  0.00  0.00    +0.097 C 
ATOM      7  C   UNL     1      33.056 -14.553 -26.356  0.00  0.00    +0.055 C 
ENDROOT
BRANCH   4   8
ATOM      8  O   UNL     1      33.352 -13.955 -23.599  0.00  0.00    -0.504 OA
ATOM      9  H   UNL     1      33.824 -13.179 -23.827  0.00  0.00    +0.292 HD
ENDBRANCH   4   8
BRANCH   3  11
ATOM     10  O   UNL     1      33.531 -15.548 -21.028  0.00  0.00    -0.283 OA
ATOM     11  C   UNL     1      34.491 -15.777 -21.766  0.00  0.00    +0.237 C 
ENDBRANCH   3  11
BRANCH   2  12
ATOM     12  C   UNL     1      35.383 -18.359 -22.793  0.00  0.00    +0.165 C 
BRANCH  12  13
ATOM     13  O   UNL     1      36.797 -18.192 -22.783  0.00  0.00    -0.377 OA
ATOM     14  H   UNL     1      37.061 -17.626 -23.526  0.00  0.00    +0.211 HD
ENDBRANCH  12  13
ENDBRANCH   2  12
TORSDOF 4
ENDMDL
MODEL 9
REMARK VINA RESULT:      -5.9     11.827     13.928
REMARK  Name = 1050
REMARK  4 active torsions:
REMARK  status: ('A' for Active; 'I' for Inactive)
REMARK    1  A    between atoms: C_2  and  C_12
REMARK    2  A    between atoms: C_3  and  C_11
REMARK    3  A    between atoms: C_4  and  O_8
REMARK    4  A    between atoms: C_12  and  O_13
REMARK                            x       y       z     vdW  Elec       q    Type
REMARK                         _______ _______ _______ _____ _____    ______ ____
ROOT
ATOM      1  N   UNL     1      35.510 -22.754 -15.074  0.00  0.00    -0.245 NA
ATOM      2  C   UNL     1      36.382 -24.259 -13.395  0.00  0.00    +0.032 C 
ATOM      3  C   UNL     1      37.594 -24.325 -14.073  0.00  0.00    +0.077 C 
ATOM      4  C   UNL     1      37.765 -23.606 -15.251  0.00  0.00    +0.150 C 
ATOM      5  C   UNL     1      36.702 -22.842 -15.706  0.00  0.00    +0.093 C 
ATOM      6  C   UNL     1      35.379 -23.465 -13.933  0.00  0.00    +0.097 C 
ATOM      7  C   UNL     1      36.831 -22.052 -16.966  0.00  0.00    +0.055 C 
ENDROOT
BRANCH   4   8
ATOM      8  O   UNL     1      38.938 -23.650 -15.937  0.00  0.00    -0.504 OA
ATOM      9  H   UNL     1      39.578 -22.979 -15.813  0.00  0.00    +0.292 HD
ENDBRANCH   4   8
BRANCH   3  11
ATOM     10  O   UNL     1      39.857 -24.770 -13.550  0.00  0.00    -0.283 OA
ATOM     11  C   UNL     1      38.683 -25.143 -13.553  0.00  0.00    +0.237 C 
ENDBRANCH   3  11
BRANCH   2  12
ATOM     12  C   UNL     1      36.138 -25.005 -12.129  0.00  0.00    +0.165 C 
BRANCH  12  13
ATOM     13  O   UNL     1      34.750 -24.969 -11.818  0.00  0.00    -0.377 OA
ATOM     14  H   UNL     1      34.352 -25.833 -12.013  0.00  0.00    +0.211 HD
ENDBRANCH  12  13
ENDBRANCH   2  12
TORSDOF 4
ENDMDL
