MODEL 1
REMARK VINA RESULT:      -7.0      0.000      0.000
REMARK  Name = 439774
REMARK  4 active torsions:
REMARK  status: ('A' for Active; 'I' for Inactive)
REMARK    1  A    between atoms: C_2  and  O_8
REMARK    2  A    between atoms: C_3  and  O_10
REMARK    3  A    between atoms: C_5  and  C_13
REMARK    4  A    between atoms: C_13  and  O_14
REMARK                            x       y       z     vdW  Elec       q    Type
REMARK                         _______ _______ _______ _____ _____    ______ ____
ROOT
ATOM      1  O   UNL     1      37.654 -24.313 -11.280  0.00  0.00    -0.289 OA
ATOM      2  C   UNL     1      36.556 -25.601 -14.462  0.00  0.00    +0.149 C 
ATOM      3  C   UNL     1      36.449 -25.584 -12.942  0.00  0.00    +0.199 C 
ATOM      4  C   UNL     1      37.833 -26.307 -14.920  0.00  0.00    +0.065 C 
ATOM      5  C   UNL     1      39.034 -25.870 -14.142  0.00  0.00    +0.059 C 
ATOM      6  C   UNL     1      37.693 -24.977 -12.314  0.00  0.00    +0.202 C 
ATOM      7  C   UNL     1      39.003 -25.244 -12.961  0.00  0.00    +0.042 C 
ENDROOT
BRANCH   2   8
ATOM      8  O   UNL     1      35.442 -26.304 -15.011  0.00  0.00    -0.381 OA
ATOM      9  H   UNL     1      34.666 -25.723 -15.021  0.00  0.00    +0.210 HD
ENDBRANCH   2   8
BRANCH   3  10
ATOM     10  O   UNL     1      35.324 -24.801 -12.567  0.00  0.00    -0.375 OA
ATOM     11  H   UNL     1      34.510 -25.277 -12.793  0.00  0.00    +0.211 HD
ENDBRANCH   3  10
BRANCH   5  13
ATOM     12  O   UNL     1      41.301 -26.585 -14.108  0.00  0.00    -0.245 OA
ATOM     13  C   UNL     1      40.358 -26.122 -14.721  0.00  0.00    +0.334 C 
BRANCH  13  14
ATOM     14  O   UNL     1      40.357 -25.763 -16.021  0.00  0.00    -0.477 OA
ATOM     15  H   UNL     1      40.811 -24.990 -16.295  0.00  0.00    +0.295 HD
ENDBRANCH  13  14
ENDBRANCH   5  13
TORSDOF 4
ENDMDL
MODEL 2
REMARK VINA RESULT:      -7.0      0.394      2.445
REMARK  Name = 439774
REMARK  4 active torsions:
REMARK  status: ('A' for Active; 'I' for Inactive)
REMARK    1  A    between atoms: C_2  and  O_8
REMARK    2  A    between atoms: C_3  and  O_10
REMARK    3  A    between atoms: C_5  and  C_13
REMARK    4  A    between atoms: C_13  and  O_14
REMARK                            x       y       z     vdW  Elec       q    Type
REMARK                         _______ _______ _______ _____ _____    ______ ____
ROOT
ATOM      1  O   UNL     1      35.658 -26.001 -15.409  0.00  0.00    -0.289 OA
ATOM      2  C   UNL     1      37.441 -25.242 -12.370  0.00  0.00    +0.149 C 
ATOM      3  C   UNL     1      36.418 -24.848 -13.429  0.00  0.00    +0.199 C 
ATOM      4  C   UNL     1      38.867 -25.148 -12.913  0.00  0.00    +0.065 C 
ATOM      5  C   UNL     1      39.000 -25.760 -14.272  0.00  0.00    +0.059 C 
ATOM      6  C   UNL     1      36.603 -25.666 -14.696  0.00  0.00    +0.202 C 
ATOM      7  C   UNL     1      37.985 -26.027 -15.101  0.00  0.00    +0.042 C 
ENDROOT
BRANCH   2   8
ATOM      8  O   UNL     1      37.335 -24.362 -11.252  0.00  0.00    -0.381 OA
ATOM      9  H   UNL     1      36.658 -23.691 -11.432  0.00  0.00    +0.210 HD
ENDBRANCH   2   8
BRANCH   3  10
ATOM     10  O   UNL     1      35.114 -25.085 -12.921  0.00  0.00    -0.375 OA
ATOM     11  H   UNL     1      34.826 -25.975 -13.174  0.00  0.00    +0.211 HD
ENDBRANCH   3  10
BRANCH   5  13
ATOM     12  O   UNL     1      41.224 -26.562 -14.018  0.00  0.00    -0.245 OA
ATOM     13  C   UNL     1      40.344 -26.123 -14.734  0.00  0.00    +0.334 C 
BRANCH  13  14
ATOM     14  O   UNL     1      40.441 -25.893 -16.060  0.00  0.00    -0.477 OA
ATOM     15  H   UNL     1      41.103 -26.327 -16.563  0.00  0.00    +0.295 HD
ENDBRANCH  13  14
ENDBRANCH   5  13
TORSDOF 4
ENDMDL
MODEL 3
REMARK VINA RESULT:      -6.6      1.216      4.006
REMARK  Name = 439774
REMARK  4 active torsions:
REMARK  status: ('A' for Active; 'I' for Inactive)
REMARK    1  A    between atoms: C_2  and  O_8
REMARK    2  A    between atoms: C_3  and  O_10
REMARK    3  A    between atoms: C_5  and  C_13
REMARK    4  A    between atoms: C_13  and  O_14
REMARK                            x       y       z     vdW  Elec       q    Type
REMARK                         _______ _______ _______ _____ _____    ______ ____
ROOT
ATOM      1  O   UNL     1      40.537 -24.603 -13.446  0.00  0.00    -0.289 OA
ATOM      2  C   UNL     1      37.657 -26.384 -14.678  0.00  0.00    +0.149 C 
ATOM      3  C   UNL     1      38.812 -25.421 -14.923  0.00  0.00    +0.199 C 
ATOM      4  C   UNL     1      36.559 -25.733 -13.837  0.00  0.00    +0.065 C 
ATOM      5  C   UNL     1      37.109 -24.992 -12.659  0.00  0.00    +0.059 C 
ATOM      6  C   UNL     1      39.348 -24.868 -13.613  0.00  0.00    +0.202 C 
ATOM      7  C   UNL     1      38.381 -24.602 -12.518  0.00  0.00    +0.042 C 
ENDROOT
BRANCH   2   8
ATOM      8  O   UNL     1      37.085 -26.771 -15.927  0.00  0.00    -0.381 OA
ATOM      9  H   UNL     1      36.500 -26.067 -16.247  0.00  0.00    +0.210 HD
ENDBRANCH   2   8
BRANCH   3  10
ATOM     10  O   UNL     1      39.859 -26.114 -15.586  0.00  0.00    -0.375 OA
ATOM     11  H   UNL     1      40.714 -25.820 -15.235  0.00  0.00    +0.211 HD
ENDBRANCH   3  10
BRANCH   5  13
ATOM     12  O   UNL     1      36.543 -24.212 -10.486  0.00  0.00    -0.245 OA
ATOM     13  C   UNL     1      36.197 -24.684 -11.553  0.00  0.00    +0.334 C 
BRANCH  13  14
ATOM     14  O   UNL     1      34.935 -25.003 -11.907  0.00  0.00    -0.477 OA
ATOM     15  H   UNL     1      34.281 -25.128 -11.248  0.00  0.00    +0.295 HD
ENDBRANCH  13  14
ENDBRANCH   5  13
TORSDOF 4
ENDMDL
MODEL 4
REMARK VINA RESULT:      -6.6     13.586     14.540
REMARK  Name = 439774
REMARK  4 active torsions:
REMARK  status: ('A' for Active; 'I' for Inactive)
REMARK    1  A    between atoms: C_2  and  O_8
REMARK    2  A    between atoms: C_3  and  O_10
REMARK    3  A    between atoms: C_5  and  C_13
REMARK    4  A    between atoms: C_13  and  O_14
REMARK                            x       y       z     vdW  Elec       q    Type
REMARK                         _______ _______ _______ _____ _____    ______ ____
ROOT
ATOM      1  O   UNL     1      33.450 -13.462 -24.400  0.00  0.00    -0.289 OA
ATOM      2  C   UNL     1      34.761 -16.783 -24.889  0.00  0.00    +0.149 C 
ATOM      3  C   UNL     1      33.662 -15.754 -25.127  0.00  0.00    +0.199 C 
ATOM      4  C   UNL     1      34.740 -17.294 -23.448  0.00  0.00    +0.065 C 
ATOM      5  C   UNL     1      34.597 -16.185 -22.453  0.00  0.00    +0.059 C 
ATOM      6  C   UNL     1      33.749 -14.621 -24.118  0.00  0.00    +0.202 C 
ATOM      7  C   UNL     1      34.167 -14.949 -22.731  0.00  0.00    +0.042 C 
ENDROOT
BRANCH   2   8
ATOM      8  O   UNL     1      34.565 -17.900 -25.755  0.00  0.00    -0.381 OA
ATOM      9  H   UNL     1      34.433 -17.586 -26.663  0.00  0.00    +0.210 HD
ENDBRANCH   2   8
BRANCH   3  10
ATOM     10  O   UNL     1      33.812 -15.213 -26.431  0.00  0.00    -0.375 OA
ATOM     11  H   UNL     1      32.938 -14.998 -26.793  0.00  0.00    +0.211 HD
ENDBRANCH   3  10
BRANCH   5  13
ATOM     12  O   UNL     1      35.357 -17.533 -20.649  0.00  0.00    -0.245 OA
ATOM     13  C   UNL     1      34.979 -16.454 -21.063  0.00  0.00    +0.334 C 
BRANCH  13  14
ATOM     14  O   UNL     1      34.844 -15.328 -20.332  0.00  0.00    -0.477 OA
ATOM     15  H   UNL     1      35.559 -15.018 -19.812  0.00  0.00    +0.295 HD
ENDBRANCH  13  14
ENDBRANCH   5  13
TORSDOF 4
ENDMDL
MODEL 5
REMARK VINA RESULT:      -6.6      6.390      8.854
REMARK  Name = 439774
REMARK  4 active torsions:
REMARK  status: ('A' for Active; 'I' for Inactive)
REMARK    1  A    between atoms: C_2  and  O_8
REMARK    2  A    between atoms: C_3  and  O_10
REMARK    3  A    between atoms: C_5  and  C_13
REMARK    4  A    between atoms: C_13  and  O_14
REMARK                            x       y       z     vdW  Elec       q    Type
REMARK                         _______ _______ _______ _____ _____    ______ ____
ROOT
ATOM      1  O   UNL     1      33.253 -23.107 -15.918  0.00  0.00    -0.289 OA
ATOM      2  C   UNL     1      30.605 -24.050 -13.662  0.00  0.00    +0.149 C 
ATOM      3  C   UNL     1      31.949 -24.354 -14.315  0.00  0.00    +0.199 C 
ATOM      4  C   UNL     1      29.455 -24.218 -14.655  0.00  0.00    +0.065 C 
ATOM      5  C   UNL     1      29.747 -23.581 -15.977  0.00  0.00    +0.059 C 
ATOM      6  C   UNL     1      32.148 -23.517 -15.568  0.00  0.00    +0.202 C 
ATOM      7  C   UNL     1      30.961 -23.231 -16.414  0.00  0.00    +0.042 C 
ENDROOT
BRANCH   2   8
ATOM      8  O   UNL     1      30.387 -24.950 -12.577  0.00  0.00    -0.381 OA
ATOM      9  H   UNL     1      31.110 -24.867 -11.937  0.00  0.00    +0.210 HD
ENDBRANCH   2   8
BRANCH   3  10
ATOM     10  O   UNL     1      32.988 -24.051 -13.396  0.00  0.00    -0.375 OA
ATOM     11  H   UNL     1      33.846 -24.237 -13.806  0.00  0.00    +0.211 HD
ENDBRANCH   3  10
BRANCH   5  13
ATOM     12  O   UNL     1      27.899 -24.134 -17.368  0.00  0.00    -0.245 OA
ATOM     13  C   UNL     1      28.617 -23.289 -16.865  0.00  0.00    +0.334 C 
BRANCH  13  14
ATOM     14  O   UNL     1      28.504 -21.955 -17.029  0.00  0.00    -0.477 OA
ATOM     15  H   UNL     1      28.083 -21.610 -17.792  0.00  0.00    +0.295 HD
ENDBRANCH  13  14
ENDBRANCH   5  13
TORSDOF 4
ENDMDL
MODEL 6
REMARK VINA RESULT:      -6.5      1.393      4.050
REMARK  Name = 439774
REMARK  4 active torsions:
REMARK  status: ('A' for Active; 'I' for Inactive)
REMARK    1  A    between atoms: C_2  and  O_8
REMARK    2  A    between atoms: C_3  and  O_10
REMARK    3  A    between atoms: C_5  and  C_13
REMARK    4  A    between atoms: C_13  and  O_14
REMARK                            x       y       z     vdW  Elec       q    Type
REMARK                         _______ _______ _______ _____ _____    ______ ____
ROOT
ATOM      1  O   UNL     1      35.140 -25.376 -15.208  0.00  0.00    -0.289 OA
ATOM      2  C   UNL     1      38.636 -25.767 -14.424  0.00  0.00    +0.149 C 
ATOM      3  C   UNL     1      37.278 -26.389 -14.728  0.00  0.00    +0.199 C 
ATOM      4  C   UNL     1      38.666 -25.155 -13.024  0.00  0.00    +0.065 C 
ATOM      5  C   UNL     1      37.446 -24.339 -12.733  0.00  0.00    +0.059 C 
ATOM      6  C   UNL     1      36.159 -25.382 -14.519  0.00  0.00    +0.202 C 
ATOM      7  C   UNL     1      36.294 -24.404 -13.409  0.00  0.00    +0.042 C 
ENDROOT
BRANCH   2   8
ATOM      8  O   UNL     1      39.646 -26.772 -14.489  0.00  0.00    -0.381 OA
ATOM      9  H   UNL     1      40.195 -26.731 -13.691  0.00  0.00    +0.210 HD
ENDBRANCH   2   8
BRANCH   3  10
ATOM     10  O   UNL     1      37.258 -26.816 -16.081  0.00  0.00    -0.375 OA
ATOM     11  H   UNL     1      36.349 -26.784 -16.417  0.00  0.00    +0.211 HD
ENDBRANCH   3  10
BRANCH   5  13
ATOM     12  O   UNL     1      36.890 -23.460 -10.595  0.00  0.00    -0.245 OA
ATOM     13  C   UNL     1      37.513 -23.368 -11.636  0.00  0.00    +0.334 C 
BRANCH  13  14
ATOM     14  O   UNL     1      38.364 -22.374 -11.965  0.00  0.00    -0.477 OA
ATOM     15  H   UNL     1      38.921 -21.998 -11.311  0.00  0.00    +0.295 HD
ENDBRANCH  13  14
ENDBRANCH   5  13
TORSDOF 4
ENDMDL
MODEL 7
REMARK VINA RESULT:      -6.5     13.444     14.500
REMARK  Name = 439774
REMARK  4 active torsions:
REMARK  status: ('A' for Active; 'I' for Inactive)
REMARK    1  A    between atoms: C_2  and  O_8
REMARK    2  A    between atoms: C_3  and  O_10
REMARK    3  A    between atoms: C_5  and  C_13
REMARK    4  A    between atoms: C_13  and  O_14
REMARK                            x       y       z     vdW  Elec       q    Type
REMARK                         _______ _______ _______ _____ _____    ______ ____
ROOT
ATOM      1  O   UNL     1      34.565 -18.046 -25.608  0.00  0.00    -0.289 OA
ATOM      2  C   UNL     1      33.482 -14.935 -24.146  0.00  0.00    +0.149 C 
ATOM      3  C   UNL     1      34.249 -15.683 -25.230  0.00  0.00    +0.199 C 
ATOM      4  C   UNL     1      34.211 -15.002 -22.804  0.00  0.00    +0.065 C 
ATOM      5  C   UNL     1      34.696 -16.382 -22.488  0.00  0.00    +0.059 C 
ATOM      6  C   UNL     1      34.536 -17.114 -24.807  0.00  0.00    +0.202 C 
ATOM      7  C   UNL     1      34.836 -17.373 -23.375  0.00  0.00    +0.042 C 
ENDROOT
BRANCH   2   8
ATOM      8  O   UNL     1      33.356 -13.561 -24.511  0.00  0.00    -0.381 OA
ATOM      9  H   UNL     1      33.585 -13.002 -23.754  0.00  0.00    +0.210 HD
ENDBRANCH   2   8
BRANCH   3  10
ATOM     10  O   UNL     1      33.467 -15.708 -26.415  0.00  0.00    -0.375 OA
ATOM     11  H   UNL     1      32.581 -15.361 -26.225  0.00  0.00    +0.211 HD
ENDBRANCH   3  10
BRANCH   5  13
ATOM     12  O   UNL     1      35.389 -17.785 -20.698  0.00  0.00    -0.245 OA
ATOM     13  C   UNL     1      35.025 -16.693 -21.093  0.00  0.00    +0.334 C 
BRANCH  13  14
ATOM     14  O   UNL     1      34.861 -15.590 -20.334  0.00  0.00    -0.477 OA
ATOM     15  H   UNL     1      34.960 -15.642 -19.404  0.00  0.00    +0.295 HD
ENDBRANCH  13  14
ENDBRANCH   5  13
TORSDOF 4
ENDMDL
MODEL 8
REMARK VINA RESULT:      -6.5      1.986      4.662
REMARK  Name = 439774
REMARK  4 active torsions:
REMARK  status: ('A' for Active; 'I' for Inactive)
REMARK    1  A    between atoms: C_2  and  O_8
REMARK    2  A    between atoms: C_3  and  O_10
REMARK    3  A    between atoms: C_5  and  C_13
REMARK    4  A    between atoms: C_13  and  O_14
REMARK                            x       y       z     vdW  Elec       q    Type
REMARK                         _______ _______ _______ _____ _____    ______ ____
ROOT
ATOM      1  O   UNL     1      37.163 -22.740 -15.697  0.00  0.00    -0.289 OA
ATOM      2  C   UNL     1      38.729 -25.065 -13.432  0.00  0.00    +0.149 C 
ATOM      3  C   UNL     1      38.297 -24.694 -14.845  0.00  0.00    +0.199 C 
ATOM      4  C   UNL     1      37.528 -25.445 -12.566  0.00  0.00    +0.065 C 
ATOM      5  C   UNL     1      36.391 -24.484 -12.716  0.00  0.00    +0.059 C 
ATOM      6  C   UNL     1      37.240 -23.602 -14.823  0.00  0.00    +0.202 C 
ATOM      7  C   UNL     1      36.242 -23.616 -13.723  0.00  0.00    +0.042 C 
ENDROOT
BRANCH   2   8
ATOM      8  O   UNL     1      39.610 -26.187 -13.482  0.00  0.00    -0.381 OA
ATOM      9  H   UNL     1      40.300 -26.027 -14.144  0.00  0.00    +0.210 HD
ENDBRANCH   2   8
BRANCH   3  10
ATOM     10  O   UNL     1      39.425 -24.219 -15.564  0.00  0.00    -0.375 OA
ATOM     11  H   UNL     1      39.946 -23.630 -14.996  0.00  0.00    +0.211 HD
ENDBRANCH   3  10
BRANCH   5  13
ATOM     12  O   UNL     1      35.388 -25.154 -10.668  0.00  0.00    -0.245 OA
ATOM     13  C   UNL     1      35.364 -24.464 -11.669  0.00  0.00    +0.334 C 
BRANCH  13  14
ATOM     14  O   UNL     1      34.408 -23.570 -11.993  0.00  0.00    -0.477 OA
ATOM     15  H   UNL     1      34.462 -22.689 -11.677  0.00  0.00    +0.295 HD
ENDBRANCH  13  14
ENDBRANCH   5  13
TORSDOF 4
ENDMDL
MODEL 9
REMARK VINA RESULT:      -6.4      2.620      3.206
REMARK  Name = 439774
REMARK  4 active torsions:
REMARK  status: ('A' for Active; 'I' for Inactive)
REMARK    1  A    between atoms: C_2  and  O_8
REMARK    2  A    between atoms: C_3  and  O_10
REMARK    3  A    between atoms: C_5  and  C_13
REMARK    4  A    between atoms: C_13  and  O_14
REMARK                            x       y       z     vdW  Elec       q    Type
REMARK                         _______ _______ _______ _____ _____    ______ ____
ROOT
ATOM      1  O   UNL     1      37.989 -24.492 -11.221  0.00  0.00    -0.289 OA
ATOM      2  C   UNL     1      34.786 -24.174 -12.842  0.00  0.00    +0.149 C 
ATOM      3  C   UNL     1      35.764 -24.995 -12.010  0.00  0.00    +0.199 C 
ATOM      4  C   UNL     1      35.232 -24.091 -14.302  0.00  0.00    +0.065 C 
ATOM      5  C   UNL     1      36.690 -23.782 -14.435  0.00  0.00    +0.059 C 
ATOM      6  C   UNL     1      37.180 -24.459 -12.146  0.00  0.00    +0.202 C 
ATOM      7  C   UNL     1      37.600 -23.919 -13.465  0.00  0.00    +0.042 C 
ENDROOT
BRANCH   2   8
ATOM      8  O   UNL     1      33.498 -24.788 -12.808  0.00  0.00    -0.381 OA
ATOM      9  H   UNL     1      32.820 -24.108 -12.674  0.00  0.00    +0.210 HD
ENDBRANCH   2   8
BRANCH   3  10
ATOM     10  O   UNL     1      35.381 -24.926 -10.645  0.00  0.00    -0.375 OA
ATOM     11  H   UNL     1      34.558 -24.419 -10.566  0.00  0.00    +0.211 HD
ENDBRANCH   3  10
BRANCH   5  13
ATOM     12  O   UNL     1      36.450 -22.810 -16.591  0.00  0.00    -0.245 OA
ATOM     13  C   UNL     1      37.168 -23.262 -15.720  0.00  0.00    +0.334 C 
BRANCH  13  14
ATOM     14  O   UNL     1      38.512 -23.365 -15.776  0.00  0.00    -0.477 OA
ATOM     15  H   UNL     1      39.044 -22.594 -15.737  0.00  0.00    +0.295 HD
ENDBRANCH  13  14
ENDBRANCH   5  13
TORSDOF 4
ENDMDL
