MODEL 1
REMARK VINA RESULT:      -6.3      0.000      0.000
REMARK  Name = 4469994
REMARK  5 active torsions:
REMARK  status: ('A' for Active; 'I' for Inactive)
REMARK    1  A    between atoms: C_1  and  C_4
REMARK    2  A    between atoms: C_1  and  C_8
REMARK    3  A    between atoms: N_3  and  O_6
REMARK    4  A    between atoms: C_8  and  C_9
REMARK    5  A    between atoms: C_9  and  P_10
REMARK                            x       y       z     vdW  Elec       q    Type
REMARK                         _______ _______ _______ _____ _____    ______ ____
ROOT
ATOM      1  C   UNL     1      37.969 -24.413 -14.044  0.00  0.00    +0.088 C 
ENDROOT
BRANCH   1   4
ATOM      2  O   UNL     1      38.460 -26.726 -14.558  0.00  0.00    -0.273 OA
ATOM      3  N   UNL     1      39.811 -25.065 -15.426  0.00  0.00    -0.197 N 
ATOM      4  C   UNL     1      38.752 -25.541 -14.690  0.00  0.00    +0.244 C 
ATOM      5  H   UNL     1      40.005 -24.103 -15.501  0.00  0.00    +0.182 HD
BRANCH   3   6
ATOM      6  O   UNL     1      40.598 -26.035 -16.060  0.00  0.00    -0.295 OA
ATOM      7  H   UNL     1      40.990 -26.620 -15.393  0.00  0.00    +0.241 HD
ENDBRANCH   3   6
ENDBRANCH   1   4
BRANCH   1   8
ATOM      8  C   UNL     1      38.330 -24.221 -12.573  0.00  0.00    +0.023 C 
BRANCH   8   9
ATOM      9  C   UNL     1      37.281 -23.413 -11.823  0.00  0.00    +0.121 C 
BRANCH   9  10
ATOM     10  P   UNL     1      35.932 -24.415 -11.159  0.00  0.00    +0.395 P 
ATOM     11  O   UNL     1      34.684 -23.878 -11.872  0.00  0.00    -0.138 OA
ATOM     12  O   UNL     1      36.312 -25.851 -11.544  0.00  0.00    -0.253 OA
ATOM     13  O   UNL     1      35.968 -24.136  -9.651  0.00  0.00    -0.138 OA
ENDBRANCH   9  10
ENDBRANCH   8   9
ENDBRANCH   1   8
TORSDOF 5
ENDMDL
MODEL 2
REMARK VINA RESULT:      -6.2      1.860      2.312
REMARK  Name = 4469994
REMARK  5 active torsions:
REMARK  status: ('A' for Active; 'I' for Inactive)
REMARK    1  A    between atoms: C_1  and  C_4
REMARK    2  A    between atoms: C_1  and  C_8
REMARK    3  A    between atoms: N_3  and  O_6
REMARK    4  A    between atoms: C_8  and  C_9
REMARK    5  A    between atoms: C_9  and  P_10
REMARK                            x       y       z     vdW  Elec       q    Type
REMARK                         _______ _______ _______ _____ _____    ______ ____
ROOT
ATOM      1  C   UNL     1      35.687 -25.343 -14.817  0.00  0.00    +0.088 C 
ENDROOT
BRANCH   1   4
ATOM      2  O   UNL     1      36.702 -27.164 -16.046  0.00  0.00    -0.273 OA
ATOM      3  N   UNL     1      37.945 -26.046 -14.451  0.00  0.00    -0.197 N 
ATOM      4  C   UNL     1      36.812 -26.290 -15.189  0.00  0.00    +0.244 C 
ATOM      5  H   UNL     1      37.984 -25.333 -13.773  0.00  0.00    +0.182 HD
BRANCH   3   6
ATOM      6  O   UNL     1      39.040 -26.876 -14.722  0.00  0.00    -0.295 OA
ATOM      7  H   UNL     1      39.064 -27.080 -15.670  0.00  0.00    +0.241 HD
ENDBRANCH   3   6
ENDBRANCH   1   4
BRANCH   1   8
ATOM      8  C   UNL     1      36.182 -24.127 -14.037  0.00  0.00    +0.023 C 
BRANCH   8   9
ATOM      9  C   UNL     1      35.429 -23.936 -12.728  0.00  0.00    +0.121 C 
BRANCH   9  10
ATOM     10  P   UNL     1      36.460 -24.153 -11.260  0.00  0.00    +0.395 P 
ATOM     11  O   UNL     1      37.352 -25.352 -11.605  0.00  0.00    -0.138 OA
ATOM     12  O   UNL     1      37.211 -22.821 -11.134  0.00  0.00    -0.253 OA
ATOM     13  O   UNL     1      35.452 -24.418 -10.134  0.00  0.00    -0.138 OA
ENDBRANCH   9  10
ENDBRANCH   8   9
ENDBRANCH   1   8
TORSDOF 5
ENDMDL
MODEL 3
REMARK VINA RESULT:      -6.2      1.550      2.007
REMARK  Name = 4469994
REMARK  5 active torsions:
REMARK  status: ('A' for Active; 'I' for Inactive)
REMARK    1  A    between atoms: C_1  and  C_4
REMARK    2  A    between atoms: C_1  and  C_8
REMARK    3  A    between atoms: N_3  and  O_6
REMARK    4  A    between atoms: C_8  and  C_9
REMARK    5  A    between atoms: C_9  and  P_10
REMARK                            x       y       z     vdW  Elec       q    Type
REMARK                         _______ _______ _______ _____ _____    ______ ____
ROOT
ATOM      1  C   UNL     1      38.378 -24.702 -14.092  0.00  0.00    +0.088 C 
ENDROOT
BRANCH   1   4
ATOM      2  O   UNL     1      39.063 -26.936 -14.724  0.00  0.00    -0.273 OA
ATOM      3  N   UNL     1      37.061 -26.100 -15.520  0.00  0.00    -0.197 N 
ATOM      4  C   UNL     1      38.229 -26.037 -14.798  0.00  0.00    +0.244 C 
ATOM      5  H   UNL     1      36.423 -25.351 -15.550  0.00  0.00    +0.182 HD
BRANCH   3   6
ATOM      6  O   UNL     1      36.837 -27.297 -16.213  0.00  0.00    -0.295 OA
ATOM      7  H   UNL     1      37.379 -27.312 -17.016  0.00  0.00    +0.241 HD
ENDBRANCH   3   6
ENDBRANCH   1   4
BRANCH   1   8
ATOM      8  C   UNL     1      38.358 -24.842 -12.572  0.00  0.00    +0.023 C 
BRANCH   8   9
ATOM      9  C   UNL     1      36.972 -25.183 -12.042  0.00  0.00    +0.121 C 
BRANCH   9  10
ATOM     10  P   UNL     1      36.149 -23.800 -11.220  0.00  0.00    +0.395 P 
ATOM     11  O   UNL     1      37.077 -22.606 -11.481  0.00  0.00    -0.138 OA
ATOM     12  O   UNL     1      34.787 -23.709 -11.921  0.00  0.00    -0.253 OA
ATOM     13  O   UNL     1      36.075 -24.233  -9.750  0.00  0.00    -0.138 OA
ENDBRANCH   9  10
ENDBRANCH   8   9
ENDBRANCH   1   8
TORSDOF 5
ENDMDL
MODEL 4
REMARK VINA RESULT:      -6.2      2.632      4.992
REMARK  Name = 4469994
REMARK  5 active torsions:
REMARK  status: ('A' for Active; 'I' for Inactive)
REMARK    1  A    between atoms: C_1  and  C_4
REMARK    2  A    between atoms: C_1  and  C_8
REMARK    3  A    between atoms: N_3  and  O_6
REMARK    4  A    between atoms: C_8  and  C_9
REMARK    5  A    between atoms: C_9  and  P_10
REMARK                            x       y       z     vdW  Elec       q    Type
REMARK                         _______ _______ _______ _____ _____    ______ ____
ROOT
ATOM      1  C   UNL     1      36.733 -23.166 -13.059  0.00  0.00    +0.088 C 
ENDROOT
BRANCH   1   4
ATOM      2  O   UNL     1      37.110 -23.110 -10.669  0.00  0.00    -0.273 OA
ATOM      3  N   UNL     1      35.575 -24.603 -11.536  0.00  0.00    -0.197 N 
ATOM      4  C   UNL     1      36.513 -23.602 -11.622  0.00  0.00    +0.244 C 
ATOM      5  H   UNL     1      35.123 -24.966 -12.331  0.00  0.00    +0.182 HD
BRANCH   3   6
ATOM      6  O   UNL     1      35.305 -25.075 -10.245  0.00  0.00    -0.295 OA
ATOM      7  H   UNL     1      35.568 -26.006 -10.180  0.00  0.00    +0.241 HD
ENDBRANCH   3   6
ENDBRANCH   1   4
BRANCH   1   8
ATOM      8  C   UNL     1      36.163 -24.162 -14.065  0.00  0.00    +0.023 C 
BRANCH   8   9
ATOM      9  C   UNL     1      37.242 -24.770 -14.950  0.00  0.00    +0.121 C 
BRANCH   9  10
ATOM     10  P   UNL     1      37.479 -26.543 -14.693  0.00  0.00    +0.395 P 
ATOM     11  O   UNL     1      39.002 -26.725 -14.739  0.00  0.00    -0.138 OA
ATOM     12  O   UNL     1      36.852 -26.805 -13.317  0.00  0.00    -0.253 OA
ATOM     13  O   UNL     1      36.729 -27.192 -15.863  0.00  0.00    -0.138 OA
ENDBRANCH   9  10
ENDBRANCH   8   9
ENDBRANCH   1   8
TORSDOF 5
ENDMDL
MODEL 5
REMARK VINA RESULT:      -6.2      1.518      2.079
REMARK  Name = 4469994
REMARK  5 active torsions:
REMARK  status: ('A' for Active; 'I' for Inactive)
REMARK    1  A    between atoms: C_1  and  C_4
REMARK    2  A    between atoms: C_1  and  C_8
REMARK    3  A    between atoms: N_3  and  O_6
REMARK    4  A    between atoms: C_8  and  C_9
REMARK    5  A    between atoms: C_9  and  P_10
REMARK                            x       y       z     vdW  Elec       q    Type
REMARK                         _______ _______ _______ _____ _____    ______ ____
ROOT
ATOM      1  C   UNL     1      38.724 -24.963 -14.358  0.00  0.00    +0.088 C 
ENDROOT
BRANCH   1   4
ATOM      2  O   UNL     1      40.385 -25.785 -15.914  0.00  0.00    -0.273 OA
ATOM      3  N   UNL     1      40.498 -26.428 -13.698  0.00  0.00    -0.197 N 
ATOM      4  C   UNL     1      39.951 -25.757 -14.766  0.00  0.00    +0.244 C 
ATOM      5  H   UNL     1      40.112 -26.375 -12.794  0.00  0.00    +0.182 HD
BRANCH   3   6
ATOM      6  O   UNL     1      41.636 -27.194 -13.978  0.00  0.00    -0.295 OA
ATOM      7  H   UNL     1      42.269 -26.661 -14.484  0.00  0.00    +0.241 HD
ENDBRANCH   3   6
ENDBRANCH   1   4
BRANCH   1   8
ATOM      8  C   UNL     1      38.448 -25.046 -12.859  0.00  0.00    +0.023 C 
BRANCH   8   9
ATOM      9  C   UNL     1      37.015 -25.462 -12.559  0.00  0.00    +0.121 C 
BRANCH   9  10
ATOM     10  P   UNL     1      36.095 -24.250 -11.584  0.00  0.00    +0.395 P 
ATOM     11  O   UNL     1      35.356 -25.096 -10.539  0.00  0.00    -0.138 OA
ATOM     12  O   UNL     1      37.184 -23.338 -11.004  0.00  0.00    -0.253 OA
ATOM     13  O   UNL     1      35.179 -23.568 -12.608  0.00  0.00    -0.138 OA
ENDBRANCH   9  10
ENDBRANCH   8   9
ENDBRANCH   1   8
TORSDOF 5
ENDMDL
MODEL 6
REMARK VINA RESULT:      -6.2      2.861      3.178
REMARK  Name = 4469994
REMARK  5 active torsions:
REMARK  status: ('A' for Active; 'I' for Inactive)
REMARK    1  A    between atoms: C_1  and  C_4
REMARK    2  A    between atoms: C_1  and  C_8
REMARK    3  A    between atoms: N_3  and  O_6
REMARK    4  A    between atoms: C_8  and  C_9
REMARK    5  A    between atoms: C_9  and  P_10
REMARK                            x       y       z     vdW  Elec       q    Type
REMARK                         _______ _______ _______ _____ _____    ______ ____
ROOT
ATOM      1  C   UNL     1      38.900 -25.221 -13.070  0.00  0.00    +0.088 C 
ENDROOT
BRANCH   1   4
ATOM      2  O   UNL     1      40.869 -26.437 -13.778  0.00  0.00    -0.273 OA
ATOM      3  N   UNL     1      39.553 -25.396 -15.366  0.00  0.00    -0.197 N 
ATOM      4  C   UNL     1      39.891 -25.761 -14.085  0.00  0.00    +0.244 C 
ATOM      5  H   UNL     1      38.757 -24.851 -15.562  0.00  0.00    +0.182 HD
BRANCH   3   6
ATOM      6  O   UNL     1      40.414 -25.847 -16.375  0.00  0.00    -0.295 OA
ATOM      7  H   UNL     1      41.215 -26.220 -15.974  0.00  0.00    +0.241 HD
ENDBRANCH   3   6
ENDBRANCH   1   4
BRANCH   1   8
ATOM      8  C   UNL     1      37.587 -25.999 -13.066  0.00  0.00    +0.023 C 
BRANCH   8   9
ATOM      9  C   UNL     1      36.381 -25.097 -13.286  0.00  0.00    +0.121 C 
BRANCH   9  10
ATOM     10  P   UNL     1      35.835 -25.021 -15.007  0.00  0.00    +0.395 P 
ATOM     11  O   UNL     1      36.023 -26.455 -15.520  0.00  0.00    -0.138 OA
ATOM     12  O   UNL     1      34.372 -24.570 -14.912  0.00  0.00    -0.253 OA
ATOM     13  O   UNL     1      36.773 -23.992 -15.649  0.00  0.00    -0.138 OA
ENDBRANCH   9  10
ENDBRANCH   8   9
ENDBRANCH   1   8
TORSDOF 5
ENDMDL
MODEL 7
REMARK VINA RESULT:      -6.1      1.773      1.985
REMARK  Name = 4469994
REMARK  5 active torsions:
REMARK  status: ('A' for Active; 'I' for Inactive)
REMARK    1  A    between atoms: C_1  and  C_4
REMARK    2  A    between atoms: C_1  and  C_8
REMARK    3  A    between atoms: N_3  and  O_6
REMARK    4  A    between atoms: C_8  and  C_9
REMARK    5  A    between atoms: C_9  and  P_10
REMARK                            x       y       z     vdW  Elec       q    Type
REMARK                         _______ _______ _______ _____ _____    ______ ____
ROOT
ATOM      1  C   UNL     1      37.734 -24.148 -14.341  0.00  0.00    +0.088 C 
ENDROOT
BRANCH   1   4
ATOM      2  O   UNL     1      35.720 -24.814 -15.507  0.00  0.00    -0.273 OA
ATOM      3  N   UNL     1      37.512 -26.271 -15.423  0.00  0.00    -0.197 N 
ATOM      4  C   UNL     1      36.863 -25.090 -15.151  0.00  0.00    +0.244 C 
ATOM      5  H   UNL     1      38.430 -26.446 -15.114  0.00  0.00    +0.182 HD
BRANCH   3   6
ATOM      6  O   UNL     1      36.784 -27.209 -16.165  0.00  0.00    -0.295 OA
ATOM      7  H   UNL     1      35.835 -27.044 -16.055  0.00  0.00    +0.241 HD
ENDBRANCH   3   6
ENDBRANCH   1   4
BRANCH   1   8
ATOM      8  C   UNL     1      36.914 -23.132 -13.549  0.00  0.00    +0.023 C 
BRANCH   8   9
ATOM      9  C   UNL     1      37.097 -23.291 -12.046  0.00  0.00    +0.121 C 
BRANCH   9  10
ATOM     10  P   UNL     1      35.947 -24.465 -11.295  0.00  0.00    +0.395 P 
ATOM     11  O   UNL     1      34.599 -24.137 -11.950  0.00  0.00    -0.138 OA
ATOM     12  O   UNL     1      36.518 -25.838 -11.676  0.00  0.00    -0.253 OA
ATOM     13  O   UNL     1      36.016 -24.146  -9.796  0.00  0.00    -0.138 OA
ENDBRANCH   9  10
ENDBRANCH   8   9
ENDBRANCH   1   8
TORSDOF 5
ENDMDL
MODEL 8
REMARK VINA RESULT:      -6.1      1.668      2.003
REMARK  Name = 4469994
REMARK  5 active torsions:
REMARK  status: ('A' for Active; 'I' for Inactive)
REMARK    1  A    between atoms: C_1  and  C_4
REMARK    2  A    between atoms: C_1  and  C_8
REMARK    3  A    between atoms: N_3  and  O_6
REMARK    4  A    between atoms: C_8  and  C_9
REMARK    5  A    between atoms: C_9  and  P_10
REMARK                            x       y       z     vdW  Elec       q    Type
REMARK                         _______ _______ _______ _____ _____    ______ ____
ROOT
ATOM      1  C   UNL     1      36.937 -25.243 -15.008  0.00  0.00    +0.088 C 
ENDROOT
BRANCH   1   4
ATOM      2  O   UNL     1      38.231 -27.255 -14.641  0.00  0.00    -0.273 OA
ATOM      3  N   UNL     1      39.308 -25.328 -15.323  0.00  0.00    -0.197 N 
ATOM      4  C   UNL     1      38.208 -26.070 -14.964  0.00  0.00    +0.244 C 
ATOM      5  H   UNL     1      39.239 -24.378 -15.574  0.00  0.00    +0.182 HD
BRANCH   3   6
ATOM      6  O   UNL     1      40.533 -26.008 -15.308  0.00  0.00    -0.295 OA
ATOM      7  H   UNL     1      40.456 -26.802 -14.757  0.00  0.00    +0.241 HD
ENDBRANCH   3   6
ENDBRANCH   1   4
BRANCH   1   8
ATOM      8  C   UNL     1      37.188 -23.772 -14.687  0.00  0.00    +0.023 C 
BRANCH   8   9
ATOM      9  C   UNL     1      36.563 -23.356 -13.362  0.00  0.00    +0.121 C 
BRANCH   9  10
ATOM     10  P   UNL     1      37.547 -23.821 -11.919  0.00  0.00    +0.395 P 
ATOM     11  O   UNL     1      37.313 -22.676 -10.925  0.00  0.00    -0.138 OA
ATOM     12  O   UNL     1      36.953 -25.167 -11.483  0.00  0.00    -0.253 OA
ATOM     13  O   UNL     1      38.980 -23.908 -12.458  0.00  0.00    -0.138 OA
ENDBRANCH   9  10
ENDBRANCH   8   9
ENDBRANCH   1   8
TORSDOF 5
ENDMDL
MODEL 9
REMARK VINA RESULT:      -6.1      7.338      8.532
REMARK  Name = 4469994
REMARK  5 active torsions:
REMARK  status: ('A' for Active; 'I' for Inactive)
REMARK    1  A    between atoms: C_1  and  C_4
REMARK    2  A    between atoms: C_1  and  C_8
REMARK    3  A    between atoms: N_3  and  O_6
REMARK    4  A    between atoms: C_8  and  C_9
REMARK    5  A    between atoms: C_9  and  P_10
REMARK                            x       y       z     vdW  Elec       q    Type
REMARK                         _______ _______ _______ _____ _____    ______ ____
ROOT
ATOM      1  C   UNL     1      31.385 -23.310 -14.754  0.00  0.00    +0.088 C 
ENDROOT
BRANCH   1   4
ATOM      2  O   UNL     1      31.585 -25.172 -13.220  0.00  0.00    -0.273 OA
ATOM      3  N   UNL     1      33.402 -23.784 -13.556  0.00  0.00    -0.197 N 
ATOM      4  C   UNL     1      32.109 -24.202 -13.762  0.00  0.00    +0.244 C 
ATOM      5  H   UNL     1      33.777 -22.998 -14.014  0.00  0.00    +0.182 HD
BRANCH   3   6
ATOM      6  O   UNL     1      34.151 -24.546 -12.650  0.00  0.00    -0.295 OA
ATOM      7  H   UNL     1      34.358 -24.009 -11.870  0.00  0.00    +0.241 HD
ENDBRANCH   3   6
ENDBRANCH   1   4
BRANCH   1   8
ATOM      8  C   UNL     1      30.466 -24.098 -15.684  0.00  0.00    +0.023 C 
BRANCH   8   9
ATOM      9  C   UNL     1      28.998 -23.948 -15.307  0.00  0.00    +0.121 C 
BRANCH   9  10
ATOM     10  P   UNL     1      28.020 -23.059 -16.538  0.00  0.00    +0.395 P 
ATOM     11  O   UNL     1      26.801 -22.556 -15.753  0.00  0.00    -0.138 OA
ATOM     12  O   UNL     1      28.960 -21.948 -17.027  0.00  0.00    -0.253 OA
ATOM     13  O   UNL     1      27.697 -24.123 -17.595  0.00  0.00    -0.138 OA
ENDBRANCH   9  10
ENDBRANCH   8   9
ENDBRANCH   1   8
TORSDOF 5
ENDMDL
