MODEL 1
REMARK VINA RESULT:     -10.1      0.000      0.000
REMARK  Name = 219100
REMARK  3 active torsions:
REMARK  status: ('A' for Active; 'I' for Inactive)
REMARK    1  A    between atoms: C_2  and  C_11
REMARK    2  A    between atoms: C_9  and  O_19
REMARK    3  A    between atoms: C_16  and  O_17
REMARK                            x       y       z     vdW  Elec       q    Type
REMARK                         _______ _______ _______ _____ _____    ______ ____
ROOT
ATOM      1  O   UNL     1      36.775 -20.007 -19.829  0.00  0.00    -0.467 OA
ATOM      2  C   UNL     1      35.208 -19.340 -21.658  0.00  0.00    +0.037 C 
ATOM      3  C   UNL     1      36.628 -19.523 -21.176  0.00  0.00    +0.173 C 
ATOM      4  C   UNL     1      34.526 -20.905 -19.963  0.00  0.00    +0.022 C 
ATOM      5  C   UNL     1      34.209 -20.019 -21.077  0.00  0.00    +0.003 C 
ATOM      6  C   UNL     1      35.800 -20.859 -19.388  0.00  0.00    +0.213 C 
ATOM      7  C   UNL     1      33.565 -21.773 -19.434  0.00  0.00    +0.003 C 
ATOM      8  C   UNL     1      36.108 -21.658 -18.286  0.00  0.00    +0.058 C 
ATOM      9  C   UNL     1      35.148 -22.526 -17.768  0.00  0.00    +0.133 C 
ATOM     10  C   UNL     1      33.878 -22.585 -18.342  0.00  0.00    +0.036 C 
ENDROOT
BRANCH   2  11
ATOM     11  C   UNL     1      34.966 -18.437 -22.810  0.00  0.00    +0.003 C 
ATOM     12  C   UNL     1      35.078 -17.055 -22.652  0.00  0.00    +0.003 C 
ATOM     13  C   UNL     1      34.621 -18.967 -24.055  0.00  0.00    +0.003 C 
ATOM     14  C   UNL     1      34.849 -16.205 -23.735  0.00  0.00    +0.037 C 
ATOM     15  C   UNL     1      34.392 -18.118 -25.138  0.00  0.00    +0.037 C 
ATOM     16  C   UNL     1      34.506 -16.737 -24.977  0.00  0.00    +0.134 C 
BRANCH  16  17
ATOM     17  O   UNL     1      34.281 -15.909 -26.034  0.00  0.00    -0.506 OA
ATOM     18  H   UNL     1      34.117 -14.998 -25.887  0.00  0.00    +0.292 HD
ENDBRANCH  16  17
ENDBRANCH   2  11
BRANCH   9  19
ATOM     19  O   UNL     1      35.448 -23.313 -16.698  0.00  0.00    -0.506 OA
ATOM     20  H   UNL     1      36.299 -23.269 -16.309  0.00  0.00    +0.292 HD
ENDBRANCH   9  19
TORSDOF 3
ENDMDL
MODEL 2
REMARK VINA RESULT:     -10.0      1.159      1.821
REMARK  Name = 219100
REMARK  3 active torsions:
REMARK  status: ('A' for Active; 'I' for Inactive)
REMARK    1  A    between atoms: C_2  and  C_11
REMARK    2  A    between atoms: C_9  and  O_19
REMARK    3  A    between atoms: C_16  and  O_17
REMARK                            x       y       z     vdW  Elec       q    Type
REMARK                         _______ _______ _______ _____ _____    ______ ____
ROOT
ATOM      1  O   UNL     1      32.970 -21.310 -20.134  0.00  0.00    -0.467 OA
ATOM      2  C   UNL     1      34.421 -19.721 -21.405  0.00  0.00    +0.037 C 
ATOM      3  C   UNL     1      33.041 -20.115 -20.932  0.00  0.00    +0.173 C 
ATOM      4  C   UNL     1      35.317 -21.026 -19.593  0.00  0.00    +0.022 C 
ATOM      5  C   UNL     1      35.506 -20.154 -20.747  0.00  0.00    +0.003 C 
ATOM      6  C   UNL     1      34.052 -21.566 -19.339  0.00  0.00    +0.213 C 
ATOM      7  C   UNL     1      36.389 -21.362 -18.760  0.00  0.00    +0.003 C 
ATOM      8  C   UNL     1      33.862 -22.446 -18.273  0.00  0.00    +0.058 C 
ATOM      9  C   UNL     1      34.933 -22.772 -17.441  0.00  0.00    +0.133 C 
ATOM     10  C   UNL     1      36.194 -22.230 -17.683  0.00  0.00    +0.036 C 
ENDROOT
BRANCH   2  11
ATOM     11  C   UNL     1      34.533 -18.815 -22.575  0.00  0.00    +0.003 C 
ATOM     12  C   UNL     1      34.693 -17.442 -22.384  0.00  0.00    +0.003 C 
ATOM     13  C   UNL     1      34.475 -19.334 -23.870  0.00  0.00    +0.003 C 
ATOM     14  C   UNL     1      34.797 -16.590 -23.484  0.00  0.00    +0.037 C 
ATOM     15  C   UNL     1      34.579 -18.482 -24.970  0.00  0.00    +0.037 C 
ATOM     16  C   UNL     1      34.740 -17.109 -24.776  0.00  0.00    +0.134 C 
BRANCH  16  17
ATOM     17  O   UNL     1      34.841 -16.279 -25.849  0.00  0.00    -0.506 OA
ATOM     18  H   UNL     1      35.071 -16.626 -26.690  0.00  0.00    +0.292 HD
ENDBRANCH  16  17
ENDBRANCH   2  11
BRANCH   9  19
ATOM     19  O   UNL     1      34.747 -23.625 -16.396  0.00  0.00    -0.506 OA
ATOM     20  H   UNL     1      35.484 -23.931 -15.905  0.00  0.00    +0.292 HD
ENDBRANCH   9  19
TORSDOF 3
ENDMDL
MODEL 3
REMARK VINA RESULT:      -9.8      1.917      7.060
REMARK  Name = 219100
REMARK  3 active torsions:
REMARK  status: ('A' for Active; 'I' for Inactive)
REMARK    1  A    between atoms: C_2  and  C_11
REMARK    2  A    between atoms: C_9  and  O_19
REMARK    3  A    between atoms: C_16  and  O_17
REMARK                            x       y       z     vdW  Elec       q    Type
REMARK                         _______ _______ _______ _____ _____    ______ ____
ROOT
ATOM      1  O   UNL     1      34.898 -17.532 -23.594  0.00  0.00    -0.467 OA
ATOM      2  C   UNL     1      34.444 -18.622 -21.392  0.00  0.00    +0.037 C 
ATOM      3  C   UNL     1      35.236 -18.589 -22.678  0.00  0.00    +0.173 C 
ATOM      4  C   UNL     1      33.959 -16.291 -21.735  0.00  0.00    +0.022 C 
ATOM      5  C   UNL     1      33.846 -17.509 -20.942  0.00  0.00    +0.003 C 
ATOM      6  C   UNL     1      34.482 -16.358 -23.030  0.00  0.00    +0.213 C 
ATOM      7  C   UNL     1      33.516 -15.061 -21.236  0.00  0.00    +0.003 C 
ATOM      8  C   UNL     1      34.548 -15.214 -23.826  0.00  0.00    +0.058 C 
ATOM      9  C   UNL     1      34.112 -13.990 -23.321  0.00  0.00    +0.133 C 
ATOM     10  C   UNL     1      33.597 -13.913 -22.027  0.00  0.00    +0.036 C 
ENDROOT
BRANCH   2  11
ATOM     11  C   UNL     1      34.391 -19.894 -20.630  0.00  0.00    +0.003 C 
ATOM     12  C   UNL     1      33.165 -20.399 -20.195  0.00  0.00    +0.003 C 
ATOM     13  C   UNL     1      35.568 -20.588 -20.344  0.00  0.00    +0.003 C 
ATOM     14  C   UNL     1      33.115 -21.594 -19.477  0.00  0.00    +0.037 C 
ATOM     15  C   UNL     1      35.518 -21.783 -19.626  0.00  0.00    +0.037 C 
ATOM     16  C   UNL     1      34.291 -22.286 -19.193  0.00  0.00    +0.134 C 
BRANCH  16  17
ATOM     17  O   UNL     1      34.243 -23.452 -18.492  0.00  0.00    -0.506 OA
ATOM     18  H   UNL     1      34.888 -23.629 -17.835  0.00  0.00    +0.292 HD
ENDBRANCH  16  17
ENDBRANCH   2  11
BRANCH   9  19
ATOM     19  O   UNL     1      34.182 -12.870 -24.092  0.00  0.00    -0.506 OA
ATOM     20  H   UNL     1      33.397 -12.441 -24.368  0.00  0.00    +0.292 HD
ENDBRANCH   9  19
TORSDOF 3
ENDMDL
MODEL 4
REMARK VINA RESULT:      -9.5      1.788      7.677
REMARK  Name = 219100
REMARK  3 active torsions:
REMARK  status: ('A' for Active; 'I' for Inactive)
REMARK    1  A    between atoms: C_2  and  C_11
REMARK    2  A    between atoms: C_9  and  O_19
REMARK    3  A    between atoms: C_16  and  O_17
REMARK                            x       y       z     vdW  Elec       q    Type
REMARK                         _______ _______ _______ _____ _____    ______ ____
ROOT
ATOM      1  O   UNL     1      33.925 -17.366 -25.482  0.00  0.00    -0.467 OA
ATOM      2  C   UNL     1      34.715 -17.666 -23.131  0.00  0.00    +0.037 C 
ATOM      3  C   UNL     1      34.731 -18.130 -24.568  0.00  0.00    +0.173 C 
ATOM      4  C   UNL     1      34.022 -15.505 -23.930  0.00  0.00    +0.022 C 
ATOM      5  C   UNL     1      34.385 -16.400 -22.837  0.00  0.00    +0.003 C 
ATOM      6  C   UNL     1      33.808 -16.031 -25.208  0.00  0.00    +0.213 C 
ATOM      7  C   UNL     1      33.845 -14.135 -23.713  0.00  0.00    +0.003 C 
ATOM      8  C   UNL     1      33.406 -15.201 -26.255  0.00  0.00    +0.058 C 
ATOM      9  C   UNL     1      33.238 -13.835 -26.034  0.00  0.00    +0.133 C 
ATOM     10  C   UNL     1      33.458 -13.302 -24.765  0.00  0.00    +0.036 C 
ENDROOT
BRANCH   2  11
ATOM     11  C   UNL     1      35.116 -18.628 -22.075  0.00  0.00    +0.003 C 
ATOM     12  C   UNL     1      36.439 -18.675 -21.635  0.00  0.00    +0.003 C 
ATOM     13  C   UNL     1      34.169 -19.492 -21.520  0.00  0.00    +0.003 C 
ATOM     14  C   UNL     1      36.817 -19.580 -20.643  0.00  0.00    +0.037 C 
ATOM     15  C   UNL     1      34.547 -20.398 -20.528  0.00  0.00    +0.037 C 
ATOM     16  C   UNL     1      35.870 -20.441 -20.089  0.00  0.00    +0.134 C 
BRANCH  16  17
ATOM     17  O   UNL     1      36.238 -21.325 -19.122  0.00  0.00    -0.506 OA
ATOM     18  H   UNL     1      37.098 -21.282 -18.752  0.00  0.00    +0.292 HD
ENDBRANCH  16  17
ENDBRANCH   2  11
BRANCH   9  19
ATOM     19  O   UNL     1      32.854 -13.022 -27.056  0.00  0.00    -0.506 OA
ATOM     20  H   UNL     1      32.111 -12.460 -26.954  0.00  0.00    +0.292 HD
ENDBRANCH   9  19
TORSDOF 3
ENDMDL
MODEL 5
REMARK VINA RESULT:      -9.4      1.431      1.878
REMARK  Name = 219100
REMARK  3 active torsions:
REMARK  status: ('A' for Active; 'I' for Inactive)
REMARK    1  A    between atoms: C_2  and  C_11
REMARK    2  A    between atoms: C_9  and  O_19
REMARK    3  A    between atoms: C_16  and  O_17
REMARK                            x       y       z     vdW  Elec       q    Type
REMARK                         _______ _______ _______ _____ _____    ______ ____
ROOT
ATOM      1  O   UNL     1      36.522 -19.051 -21.115  0.00  0.00    -0.467 OA
ATOM      2  C   UNL     1      34.722 -17.841 -22.355  0.00  0.00    +0.037 C 
ATOM      3  C   UNL     1      36.164 -18.287 -22.279  0.00  0.00    +0.173 C 
ATOM      4  C   UNL     1      34.183 -19.628 -20.837  0.00  0.00    +0.022 C 
ATOM      5  C   UNL     1      33.778 -18.500 -21.668  0.00  0.00    +0.003 C 
ATOM      6  C   UNL     1      35.542 -19.853 -20.597  0.00  0.00    +0.213 C 
ATOM      7  C   UNL     1      33.233 -20.465 -20.243  0.00  0.00    +0.003 C 
ATOM      8  C   UNL     1      35.949 -20.893 -19.761  0.00  0.00    +0.058 C 
ATOM      9  C   UNL     1      34.998 -21.728 -19.177  0.00  0.00    +0.133 C 
ATOM     10  C   UNL     1      33.641 -21.516 -19.418  0.00  0.00    +0.036 C 
ENDROOT
BRANCH   2  11
ATOM     11  C   UNL     1      34.384 -16.698 -23.238  0.00  0.00    +0.003 C 
ATOM     12  C   UNL     1      34.244 -15.416 -22.702  0.00  0.00    +0.003 C 
ATOM     13  C   UNL     1      34.201 -16.901 -24.607  0.00  0.00    +0.003 C 
ATOM     14  C   UNL     1      33.925 -14.341 -23.532  0.00  0.00    +0.037 C 
ATOM     15  C   UNL     1      33.881 -15.826 -25.437  0.00  0.00    +0.037 C 
ATOM     16  C   UNL     1      33.743 -14.546 -24.900  0.00  0.00    +0.134 C 
BRANCH  16  17
ATOM     17  O   UNL     1      33.431 -13.498 -25.709  0.00  0.00    -0.506 OA
ATOM     18  H   UNL     1      33.624 -13.542 -26.626  0.00  0.00    +0.292 HD
ENDBRANCH  16  17
ENDBRANCH   2  11
BRANCH   9  19
ATOM     19  O   UNL     1      35.393 -22.748 -18.366  0.00  0.00    -0.506 OA
ATOM     20  H   UNL     1      35.704 -22.565 -17.502  0.00  0.00    +0.292 HD
ENDBRANCH   9  19
TORSDOF 3
ENDMDL
MODEL 6
REMARK VINA RESULT:      -9.1      1.864      7.379
REMARK  Name = 219100
REMARK  3 active torsions:
REMARK  status: ('A' for Active; 'I' for Inactive)
REMARK    1  A    between atoms: C_2  and  C_11
REMARK    2  A    between atoms: C_9  and  O_19
REMARK    3  A    between atoms: C_16  and  O_17
REMARK                            x       y       z     vdW  Elec       q    Type
REMARK                         _______ _______ _______ _____ _____    ______ ____
ROOT
ATOM      1  O   UNL     1      34.569 -15.212 -21.837  0.00  0.00    -0.467 OA
ATOM      2  C   UNL     1      34.613 -17.710 -21.863  0.00  0.00    +0.037 C 
ATOM      3  C   UNL     1      34.389 -16.430 -21.093  0.00  0.00    +0.173 C 
ATOM      4  C   UNL     1      34.196 -16.465 -23.879  0.00  0.00    +0.022 C 
ATOM      5  C   UNL     1      34.505 -17.718 -23.200  0.00  0.00    +0.003 C 
ATOM      6  C   UNL     1      34.242 -15.264 -23.164  0.00  0.00    +0.213 C 
ATOM      7  C   UNL     1      33.892 -16.440 -25.245  0.00  0.00    +0.003 C 
ATOM      8  C   UNL     1      34.003 -14.049 -23.807  0.00  0.00    +0.058 C 
ATOM      9  C   UNL     1      33.694 -14.031 -25.167  0.00  0.00    +0.133 C 
ATOM     10  C   UNL     1      33.637 -15.225 -25.885  0.00  0.00    +0.036 C 
ENDROOT
BRANCH   2  11
ATOM     11  C   UNL     1      34.905 -18.949 -21.101  0.00  0.00    +0.003 C 
ATOM     12  C   UNL     1      33.861 -19.771 -20.674  0.00  0.00    +0.003 C 
ATOM     13  C   UNL     1      36.225 -19.295 -20.807  0.00  0.00    +0.003 C 
ATOM     14  C   UNL     1      34.135 -20.936 -19.957  0.00  0.00    +0.037 C 
ATOM     15  C   UNL     1      36.499 -20.460 -20.089  0.00  0.00    +0.037 C 
ATOM     16  C   UNL     1      35.454 -21.280 -19.664  0.00  0.00    +0.134 C 
BRANCH  16  17
ATOM     17  O   UNL     1      35.722 -22.415 -18.964  0.00  0.00    -0.506 OA
ATOM     18  H   UNL     1      36.382 -23.007 -19.268  0.00  0.00    +0.292 HD
ENDBRANCH  16  17
ENDBRANCH   2  11
BRANCH   9  19
ATOM     19  O   UNL     1      33.454 -12.848 -25.795  0.00  0.00    -0.506 OA
ATOM     20  H   UNL     1      32.573 -12.577 -25.962  0.00  0.00    +0.292 HD
ENDBRANCH   9  19
TORSDOF 3
ENDMDL
MODEL 7
REMARK VINA RESULT:      -9.0      3.183      7.526
REMARK  Name = 219100
REMARK  3 active torsions:
REMARK  status: ('A' for Active; 'I' for Inactive)
REMARK    1  A    between atoms: C_2  and  C_11
REMARK    2  A    between atoms: C_9  and  O_19
REMARK    3  A    between atoms: C_16  and  O_17
REMARK                            x       y       z     vdW  Elec       q    Type
REMARK                         _______ _______ _______ _____ _____    ______ ____
ROOT
ATOM      1  O   UNL     1      34.081 -14.951 -23.587  0.00  0.00    -0.467 OA
ATOM      2  C   UNL     1      34.197 -16.587 -21.702  0.00  0.00    +0.037 C 
ATOM      3  C   UNL     1      34.809 -16.023 -22.963  0.00  0.00    +0.173 C 
ATOM      4  C   UNL     1      33.007 -14.510 -21.458  0.00  0.00    +0.022 C 
ATOM      5  C   UNL     1      33.343 -15.846 -20.980  0.00  0.00    +0.003 C 
ATOM      6  C   UNL     1      33.394 -14.122 -22.744  0.00  0.00    +0.213 C 
ATOM      7  C   UNL     1      32.271 -13.624 -20.665  0.00  0.00    +0.003 C 
ATOM      8  C   UNL     1      33.035 -12.868 -23.241  0.00  0.00    +0.058 C 
ATOM      9  C   UNL     1      32.307 -11.986 -22.443  0.00  0.00    +0.133 C 
ATOM     10  C   UNL     1      31.926 -12.363 -21.156  0.00  0.00    +0.036 C 
ENDROOT
BRANCH   2  11
ATOM     11  C   UNL     1      34.602 -17.947 -21.269  0.00  0.00    +0.003 C 
ATOM     12  C   UNL     1      35.954 -18.271 -21.149  0.00  0.00    +0.003 C 
ATOM     13  C   UNL     1      33.630 -18.908 -20.982  0.00  0.00    +0.003 C 
ATOM     14  C   UNL     1      36.335 -19.550 -20.743  0.00  0.00    +0.037 C 
ATOM     15  C   UNL     1      34.011 -20.187 -20.575  0.00  0.00    +0.037 C 
ATOM     16  C   UNL     1      35.363 -20.508 -20.456  0.00  0.00    +0.134 C 
BRANCH  16  17
ATOM     17  O   UNL     1      35.734 -21.756 -20.060  0.00  0.00    -0.506 OA
ATOM     18  H   UNL     1      35.245 -22.200 -19.395  0.00  0.00    +0.292 HD
ENDBRANCH  16  17
ENDBRANCH   2  11
BRANCH   9  19
ATOM     19  O   UNL     1      31.963 -10.759 -22.923  0.00  0.00    -0.506 OA
ATOM     20  H   UNL     1      31.479 -10.165 -22.385  0.00  0.00    +0.292 HD
ENDBRANCH   9  19
TORSDOF 3
ENDMDL
MODEL 8
REMARK VINA RESULT:      -8.9      1.301      7.037
REMARK  Name = 219100
REMARK  3 active torsions:
REMARK  status: ('A' for Active; 'I' for Inactive)
REMARK    1  A    between atoms: C_2  and  C_11
REMARK    2  A    between atoms: C_9  and  O_19
REMARK    3  A    between atoms: C_16  and  O_17
REMARK                            x       y       z     vdW  Elec       q    Type
REMARK                         _______ _______ _______ _____ _____    ______ ____
ROOT
ATOM      1  O   UNL     1      34.819 -16.832 -21.802  0.00  0.00    -0.467 OA
ATOM      2  C   UNL     1      34.522 -19.266 -21.323  0.00  0.00    +0.037 C 
ATOM      3  C   UNL     1      34.416 -17.834 -20.852  0.00  0.00    +0.173 C 
ATOM      4  C   UNL     1      34.436 -18.437 -23.580  0.00  0.00    +0.022 C 
ATOM      5  C   UNL     1      34.517 -19.544 -22.635  0.00  0.00    +0.003 C 
ATOM      6  C   UNL     1      34.591 -17.126 -23.119  0.00  0.00    +0.213 C 
ATOM      7  C   UNL     1      34.245 -18.666 -24.946  0.00  0.00    +0.003 C 
ATOM      8  C   UNL     1      34.572 -16.055 -24.014  0.00  0.00    +0.058 C 
ATOM      9  C   UNL     1      34.375 -16.290 -25.374  0.00  0.00    +0.133 C 
ATOM     10  C   UNL     1      34.210 -17.594 -25.840  0.00  0.00    +0.036 C 
ENDROOT
BRANCH   2  11
ATOM     11  C   UNL     1      34.580 -20.340 -20.302  0.00  0.00    +0.003 C 
ATOM     12  C   UNL     1      35.811 -20.755 -19.791  0.00  0.00    +0.003 C 
ATOM     13  C   UNL     1      33.403 -20.942 -19.850  0.00  0.00    +0.003 C 
ATOM     14  C   UNL     1      35.866 -21.767 -18.831  0.00  0.00    +0.037 C 
ATOM     15  C   UNL     1      33.459 -21.954 -18.891  0.00  0.00    +0.037 C 
ATOM     16  C   UNL     1      34.690 -22.366 -18.382  0.00  0.00    +0.134 C 
BRANCH  16  17
ATOM     17  O   UNL     1      34.743 -23.353 -17.446  0.00  0.00    -0.506 OA
ATOM     18  H   UNL     1      34.683 -24.250 -17.710  0.00  0.00    +0.292 HD
ENDBRANCH  16  17
ENDBRANCH   2  11
BRANCH   9  19
ATOM     19  O   UNL     1      34.348 -15.246 -26.248  0.00  0.00    -0.506 OA
ATOM     20  H   UNL     1      34.769 -15.323 -27.081  0.00  0.00    +0.292 HD
ENDBRANCH   9  19
TORSDOF 3
ENDMDL
MODEL 9
REMARK VINA RESULT:      -8.8      4.153      7.222
REMARK  Name = 219100
REMARK  3 active torsions:
REMARK  status: ('A' for Active; 'I' for Inactive)
REMARK    1  A    between atoms: C_2  and  C_11
REMARK    2  A    between atoms: C_9  and  O_19
REMARK    3  A    between atoms: C_16  and  O_17
REMARK                            x       y       z     vdW  Elec       q    Type
REMARK                         _______ _______ _______ _____ _____    ______ ____
ROOT
ATOM      1  O   UNL     1      33.688 -15.479 -25.766  0.00  0.00    -0.467 OA
ATOM      2  C   UNL     1      33.654 -13.663 -24.051  0.00  0.00    +0.037 C 
ATOM      3  C   UNL     1      33.084 -14.251 -25.320  0.00  0.00    +0.173 C 
ATOM      4  C   UNL     1      34.464 -15.860 -23.501  0.00  0.00    +0.022 C 
ATOM      5  C   UNL     1      34.303 -14.447 -23.178  0.00  0.00    +0.003 C 
ATOM      6  C   UNL     1      34.148 -16.313 -24.785  0.00  0.00    +0.213 C 
ATOM      7  C   UNL     1      34.968 -16.763 -22.558  0.00  0.00    +0.003 C 
ATOM      8  C   UNL     1      34.346 -17.650 -25.131  0.00  0.00    +0.058 C 
ATOM      9  C   UNL     1      34.842 -18.547 -24.185  0.00  0.00    +0.133 C 
ATOM     10  C   UNL     1      35.151 -18.104 -22.900  0.00  0.00    +0.036 C 
ENDROOT
BRANCH   2  11
ATOM     11  C   UNL     1      33.432 -12.221 -23.782  0.00  0.00    +0.003 C 
ATOM     12  C   UNL     1      32.446 -11.819 -22.879  0.00  0.00    +0.003 C 
ATOM     13  C   UNL     1      34.208 -11.260 -24.434  0.00  0.00    +0.003 C 
ATOM     14  C   UNL     1      32.238 -10.463 -22.627  0.00  0.00    +0.037 C 
ATOM     15  C   UNL     1      34.000  -9.904 -24.182  0.00  0.00    +0.037 C 
ATOM     16  C   UNL     1      33.014  -9.505 -23.278  0.00  0.00    +0.134 C 
BRANCH  16  17
ATOM     17  O   UNL     1      32.810  -8.182 -23.033  0.00  0.00    -0.506 OA
ATOM     18  H   UNL     1      33.223  -7.774 -22.297  0.00  0.00    +0.292 HD
ENDBRANCH  16  17
ENDBRANCH   2  11
BRANCH   9  19
ATOM     19  O   UNL     1      35.030 -19.854 -24.519  0.00  0.00    -0.506 OA
ATOM     20  H   UNL     1      35.637 -20.377 -24.035  0.00  0.00    +0.292 HD
ENDBRANCH   9  19
TORSDOF 3
ENDMDL
