MODEL 1
REMARK VINA RESULT:     -10.8      0.000      0.000
REMARK  Name = 445900
REMARK  1 active torsions:
REMARK  status: ('A' for Active; 'I' for Inactive)
REMARK    1  A    between atoms: C_7  and  C_18
REMARK                            x       y       z     vdW  Elec       q    Type
REMARK                         _______ _______ _______ _____ _____    ______ ____
ROOT
ATOM      1  O   UNL     1      32.110 -22.583 -17.859  0.00  0.00    -0.275 OA
ATOM      2  O   UNL     1      32.037 -23.255 -13.107  0.00  0.00    -0.273 OA
ATOM      3  N   UNL     1      34.165 -24.048 -13.617  0.00  0.00    -0.274 N 
ATOM      4  N   UNL     1      33.556 -23.534 -16.302  0.00  0.00    -0.269 N 
ATOM      5  C   UNL     1      34.972 -24.738 -14.633  0.00  0.00    +0.117 C 
ATOM      6  C   UNL     1      34.922 -23.920 -15.928  0.00  0.00    +0.118 C 
ATOM      7  C   UNL     1      33.251 -22.896 -17.509  0.00  0.00    +0.226 C 
ATOM      8  C   UNL     1      36.408 -25.013 -14.221  0.00  0.00    -0.007 C 
ATOM      9  C   UNL     1      34.652 -23.998 -12.242  0.00  0.00    +0.098 C 
ATOM     10  C   UNL     1      32.475 -23.865 -15.377  0.00  0.00    +0.179 C 
ATOM     11  C   UNL     1      36.104 -23.548 -12.194  0.00  0.00    +0.048 C 
ATOM     12  C   UNL     1      32.868 -23.642 -13.929  0.00  0.00    +0.246 C 
ATOM     13  C   UNL     1      36.953 -24.439 -13.057  0.00  0.00    -0.023 C 
ATOM     14  C   UNL     1      37.214 -25.850 -15.008  0.00  0.00    -0.003 C 
ATOM     15  C   UNL     1      38.295 -24.673 -12.726  0.00  0.00    -0.004 C 
ATOM     16  C   UNL     1      38.544 -26.091 -14.660  0.00  0.00    -0.000 C 
ATOM     17  C   UNL     1      39.085 -25.499 -13.523  0.00  0.00    -0.000 C 
ENDROOT
BRANCH   7  18
ATOM     18  C   UNL     1      34.411 -22.593 -18.409  0.00  0.00    +0.077 C 
ATOM     19  C   UNL     1      33.975 -21.629 -19.515  0.00  0.00    +0.009 C 
ATOM     20  C   UNL     1      35.570 -22.019 -17.590  0.00  0.00    +0.009 C 
ATOM     21  C   UNL     1      35.149 -21.218 -20.400  0.00  0.00    +0.000 C 
ATOM     22  C   UNL     1      36.740 -21.608 -18.481  0.00  0.00    +0.000 C 
ATOM     23  C   UNL     1      36.299 -20.645 -19.579  0.00  0.00    +0.000 C 
ENDBRANCH   7  18
TORSDOF 1
ENDMDL
MODEL 2
REMARK VINA RESULT:      -9.8     11.559     14.815
REMARK  Name = 445900
REMARK  1 active torsions:
REMARK  status: ('A' for Active; 'I' for Inactive)
REMARK    1  A    between atoms: C_7  and  C_18
REMARK                            x       y       z     vdW  Elec       q    Type
REMARK                         _______ _______ _______ _____ _____    ______ ____
ROOT
ATOM      1  O   UNL     1      31.493  -7.845 -21.409  0.00  0.00    -0.275 OA
ATOM      2  O   UNL     1      31.606 -11.922 -18.879  0.00  0.00    -0.273 OA
ATOM      3  N   UNL     1      32.187 -12.714 -20.989  0.00  0.00    -0.274 N 
ATOM      4  N   UNL     1      31.838 -10.092 -21.911  0.00  0.00    -0.269 N 
ATOM      5  C   UNL     1      31.982 -12.531 -22.434  0.00  0.00    +0.117 C 
ATOM      6  C   UNL     1      32.408 -11.107 -22.805  0.00  0.00    +0.118 C 
ATOM      7  C   UNL     1      31.982  -8.718 -22.130  0.00  0.00    +0.226 C 
ATOM      8  C   UNL     1      32.687 -13.553 -23.307  0.00  0.00    -0.007 C 
ATOM      9  C   UNL     1      32.717 -13.984 -20.507  0.00  0.00    +0.098 C 
ATOM     10  C   UNL     1      31.062 -10.553 -20.762  0.00  0.00    +0.179 C 
ATOM     11  C   UNL     1      33.950 -14.396 -21.297  0.00  0.00    +0.048 C 
ATOM     12  C   UNL     1      31.682 -11.767 -20.098  0.00  0.00    +0.246 C 
ATOM     13  C   UNL     1      33.634 -14.443 -22.766  0.00  0.00    -0.023 C 
ATOM     14  C   UNL     1      32.399 -13.618 -24.679  0.00  0.00    -0.003 C 
ATOM     15  C   UNL     1      34.303 -15.345 -23.604  0.00  0.00    -0.004 C 
ATOM     16  C   UNL     1      33.058 -14.533 -25.503  0.00  0.00    -0.000 C 
ATOM     17  C   UNL     1      34.012 -15.391 -24.967  0.00  0.00    -0.000 C 
ENDROOT
BRANCH   7  18
ATOM     18  C   UNL     1      32.787  -8.321 -23.332  0.00  0.00    +0.077 C 
ATOM     19  C   UNL     1      32.133  -7.124 -24.025  0.00  0.00    +0.009 C 
ATOM     20  C   UNL     1      34.226  -8.009 -22.915  0.00  0.00    +0.009 C 
ATOM     21  C   UNL     1      32.970  -6.626 -25.200  0.00  0.00    +0.000 C 
ATOM     22  C   UNL     1      35.058  -7.510 -24.093  0.00  0.00    +0.000 C 
ATOM     23  C   UNL     1      34.403  -6.315 -24.778  0.00  0.00    +0.000 C 
ENDBRANCH   7  18
TORSDOF 1
ENDMDL
MODEL 3
REMARK VINA RESULT:      -9.6      9.028     13.559
REMARK  Name = 445900
REMARK  1 active torsions:
REMARK  status: ('A' for Active; 'I' for Inactive)
REMARK    1  A    between atoms: C_7  and  C_18
REMARK                            x       y       z     vdW  Elec       q    Type
REMARK                         _______ _______ _______ _____ _____    ______ ____
ROOT
ATOM      1  O   UNL     1      34.709 -17.924 -25.486  0.00  0.00    -0.275 OA
ATOM      2  O   UNL     1      33.892 -13.793 -27.788  0.00  0.00    -0.273 OA
ATOM      3  N   UNL     1      33.279 -13.202 -25.622  0.00  0.00    -0.274 N 
ATOM      4  N   UNL     1      33.825 -15.852 -24.899  0.00  0.00    -0.269 N 
ATOM      5  C   UNL     1      32.683 -13.694 -24.371  0.00  0.00    +0.117 C 
ATOM      6  C   UNL     1      33.533 -14.861 -23.857  0.00  0.00    +0.118 C 
ATOM      7  C   UNL     1      34.474 -17.063 -24.635  0.00  0.00    +0.226 C 
ATOM      8  C   UNL     1      32.507 -12.636 -23.296  0.00  0.00    -0.007 C 
ATOM      9  C   UNL     1      33.325 -11.764 -25.865  0.00  0.00    +0.098 C 
ATOM     10  C   UNL     1      33.385 -15.562 -26.261  0.00  0.00    +0.179 C 
ATOM     11  C   UNL     1      33.883 -11.025 -24.658  0.00  0.00    +0.048 C 
ATOM     12  C   UNL     1      33.594 -14.107 -26.635  0.00  0.00    +0.246 C 
ATOM     13  C   UNL     1      33.085 -11.361 -23.429  0.00  0.00    -0.023 C 
ATOM     14  C   UNL     1      31.757 -12.927 -22.146  0.00  0.00    -0.003 C 
ATOM     15  C   UNL     1      32.944 -10.419 -22.400  0.00  0.00    -0.004 C 
ATOM     16  C   UNL     1      31.608 -11.977 -21.134  0.00  0.00    -0.000 C 
ATOM     17  C   UNL     1      32.205 -10.727 -21.259  0.00  0.00    -0.000 C 
ENDROOT
BRANCH   7  18
ATOM     18  C   UNL     1      34.891 -17.293 -23.213  0.00  0.00    +0.077 C 
ATOM     19  C   UNL     1      33.718 -17.860 -22.410  0.00  0.00    +0.009 C 
ATOM     20  C   UNL     1      36.102 -18.228 -23.170  0.00  0.00    +0.009 C 
ATOM     21  C   UNL     1      34.125 -18.199 -20.979  0.00  0.00    +0.000 C 
ATOM     22  C   UNL     1      36.504 -18.566 -21.736  0.00  0.00    +0.000 C 
ATOM     23  C   UNL     1      35.331 -19.133 -20.943  0.00  0.00    +0.000 C 
ENDBRANCH   7  18
TORSDOF 1
ENDMDL
MODEL 4
REMARK VINA RESULT:      -9.6      1.540      5.582
REMARK  Name = 445900
REMARK  1 active torsions:
REMARK  status: ('A' for Active; 'I' for Inactive)
REMARK    1  A    between atoms: C_7  and  C_18
REMARK                            x       y       z     vdW  Elec       q    Type
REMARK                         _______ _______ _______ _____ _____    ______ ____
ROOT
ATOM      1  O   UNL     1      36.348 -25.835 -11.307  0.00  0.00    -0.275 OA
ATOM      2  O   UNL     1      32.234 -24.244 -13.199  0.00  0.00    -0.273 OA
ATOM      3  N   UNL     1      33.760 -23.447 -14.766  0.00  0.00    -0.274 N 
ATOM      4  N   UNL     1      35.772 -24.514 -13.136  0.00  0.00    -0.269 N 
ATOM      5  C   UNL     1      35.122 -22.925 -14.950  0.00  0.00    +0.117 C 
ATOM      6  C   UNL     1      36.115 -23.984 -14.460  0.00  0.00    +0.118 C 
ATOM      7  C   UNL     1      36.600 -25.394 -12.431  0.00  0.00    +0.226 C 
ATOM      8  C   UNL     1      35.446 -22.493 -16.369  0.00  0.00    -0.007 C 
ATOM      9  C   UNL     1      32.761 -23.197 -15.800  0.00  0.00    +0.098 C 
ATOM     10  C   UNL     1      34.521 -24.070 -12.525  0.00  0.00    +0.179 C 
ATOM     11  C   UNL     1      33.304 -23.545 -17.177  0.00  0.00    +0.048 C 
ATOM     12  C   UNL     1      33.390 -23.980 -13.531  0.00  0.00    +0.246 C 
ATOM     13  C   UNL     1      34.581 -22.794 -17.437  0.00  0.00    -0.023 C 
ATOM     14  C   UNL     1      36.628 -21.783 -16.631  0.00  0.00    -0.003 C 
ATOM     15  C   UNL     1      34.928 -22.422 -18.744  0.00  0.00    -0.004 C 
ATOM     16  C   UNL     1      36.957 -21.402 -17.933  0.00  0.00    -0.000 C 
ATOM     17  C   UNL     1      36.110 -21.726 -18.988  0.00  0.00    -0.000 C 
ENDROOT
BRANCH   7  18
ATOM     18  C   UNL     1      37.869 -25.801 -13.119  0.00  0.00    +0.077 C 
ATOM     19  C   UNL     1      37.579 -26.159 -14.578  0.00  0.00    +0.009 C 
ATOM     20  C   UNL     1      38.904 -24.678 -13.012  0.00  0.00    +0.009 C 
ATOM     21  C   UNL     1      38.859 -26.489 -15.343  0.00  0.00    +0.000 C 
ATOM     22  C   UNL     1      40.180 -25.013 -13.780  0.00  0.00    +0.000 C 
ATOM     23  C   UNL     1      39.885 -25.366 -15.235  0.00  0.00    +0.000 C 
ENDBRANCH   7  18
TORSDOF 1
ENDMDL
MODEL 5
REMARK VINA RESULT:      -9.5      9.558     12.709
REMARK  Name = 445900
REMARK  1 active torsions:
REMARK  status: ('A' for Active; 'I' for Inactive)
REMARK    1  A    between atoms: C_7  and  C_18
REMARK                            x       y       z     vdW  Elec       q    Type
REMARK                         _______ _______ _______ _____ _____    ______ ____
ROOT
ATOM      1  O   UNL     1      32.768 -10.226 -23.824  0.00  0.00    -0.275 OA
ATOM      2  O   UNL     1      31.914 -12.913 -19.940  0.00  0.00    -0.273 OA
ATOM      3  N   UNL     1      33.003 -14.459 -21.297  0.00  0.00    -0.274 N 
ATOM      4  N   UNL     1      33.092 -12.461 -23.257  0.00  0.00    -0.269 N 
ATOM      5  C   UNL     1      33.217 -14.890 -22.686  0.00  0.00    +0.117 C 
ATOM      6  C   UNL     1      33.820 -13.718 -23.467  0.00  0.00    +0.118 C 
ATOM      7  C   UNL     1      33.380 -11.288 -23.964  0.00  0.00    +0.226 C 
ATOM      8  C   UNL     1      34.068 -16.138 -22.838  0.00  0.00    -0.007 C 
ATOM      9  C   UNL     1      33.295 -15.393 -20.215  0.00  0.00    +0.098 C 
ATOM     10  C   UNL     1      32.001 -12.458 -22.286  0.00  0.00    +0.179 C 
ATOM     11  C   UNL     1      34.669 -16.022 -20.394  0.00  0.00    +0.048 C 
ATOM     12  C   UNL     1      32.334 -13.262 -21.044  0.00  0.00    +0.246 C 
ATOM     13  C   UNL     1      34.769 -16.677 -21.743  0.00  0.00    -0.023 C 
ATOM     14  C   UNL     1      34.167 -16.770 -24.087  0.00  0.00    -0.003 C 
ATOM     15  C   UNL     1      35.583 -17.804 -21.922  0.00  0.00    -0.004 C 
ATOM     16  C   UNL     1      34.967 -17.902 -24.251  0.00  0.00    -0.000 C 
ATOM     17  C   UNL     1      35.678 -18.415 -23.172  0.00  0.00    -0.000 C 
ENDROOT
BRANCH   7  18
ATOM     18  C   UNL     1      34.510 -11.369 -24.946  0.00  0.00    +0.077 C 
ATOM     19  C   UNL     1      33.996 -11.896 -26.289  0.00  0.00    +0.009 C 
ATOM     20  C   UNL     1      35.167  -9.996 -25.099  0.00  0.00    +0.009 C 
ATOM     21  C   UNL     1      35.095 -11.905 -27.349  0.00  0.00    +0.000 C 
ATOM     22  C   UNL     1      36.263 -10.010 -26.161  0.00  0.00    +0.000 C 
ATOM     23  C   UNL     1      35.745 -10.533 -27.497  0.00  0.00    +0.000 C 
ENDBRANCH   7  18
TORSDOF 1
ENDMDL
MODEL 6
REMARK VINA RESULT:      -9.5     14.957     18.839
REMARK  Name = 445900
REMARK  1 active torsions:
REMARK  status: ('A' for Active; 'I' for Inactive)
REMARK    1  A    between atoms: C_7  and  C_18
REMARK                            x       y       z     vdW  Elec       q    Type
REMARK                         _______ _______ _______ _____ _____    ______ ____
ROOT
ATOM      1  O   UNL     1      31.668 -10.029 -20.739  0.00  0.00    -0.275 OA
ATOM      2  O   UNL     1      30.408  -5.400 -20.862  0.00  0.00    -0.273 OA
ATOM      3  N   UNL     1      31.689  -5.544 -22.799  0.00  0.00    -0.274 N 
ATOM      4  N   UNL     1      32.169  -8.216 -22.111  0.00  0.00    -0.269 N 
ATOM      5  C   UNL     1      32.849  -6.200 -23.420  0.00  0.00    +0.117 C 
ATOM      6  C   UNL     1      32.606  -7.713 -23.418  0.00  0.00    +0.118 C 
ATOM      7  C   UNL     1      32.010  -9.578 -21.835  0.00  0.00    +0.226 C 
ATOM      8  C   UNL     1      33.183  -5.706 -24.817  0.00  0.00    -0.007 C 
ATOM      9  C   UNL     1      31.191  -4.299 -23.374  0.00  0.00    +0.098 C 
ATOM     10  C   UNL     1      31.921  -7.241 -21.052  0.00  0.00    +0.179 C 
ATOM     11  C   UNL     1      31.014  -4.425 -24.879  0.00  0.00    +0.048 C 
ATOM     12  C   UNL     1      31.222  -5.998 -21.567  0.00  0.00    +0.246 C 
ATOM     13  C   UNL     1      32.303  -4.862 -25.519  0.00  0.00    -0.023 C 
ATOM     14  C   UNL     1      34.386  -6.094 -25.427  0.00  0.00    -0.003 C 
ATOM     15  C   UNL     1      32.616  -4.458 -26.824  0.00  0.00    -0.004 C 
ATOM     16  C   UNL     1      34.696  -5.673 -26.721  0.00  0.00    -0.000 C 
ATOM     17  C   UNL     1      33.810  -4.860 -27.420  0.00  0.00    -0.000 C 
ENDROOT
BRANCH   7  18
ATOM     18  C   UNL     1      32.287 -10.519 -22.969  0.00  0.00    +0.077 C 
ATOM     19  C   UNL     1      33.685 -10.258 -23.534  0.00  0.00    +0.009 C 
ATOM     20  C   UNL     1      32.136 -11.966 -22.495  0.00  0.00    +0.009 C 
ATOM     21  C   UNL     1      34.046 -11.258 -24.631  0.00  0.00    +0.000 C 
ATOM     22  C   UNL     1      32.500 -12.961 -23.594  0.00  0.00    +0.000 C 
ATOM     23  C   UNL     1      33.896 -12.698 -24.151  0.00  0.00    +0.000 C 
ENDBRANCH   7  18
TORSDOF 1
ENDMDL
MODEL 7
REMARK VINA RESULT:      -9.3     11.334     15.483
REMARK  Name = 445900
REMARK  1 active torsions:
REMARK  status: ('A' for Active; 'I' for Inactive)
REMARK    1  A    between atoms: C_7  and  C_18
REMARK                            x       y       z     vdW  Elec       q    Type
REMARK                         _______ _______ _______ _____ _____    ______ ____
ROOT
ATOM      1  O   UNL     1      34.378 -14.892 -24.754  0.00  0.00    -0.275 OA
ATOM      2  O   UNL     1      35.342 -10.644 -26.769  0.00  0.00    -0.273 OA
ATOM      3  N   UNL     1      34.240  -9.959 -24.837  0.00  0.00    -0.274 N 
ATOM      4  N   UNL     1      33.879 -12.674 -24.253  0.00  0.00    -0.269 N 
ATOM      5  C   UNL     1      33.181 -10.305 -23.878  0.00  0.00    +0.117 C 
ATOM      6  C   UNL     1      33.521 -11.662 -23.253  0.00  0.00    +0.118 C 
ATOM      7  C   UNL     1      34.101 -14.017 -23.930  0.00  0.00    +0.226 C 
ATOM      8  C   UNL     1      32.935  -9.260 -22.804  0.00  0.00    -0.007 C 
ATOM      9  C   UNL     1      34.704  -8.578 -24.910  0.00  0.00    +0.098 C 
ATOM     10  C   UNL     1      33.973 -12.252 -25.648  0.00  0.00    +0.179 C 
ATOM     11  C   UNL     1      35.014  -8.033 -23.524  0.00  0.00    +0.048 C 
ATOM     12  C   UNL     1      34.631 -10.894 -25.795  0.00  0.00    +0.246 C 
ATOM     13  C   UNL     1      33.814  -8.175 -22.629  0.00  0.00    -0.023 C 
ATOM     14  C   UNL     1      31.815  -9.370 -21.965  0.00  0.00    -0.003 C 
ATOM     15  C   UNL     1      33.586  -7.251 -21.600  0.00  0.00    -0.004 C 
ATOM     16  C   UNL     1      31.587  -8.434 -20.954  0.00  0.00    -0.000 C 
ATOM     17  C   UNL     1      32.475  -7.379 -20.769  0.00  0.00    -0.000 C 
ENDROOT
BRANCH   7  18
ATOM     18  C   UNL     1      33.982 -14.377 -22.479  0.00  0.00    +0.077 C 
ATOM     19  C   UNL     1      32.511 -14.585 -22.113  0.00  0.00    +0.009 C 
ATOM     20  C   UNL     1      34.815 -15.625 -22.182  0.00  0.00    +0.009 C 
ATOM     21  C   UNL     1      32.349 -15.046 -20.666  0.00  0.00    +0.000 C 
ATOM     22  C   UNL     1      34.649 -16.082 -20.735  0.00  0.00    +0.000 C 
ATOM     23  C   UNL     1      33.181 -16.291 -20.376  0.00  0.00    +0.000 C 
ENDBRANCH   7  18
TORSDOF 1
ENDMDL
MODEL 8
REMARK VINA RESULT:      -8.5     10.585     13.455
REMARK  Name = 445900
REMARK  1 active torsions:
REMARK  status: ('A' for Active; 'I' for Inactive)
REMARK    1  A    between atoms: C_7  and  C_18
REMARK                            x       y       z     vdW  Elec       q    Type
REMARK                         _______ _______ _______ _____ _____    ______ ____
ROOT
ATOM      1  O   UNL     1      31.607  -9.162 -22.373  0.00  0.00    -0.275 OA
ATOM      2  O   UNL     1      31.835 -12.762 -19.208  0.00  0.00    -0.273 OA
ATOM      3  N   UNL     1      32.649 -13.819 -21.115  0.00  0.00    -0.274 N 
ATOM      4  N   UNL     1      32.170 -11.418 -22.475  0.00  0.00    -0.269 N 
ATOM      5  C   UNL     1      32.550 -13.885 -22.580  0.00  0.00    +0.117 C 
ATOM      6  C   UNL     1      32.891 -12.504 -23.150  0.00  0.00    +0.118 C 
ATOM      7  C   UNL     1      32.222 -10.089 -22.906  0.00  0.00    +0.226 C 
ATOM      8  C   UNL     1      33.405 -14.963 -23.223  0.00  0.00    -0.007 C 
ATOM      9  C   UNL     1      33.237 -14.944 -20.395  0.00  0.00    +0.098 C 
ATOM     10  C   UNL     1      31.341 -11.762 -21.323  0.00  0.00    +0.179 C 
ATOM     11  C   UNL     1      34.560 -15.360 -21.020  0.00  0.00    +0.048 C 
ATOM     12  C   UNL     1      31.999 -12.795 -20.428  0.00  0.00    +0.246 C 
ATOM     13  C   UNL     1      34.371 -15.665 -22.480  0.00  0.00    -0.023 C 
ATOM     14  C   UNL     1      33.237 -15.270 -24.583  0.00  0.00    -0.003 C 
ATOM     15  C   UNL     1      35.177 -16.624 -23.111  0.00  0.00    -0.004 C 
ATOM     16  C   UNL     1      34.033 -16.237 -25.198  0.00  0.00    -0.000 C 
ATOM     17  C   UNL     1      35.005 -16.910 -24.464  0.00  0.00    -0.000 C 
ENDROOT
BRANCH   7  18
ATOM     18  C   UNL     1      33.089  -9.813 -24.098  0.00  0.00    +0.077 C 
ATOM     19  C   UNL     1      34.203  -8.834 -23.718  0.00  0.00    +0.009 C 
ATOM     20  C   UNL     1      33.660 -11.125 -24.642  0.00  0.00    +0.009 C 
ATOM     21  C   UNL     1      35.167  -8.598 -24.877  0.00  0.00    +0.000 C 
ATOM     22  C   UNL     1      34.625 -10.883 -25.800  0.00  0.00    +0.000 C 
ATOM     23  C   UNL     1      35.734  -9.909 -25.413  0.00  0.00    +0.000 C 
ENDBRANCH   7  18
TORSDOF 1
ENDMDL
MODEL 9
REMARK VINA RESULT:      -8.3     10.616     15.126
REMARK  Name = 445900
REMARK  1 active torsions:
REMARK  status: ('A' for Active; 'I' for Inactive)
REMARK    1  A    between atoms: C_7  and  C_18
REMARK                            x       y       z     vdW  Elec       q    Type
REMARK                         _______ _______ _______ _____ _____    ______ ____
ROOT
ATOM      1  O   UNL     1      33.627 -16.457 -24.764  0.00  0.00    -0.275 OA
ATOM      2  O   UNL     1      34.698 -13.207 -28.129  0.00  0.00    -0.273 OA
ATOM      3  N   UNL     1      34.306 -11.817 -26.304  0.00  0.00    -0.274 N 
ATOM      4  N   UNL     1      33.668 -14.131 -24.862  0.00  0.00    -0.269 N 
ATOM      5  C   UNL     1      33.512 -11.647 -25.079  0.00  0.00    +0.117 C 
ATOM      6  C   UNL     1      33.777 -12.846 -24.162  0.00  0.00    +0.118 C 
ATOM      7  C   UNL     1      33.740 -15.363 -24.204  0.00  0.00    +0.226 C 
ATOM      8  C   UNL     1      33.752 -10.340 -24.346  0.00  0.00    -0.007 C 
ATOM      9  C   UNL     1      34.958 -10.651 -26.891  0.00  0.00    +0.098 C 
ATOM     10  C   UNL     1      33.441 -14.106 -26.305  0.00  0.00    +0.179 C 
ATOM     11  C   UNL     1      35.727  -9.868 -25.838  0.00  0.00    +0.048 C 
ATOM     12  C   UNL     1      34.253 -13.027 -26.996  0.00  0.00    +0.246 C 
ATOM     13  C   UNL     1      34.816  -9.490 -24.703  0.00  0.00    -0.023 C 
ATOM     14  C   UNL     1      32.907  -9.964 -23.290  0.00  0.00    -0.003 C 
ATOM     15  C   UNL     1      35.041  -8.311 -23.979  0.00  0.00    -0.004 C 
ATOM     16  C   UNL     1      33.129  -8.780 -22.586  0.00  0.00    -0.000 C 
ATOM     17  C   UNL     1      34.198  -7.957 -22.927  0.00  0.00    -0.000 C 
ENDROOT
BRANCH   7  18
ATOM     18  C   UNL     1      33.969 -15.310 -22.723  0.00  0.00    +0.077 C 
ATOM     19  C   UNL     1      32.661 -14.967 -22.006  0.00  0.00    +0.009 C 
ATOM     20  C   UNL     1      34.542 -16.643 -22.236  0.00  0.00    +0.009 C 
ATOM     21  C   UNL     1      32.826 -14.995 -20.488  0.00  0.00    +0.000 C 
ATOM     22  C   UNL     1      34.702 -16.666 -20.718  0.00  0.00    +0.000 C 
ATOM     23  C   UNL     1      33.395 -16.326 -20.009  0.00  0.00    +0.000 C 
ENDBRANCH   7  18
TORSDOF 1
ENDMDL
