MODEL 1
REMARK VINA RESULT:      -9.8      0.000      0.000
REMARK  Name = 443869
REMARK  9 active torsions:
REMARK  status: ('A' for Active; 'I' for Inactive)
REMARK    1  A    between atoms: C_2  and  C_10
REMARK    2  A    between atoms: C_3  and  C_20
REMARK    3  A    between atoms: C_4  and  C_36
REMARK    4  A    between atoms: C_13  and  N_18
REMARK    5  A    between atoms: C_20  and  O_21
REMARK    6  A    between atoms: O_21  and  C_23
REMARK    7  A    between atoms: N_22  and  C_28
REMARK    8  A    between atoms: C_28  and  C_29
REMARK    9  A    between atoms: C_36  and  O_37
REMARK                            x       y       z     vdW  Elec       q    Type
REMARK                         _______ _______ _______ _____ _____    ______ ____
ROOT
ATOM      1  N   UNL     1      31.833 -10.230 -22.670  0.00  0.00    -0.334 N 
ATOM      2  C   UNL     1      33.687 -12.246 -23.397  0.00  0.00    +0.011 C 
ATOM      3  C   UNL     1      32.603 -12.442 -22.332  0.00  0.00    +0.071 C 
ATOM      4  C   UNL     1      33.769 -10.802 -23.907  0.00  0.00    +0.085 C 
ATOM      5  C   UNL     1      31.722 -11.458 -22.040  0.00  0.00    +0.098 C 
ATOM      6  C   UNL     1      32.851  -9.877 -23.542  0.00  0.00    +0.028 C 
ATOM      7  C   UNL     1      30.592 -11.565 -21.052  0.00  0.00    +0.026 C 
ATOM      8  C   UNL     1      32.818  -8.449 -24.013  0.00  0.00    +0.047 C 
ATOM      9  H   UNL     1      31.137  -9.558 -22.485  0.00  0.00    +0.147 HD
ENDROOT
BRANCH   2  10
ATOM     10  C   UNL     1      33.451 -13.182 -24.547  0.00  0.00    +0.002 C 
ATOM     11  C   UNL     1      33.890 -14.504 -24.473  0.00  0.00    +0.024 C 
ATOM     12  C   UNL     1      32.791 -12.729 -25.689  0.00  0.00    +0.000 C 
ATOM     13  C   UNL     1      33.670 -15.372 -25.541  0.00  0.00    +0.143 C 
ATOM     14  C   UNL     1      32.571 -13.598 -26.758  0.00  0.00    +0.002 C 
ATOM     15  C   UNL     1      33.010 -14.920 -26.684  0.00  0.00    +0.024 C 
BRANCH  13  18
ATOM     16  O   UNL     1      35.248 -16.959 -24.979  0.00  0.00    -0.126 OA
ATOM     17  O   UNL     1      33.368 -17.631 -25.891  0.00  0.00    -0.126 OA
ATOM     18  N   UNL     1      34.117 -16.718 -25.466  0.00  0.00    +0.058 N 
ENDBRANCH  13  18
ENDBRANCH   2  10
BRANCH   3  20
ATOM     19  O   UNL     1      31.599 -14.386 -21.420  0.00  0.00    -0.245 OA
ATOM     20  C   UNL     1      32.605 -13.729 -21.619  0.00  0.00    +0.339 C 
BRANCH  20  21
ATOM     21  O   UNL     1      33.879 -14.015 -21.254  0.00  0.00    -0.452 OA
BRANCH  21  23
ATOM     22  N   UNL     1      34.083 -17.080 -21.905  0.00  0.00    +0.392 N 
ATOM     23  C   UNL     1      34.035 -15.206 -20.495  0.00  0.00    +0.147 C 
ATOM     24  C   UNL     1      32.705 -15.953 -20.403  0.00  0.00    +0.019 C 
ATOM     25  C   UNL     1      34.988 -16.155 -21.215  0.00  0.00    -0.032 C 
ATOM     26  C   UNL     1      33.001 -17.339 -20.955  0.00  0.00    -0.073 C 
ATOM     27  H   UNL     1      33.728 -16.676 -22.771  0.00  0.00    -0.079 HD
BRANCH  22  28
ATOM     28  C   UNL     1      34.752 -18.299 -22.332  0.00  0.00    -0.050 C 
BRANCH  28  29
ATOM     29  C   UNL     1      34.618 -19.399 -21.314  0.00  0.00    -0.043 C 
ATOM     30  C   UNL     1      33.359 -19.917 -21.008  0.00  0.00    -0.006 C 
ATOM     31  C   UNL     1      35.752 -19.903 -20.676  0.00  0.00    -0.006 C 
ATOM     32  C   UNL     1      33.233 -20.936 -20.065  0.00  0.00    -0.000 C 
ATOM     33  C   UNL     1      35.626 -20.922 -19.733  0.00  0.00    -0.000 C 
ATOM     34  C   UNL     1      34.367 -21.439 -19.427  0.00  0.00    -0.000 C 
ENDBRANCH  28  29
ENDBRANCH  22  28
ENDBRANCH  21  23
ENDBRANCH  20  21
ENDBRANCH   3  20
BRANCH   4  36
ATOM     35  O   UNL     1      35.956  -9.985 -24.315  0.00  0.00    -0.245 OA
ATOM     36  C   UNL     1      34.926 -10.467 -24.752  0.00  0.00    +0.342 C 
BRANCH  36  37
ATOM     37  O   UNL     1      34.626 -10.785 -26.033  0.00  0.00    -0.441 OA
ATOM     38  C   UNL     1      35.726 -10.721 -26.948  0.00  0.00    +0.256 C 
ENDBRANCH  36  37
ENDBRANCH   4  36
TORSDOF 9
ENDMDL
MODEL 2
REMARK VINA RESULT:      -9.7      4.293     10.422
REMARK  Name = 443869
REMARK  9 active torsions:
REMARK  status: ('A' for Active; 'I' for Inactive)
REMARK    1  A    between atoms: C_2  and  C_10
REMARK    2  A    between atoms: C_3  and  C_20
REMARK    3  A    between atoms: C_4  and  C_36
REMARK    4  A    between atoms: C_13  and  N_18
REMARK    5  A    between atoms: C_20  and  O_21
REMARK    6  A    between atoms: O_21  and  C_23
REMARK    7  A    between atoms: N_22  and  C_28
REMARK    8  A    between atoms: C_28  and  C_29
REMARK    9  A    between atoms: C_36  and  O_37
REMARK                            x       y       z     vdW  Elec       q    Type
REMARK                         _______ _______ _______ _____ _____    ______ ____
ROOT
ATOM      1  N   UNL     1      32.070  -7.952 -20.154  0.00  0.00    -0.334 N 
ATOM      2  C   UNL     1      31.652  -9.273 -22.626  0.00  0.00    +0.011 C 
ATOM      3  C   UNL     1      31.683  -7.748 -22.480  0.00  0.00    +0.071 C 
ATOM      4  C   UNL     1      31.705 -10.003 -21.279  0.00  0.00    +0.085 C 
ATOM      5  C   UNL     1      31.914  -7.164 -21.281  0.00  0.00    +0.098 C 
ATOM      6  C   UNL     1      31.921  -9.330 -20.125  0.00  0.00    +0.028 C 
ATOM      7  C   UNL     1      32.016  -5.682 -21.039  0.00  0.00    +0.026 C 
ATOM      8  C   UNL     1      32.028  -9.953 -18.760  0.00  0.00    +0.047 C 
ATOM      9  H   UNL     1      32.303  -7.501 -19.310  0.00  0.00    +0.147 HD
ENDROOT
BRANCH   2  10
ATOM     10  C   UNL     1      32.786  -9.727 -23.500  0.00  0.00    +0.002 C 
ATOM     11  C   UNL     1      32.677 -10.913 -24.225  0.00  0.00    +0.024 C 
ATOM     12  C   UNL     1      33.948  -8.960 -23.586  0.00  0.00    +0.000 C 
ATOM     13  C   UNL     1      33.730 -11.334 -25.036  0.00  0.00    +0.143 C 
ATOM     14  C   UNL     1      35.002  -9.381 -24.397  0.00  0.00    +0.002 C 
ATOM     15  C   UNL     1      34.893 -10.567 -25.123  0.00  0.00    +0.024 C 
BRANCH  13  18
ATOM     16  O   UNL     1      33.350 -13.605 -25.166  0.00  0.00    -0.126 OA
ATOM     17  O   UNL     1      33.796 -12.511 -27.017  0.00  0.00    -0.126 OA
ATOM     18  N   UNL     1      33.620 -12.541 -25.774  0.00  0.00    +0.058 N 
ENDBRANCH  13  18
ENDBRANCH   2  10
BRANCH   3  20
ATOM     19  O   UNL     1      30.822  -7.416 -24.663  0.00  0.00    -0.245 OA
ATOM     20  C   UNL     1      31.402  -6.964 -23.692  0.00  0.00    +0.339 C 
BRANCH  20  21
ATOM     21  O   UNL     1      31.892  -5.712 -23.517  0.00  0.00    -0.452 OA
BRANCH  21  23
ATOM     22  N   UNL     1      32.656  -3.436 -25.539  0.00  0.00    +0.392 N 
ATOM     23  C   UNL     1      31.188  -4.688 -24.205  0.00  0.00    +0.147 C 
ATOM     24  C   UNL     1      31.451  -3.333 -23.549  0.00  0.00    +0.019 C 
ATOM     25  C   UNL     1      31.722  -4.563 -25.629  0.00  0.00    -0.032 C 
ATOM     26  C   UNL     1      31.999  -2.461 -24.668  0.00  0.00    -0.073 C 
ATOM     27  H   UNL     1      33.556  -3.728 -25.158  0.00  0.00    -0.079 HD
BRANCH  22  28
ATOM     28  C   UNL     1      32.988  -2.881 -26.843  0.00  0.00    -0.050 C 
BRANCH  28  29
ATOM     29  C   UNL     1      34.411  -3.178 -27.233  0.00  0.00    -0.043 C 
ATOM     30  C   UNL     1      34.838  -4.500 -27.360  0.00  0.00    -0.006 C 
ATOM     31  C   UNL     1      35.303  -2.132 -27.468  0.00  0.00    -0.006 C 
ATOM     32  C   UNL     1      36.156  -4.776 -27.721  0.00  0.00    -0.000 C 
ATOM     33  C   UNL     1      36.621  -2.407 -27.829  0.00  0.00    -0.000 C 
ATOM     34  C   UNL     1      37.049  -3.729 -27.956  0.00  0.00    -0.000 C 
ENDBRANCH  28  29
ENDBRANCH  22  28
ENDBRANCH  21  23
ENDBRANCH  20  21
ENDBRANCH   3  20
BRANCH   4  36
ATOM     35  O   UNL     1      30.331 -11.928 -21.433  0.00  0.00    -0.245 OA
ATOM     36  C   UNL     1      31.445 -11.452 -21.305  0.00  0.00    +0.342 C 
BRANCH  36  37
ATOM     37  O   UNL     1      32.625 -12.100 -21.165  0.00  0.00    -0.441 OA
ATOM     38  C   UNL     1      32.597 -13.490 -21.508  0.00  0.00    +0.256 C 
ENDBRANCH  36  37
ENDBRANCH   4  36
TORSDOF 9
ENDMDL
MODEL 3
REMARK VINA RESULT:      -9.7      2.456      7.539
REMARK  Name = 443869
REMARK  9 active torsions:
REMARK  status: ('A' for Active; 'I' for Inactive)
REMARK    1  A    between atoms: C_2  and  C_10
REMARK    2  A    between atoms: C_3  and  C_20
REMARK    3  A    between atoms: C_4  and  C_36
REMARK    4  A    between atoms: C_13  and  N_18
REMARK    5  A    between atoms: C_20  and  O_21
REMARK    6  A    between atoms: O_21  and  C_23
REMARK    7  A    between atoms: N_22  and  C_28
REMARK    8  A    between atoms: C_28  and  C_29
REMARK    9  A    between atoms: C_36  and  O_37
REMARK                            x       y       z     vdW  Elec       q    Type
REMARK                         _______ _______ _______ _____ _____    ______ ____
ROOT
ATOM      1  N   UNL     1      35.455 -16.660 -21.345  0.00  0.00    -0.334 N 
ATOM      2  C   UNL     1      33.477 -15.754 -23.161  0.00  0.00    +0.011 C 
ATOM      3  C   UNL     1      33.456 -15.434 -21.663  0.00  0.00    +0.071 C 
ATOM      4  C   UNL     1      34.582 -16.746 -23.544  0.00  0.00    +0.085 C 
ATOM      5  C   UNL     1      34.439 -15.866 -20.841  0.00  0.00    +0.098 C 
ATOM      6  C   UNL     1      35.513 -17.139 -22.645  0.00  0.00    +0.028 C 
ATOM      7  C   UNL     1      34.540 -15.564 -19.370  0.00  0.00    +0.026 C 
ATOM      8  C   UNL     1      36.657 -18.075 -22.927  0.00  0.00    +0.047 C 
ATOM      9  H   UNL     1      36.190 -16.902 -20.736  0.00  0.00    +0.147 HD
ENDROOT
BRANCH   2  10
ATOM     10  C   UNL     1      33.630 -14.488 -23.954  0.00  0.00    +0.002 C 
ATOM     11  C   UNL     1      33.329 -14.476 -25.316  0.00  0.00    +0.024 C 
ATOM     12  C   UNL     1      34.071 -13.323 -23.327  0.00  0.00    +0.000 C 
ATOM     13  C   UNL     1      33.470 -13.300 -26.051  0.00  0.00    +0.143 C 
ATOM     14  C   UNL     1      34.213 -12.146 -24.062  0.00  0.00    +0.002 C 
ATOM     15  C   UNL     1      33.912 -12.134 -25.424  0.00  0.00    +0.024 C 
BRANCH  13  18
ATOM     16  O   UNL     1      32.008 -12.965 -27.803  0.00  0.00    -0.126 OA
ATOM     17  O   UNL     1      34.059 -13.597 -28.260  0.00  0.00    -0.126 OA
ATOM     18  N   UNL     1      33.164 -13.287 -27.437  0.00  0.00    +0.058 N 
ENDBRANCH  13  18
ENDBRANCH   2  10
BRANCH   3  20
ATOM     19  O   UNL     1      31.261 -15.208 -20.797  0.00  0.00    -0.245 OA
ATOM     20  C   UNL     1      32.294 -14.680 -21.168  0.00  0.00    +0.339 C 
BRANCH  20  21
ATOM     21  O   UNL     1      32.592 -13.358 -21.206  0.00  0.00    -0.452 OA
BRANCH  21  23
ATOM     22  N   UNL     1      31.835 -10.389 -21.887  0.00  0.00    +0.392 N 
ATOM     23  C   UNL     1      31.515 -12.487 -20.890  0.00  0.00    +0.147 C 
ATOM     24  C   UNL     1      31.947 -11.475 -19.831  0.00  0.00    +0.019 C 
ATOM     25  C   UNL     1      31.143 -11.661 -22.118  0.00  0.00    -0.032 C 
ATOM     26  C   UNL     1      31.675 -10.117 -20.459  0.00  0.00    -0.073 C 
ATOM     27  H   UNL     1      32.820 -10.449 -22.146  0.00  0.00    -0.079 HD
BRANCH  22  28
ATOM     28  C   UNL     1      31.316  -9.314 -22.720  0.00  0.00    -0.050 C 
BRANCH  28  29
ATOM     29  C   UNL     1      32.419  -8.464 -23.291  0.00  0.00    -0.043 C 
ATOM     30  C   UNL     1      32.125  -7.216 -23.840  0.00  0.00    -0.006 C 
ATOM     31  C   UNL     1      33.736  -8.924 -23.271  0.00  0.00    -0.006 C 
ATOM     32  C   UNL     1      33.147  -6.428 -24.369  0.00  0.00    -0.000 C 
ATOM     33  C   UNL     1      34.758  -8.136 -23.800  0.00  0.00    -0.000 C 
ATOM     34  C   UNL     1      34.464  -6.887 -24.349  0.00  0.00    -0.000 C 
ENDBRANCH  28  29
ENDBRANCH  22  28
ENDBRANCH  21  23
ENDBRANCH  20  21
ENDBRANCH   3  20
BRANCH   4  36
ATOM     35  O   UNL     1      35.119 -16.789 -25.852  0.00  0.00    -0.245 OA
ATOM     36  C   UNL     1      34.533 -17.291 -24.910  0.00  0.00    +0.342 C 
BRANCH  36  37
ATOM     37  O   UNL     1      33.751 -18.397 -24.901  0.00  0.00    -0.441 OA
ATOM     38  C   UNL     1      34.444 -19.631 -25.118  0.00  0.00    +0.256 C 
ENDBRANCH  36  37
ENDBRANCH   4  36
TORSDOF 9
ENDMDL
MODEL 4
REMARK VINA RESULT:      -9.7      3.013      8.820
REMARK  Name = 443869
REMARK  9 active torsions:
REMARK  status: ('A' for Active; 'I' for Inactive)
REMARK    1  A    between atoms: C_2  and  C_10
REMARK    2  A    between atoms: C_3  and  C_20
REMARK    3  A    between atoms: C_4  and  C_36
REMARK    4  A    between atoms: C_13  and  N_18
REMARK    5  A    between atoms: C_20  and  O_21
REMARK    6  A    between atoms: O_21  and  C_23
REMARK    7  A    between atoms: N_22  and  C_28
REMARK    8  A    between atoms: C_28  and  C_29
REMARK    9  A    between atoms: C_36  and  O_37
REMARK                            x       y       z     vdW  Elec       q    Type
REMARK                         _______ _______ _______ _____ _____    ______ ____
ROOT
ATOM      1  N   UNL     1      32.929 -13.333 -20.531  0.00  0.00    -0.334 N 
ATOM      2  C   UNL     1      32.565 -12.647 -23.257  0.00  0.00    +0.011 C 
ATOM      3  C   UNL     1      31.928 -11.870 -22.100  0.00  0.00    +0.071 C 
ATOM      4  C   UNL     1      33.280 -13.923 -22.797  0.00  0.00    +0.085 C 
ATOM      5  C   UNL     1      32.155 -12.220 -20.813  0.00  0.00    +0.098 C 
ATOM      6  C   UNL     1      33.442 -14.201 -21.483  0.00  0.00    +0.028 C 
ATOM      7  C   UNL     1      31.622 -11.496 -19.606  0.00  0.00    +0.026 C 
ATOM      8  C   UNL     1      34.159 -15.401 -20.927  0.00  0.00    +0.047 C 
ATOM      9  H   UNL     1      33.130 -13.521 -19.586  0.00  0.00    +0.147 HD
ENDROOT
BRANCH   2  10
ATOM     10  C   UNL     1      33.524 -11.763 -24.001  0.00  0.00    +0.002 C 
ATOM     11  C   UNL     1      33.893 -12.078 -25.308  0.00  0.00    +0.024 C 
ATOM     12  C   UNL     1      34.045 -10.626 -23.383  0.00  0.00    +0.000 C 
ATOM     13  C   UNL     1      34.783 -11.256 -25.998  0.00  0.00    +0.143 C 
ATOM     14  C   UNL     1      34.936  -9.803 -24.073  0.00  0.00    +0.002 C 
ATOM     15  C   UNL     1      35.305 -10.118 -25.381  0.00  0.00    +0.024 C 
BRANCH  13  18
ATOM     16  O   UNL     1      35.957 -10.819 -27.935  0.00  0.00    -0.126 OA
ATOM     17  O   UNL     1      34.684 -12.606 -27.865  0.00  0.00    -0.126 OA
ATOM     18  N   UNL     1      35.160 -11.575 -27.330  0.00  0.00    +0.058 N 
ENDBRANCH  13  18
ENDBRANCH   2  10
BRANCH   3  20
ATOM     19  O   UNL     1      29.819 -10.887 -22.553  0.00  0.00    -0.245 OA
ATOM     20  C   UNL     1      31.028 -10.765 -22.465  0.00  0.00    +0.339 C 
BRANCH  20  21
ATOM     21  O   UNL     1      31.775  -9.654 -22.671  0.00  0.00    -0.452 OA
BRANCH  21  23
ATOM     22  N   UNL     1      31.995  -6.611 -23.409  0.00  0.00    +0.392 N 
ATOM     23  C   UNL     1      31.207  -8.446 -22.181  0.00  0.00    +0.147 C 
ATOM     24  C   UNL     1      32.234  -7.676 -21.353  0.00  0.00    +0.019 C 
ATOM     25  C   UNL     1      30.856  -7.531 -23.351  0.00  0.00    -0.032 C 
ATOM     26  C   UNL     1      32.319  -6.310 -22.015  0.00  0.00    -0.073 C 
ATOM     27  H   UNL     1      32.789  -7.031 -23.893  0.00  0.00    -0.079 HD
BRANCH  22  28
ATOM     28  C   UNL     1      31.705  -5.413 -24.184  0.00  0.00    -0.050 C 
BRANCH  28  29
ATOM     29  C   UNL     1      32.703  -5.205 -25.291  0.00  0.00    -0.043 C 
ATOM     30  C   UNL     1      33.885  -5.945 -25.312  0.00  0.00    -0.006 C 
ATOM     31  C   UNL     1      32.446  -4.273 -26.296  0.00  0.00    -0.006 C 
ATOM     32  C   UNL     1      34.811  -5.752 -26.338  0.00  0.00    -0.000 C 
ATOM     33  C   UNL     1      33.371  -4.080 -27.322  0.00  0.00    -0.000 C 
ATOM     34  C   UNL     1      34.554  -4.820 -27.343  0.00  0.00    -0.000 C 
ENDBRANCH  28  29
ENDBRANCH  22  28
ENDBRANCH  21  23
ENDBRANCH  20  21
ENDBRANCH   3  20
BRANCH   4  36
ATOM     35  O   UNL     1      34.810 -15.387 -23.861  0.00  0.00    -0.245 OA
ATOM     36  C   UNL     1      33.717 -14.850 -23.853  0.00  0.00    +0.342 C 
BRANCH  36  37
ATOM     37  O   UNL     1      32.714 -14.974 -24.755  0.00  0.00    -0.441 OA
ATOM     38  C   UNL     1      33.120 -15.407 -26.058  0.00  0.00    +0.256 C 
ENDBRANCH  36  37
ENDBRANCH   4  36
TORSDOF 9
ENDMDL
MODEL 5
REMARK VINA RESULT:      -9.6      2.626      5.284
REMARK  Name = 443869
REMARK  9 active torsions:
REMARK  status: ('A' for Active; 'I' for Inactive)
REMARK    1  A    between atoms: C_2  and  C_10
REMARK    2  A    between atoms: C_3  and  C_20
REMARK    3  A    between atoms: C_4  and  C_36
REMARK    4  A    between atoms: C_13  and  N_18
REMARK    5  A    between atoms: C_20  and  O_21
REMARK    6  A    between atoms: O_21  and  C_23
REMARK    7  A    between atoms: N_22  and  C_28
REMARK    8  A    between atoms: C_28  and  C_29
REMARK    9  A    between atoms: C_36  and  O_37
REMARK                            x       y       z     vdW  Elec       q    Type
REMARK                         _______ _______ _______ _____ _____    ______ ____
ROOT
ATOM      1  N   UNL     1      34.723  -8.325 -24.465  0.00  0.00    -0.334 N 
ATOM      2  C   UNL     1      32.260  -9.662 -24.041  0.00  0.00    +0.011 C 
ATOM      3  C   UNL     1      33.550 -10.381 -24.449  0.00  0.00    +0.071 C 
ATOM      4  C   UNL     1      32.400  -8.135 -24.047  0.00  0.00    +0.085 C 
ATOM      5  C   UNL     1      34.709  -9.702 -24.612  0.00  0.00    +0.098 C 
ATOM      6  C   UNL     1      33.601  -7.542 -24.240  0.00  0.00    +0.028 C 
ATOM      7  C   UNL     1      36.038 -10.317 -24.959  0.00  0.00    +0.026 C 
ATOM      8  C   UNL     1      33.853  -6.059 -24.227  0.00  0.00    +0.047 C 
ATOM      9  H   UNL     1      35.593  -7.869 -24.524  0.00  0.00    +0.147 HD
ENDROOT
BRANCH   2  10
ATOM     10  C   UNL     1      31.820 -10.130 -22.684  0.00  0.00    +0.002 C 
ATOM     11  C   UNL     1      32.230  -9.443 -21.542  0.00  0.00    +0.024 C 
ATOM     12  C   UNL     1      30.999 -11.251 -22.567  0.00  0.00    +0.000 C 
ATOM     13  C   UNL     1      31.821  -9.878 -20.282  0.00  0.00    +0.143 C 
ATOM     14  C   UNL     1      30.590 -11.688 -21.307  0.00  0.00    +0.002 C 
ATOM     15  C   UNL     1      30.999 -11.001 -20.164  0.00  0.00    +0.024 C 
BRANCH  13  18
ATOM     16  O   UNL     1      32.516  -9.833 -18.083  0.00  0.00    -0.126 OA
ATOM     17  O   UNL     1      32.316  -7.928 -19.156  0.00  0.00    -0.126 OA
ATOM     18  N   UNL     1      32.238  -9.180 -19.118  0.00  0.00    +0.058 N 
ENDBRANCH  13  18
ENDBRANCH   2  10
BRANCH   3  20
ATOM     19  O   UNL     1      33.025 -12.300 -25.737  0.00  0.00    -0.245 OA
ATOM     20  C   UNL     1      33.448 -11.827 -24.697  0.00  0.00    +0.339 C 
BRANCH  20  21
ATOM     21  O   UNL     1      33.893 -12.484 -23.599  0.00  0.00    -0.452 OA
BRANCH  21  23
ATOM     22  N   UNL     1      34.610 -14.995 -21.857  0.00  0.00    +0.392 N 
ATOM     23  C   UNL     1      33.332 -13.774 -23.398  0.00  0.00    +0.147 C 
ATOM     24  C   UNL     1      34.157 -14.829 -24.135  0.00  0.00    +0.019 C 
ATOM     25  C   UNL     1      33.415 -14.148 -21.921  0.00  0.00    -0.032 C 
ATOM     26  C   UNL     1      34.558 -15.826 -23.059  0.00  0.00    -0.073 C 
ATOM     27  H   UNL     1      35.462 -14.435 -21.829  0.00  0.00    -0.079 HD
BRANCH  22  28
ATOM     28  C   UNL     1      34.668 -15.785 -20.636  0.00  0.00    -0.050 C 
BRANCH  28  29
ATOM     29  C   UNL     1      34.644 -17.262 -20.922  0.00  0.00    -0.043 C 
ATOM     30  C   UNL     1      33.440 -17.964 -20.866  0.00  0.00    -0.006 C 
ATOM     31  C   UNL     1      35.825 -17.930 -21.244  0.00  0.00    -0.006 C 
ATOM     32  C   UNL     1      33.417 -19.333 -21.131  0.00  0.00    -0.000 C 
ATOM     33  C   UNL     1      35.803 -19.299 -21.510  0.00  0.00    -0.000 C 
ATOM     34  C   UNL     1      34.598 -20.001 -21.453  0.00  0.00    -0.000 C 
ENDBRANCH  28  29
ENDBRANCH  22  28
ENDBRANCH  21  23
ENDBRANCH  20  21
ENDBRANCH   3  20
BRANCH   4  36
ATOM     35  O   UNL     1      30.369  -7.181 -24.809  0.00  0.00    -0.245 OA
ATOM     36  C   UNL     1      31.158  -7.359 -23.899  0.00  0.00    +0.342 C 
BRANCH  36  37
ATOM     37  O   UNL     1      31.082  -6.914 -22.622  0.00  0.00    -0.441 OA
ATOM     38  C   UNL     1      30.674  -5.549 -22.479  0.00  0.00    +0.256 C 
ENDBRANCH  36  37
ENDBRANCH   4  36
TORSDOF 9
ENDMDL
MODEL 6
REMARK VINA RESULT:      -9.5      4.146     10.332
REMARK  Name = 443869
REMARK  9 active torsions:
REMARK  status: ('A' for Active; 'I' for Inactive)
REMARK    1  A    between atoms: C_2  and  C_10
REMARK    2  A    between atoms: C_3  and  C_20
REMARK    3  A    between atoms: C_4  and  C_36
REMARK    4  A    between atoms: C_13  and  N_18
REMARK    5  A    between atoms: C_20  and  O_21
REMARK    6  A    between atoms: O_21  and  C_23
REMARK    7  A    between atoms: N_22  and  C_28
REMARK    8  A    between atoms: C_28  and  C_29
REMARK    9  A    between atoms: C_36  and  O_37
REMARK                            x       y       z     vdW  Elec       q    Type
REMARK                         _______ _______ _______ _____ _____    ______ ____
ROOT
ATOM      1  N   UNL     1      32.443  -8.421 -19.757  0.00  0.00    -0.334 N 
ATOM      2  C   UNL     1      31.944  -9.160 -22.447  0.00  0.00    +0.011 C 
ATOM      3  C   UNL     1      32.284  -7.729 -22.015  0.00  0.00    +0.071 C 
ATOM      4  C   UNL     1      31.741 -10.110 -21.261  0.00  0.00    +0.085 C 
ATOM      5  C   UNL     1      32.542  -7.432 -20.721  0.00  0.00    +0.098 C 
ATOM      6  C   UNL     1      32.006  -9.715 -19.994  0.00  0.00    +0.028 C 
ATOM      7  C   UNL     1      32.935  -6.075 -20.200  0.00  0.00    +0.026 C 
ATOM      8  C   UNL     1      31.878 -10.577 -18.767  0.00  0.00    +0.047 C 
ATOM      9  H   UNL     1      32.702  -8.188 -18.836  0.00  0.00    +0.147 HD
ENDROOT
BRANCH   2  10
ATOM     10  C   UNL     1      33.020  -9.691 -23.350  0.00  0.00    +0.002 C 
ATOM     11  C   UNL     1      32.818 -10.880 -24.051  0.00  0.00    +0.024 C 
ATOM     12  C   UNL     1      34.220  -8.995 -23.487  0.00  0.00    +0.000 C 
ATOM     13  C   UNL     1      33.817 -11.373 -24.890  0.00  0.00    +0.143 C 
ATOM     14  C   UNL     1      35.221  -9.488 -24.326  0.00  0.00    +0.002 C 
ATOM     15  C   UNL     1      35.019 -10.676 -25.028  0.00  0.00    +0.024 C 
BRANCH  13  18
ATOM     16  O   UNL     1      33.569 -12.549 -26.858  0.00  0.00    -0.126 OA
ATOM     17  O   UNL     1      33.483 -13.653 -24.962  0.00  0.00    -0.126 OA
ATOM     18  N   UNL     1      33.614 -12.582 -25.604  0.00  0.00    +0.058 N 
ENDBRANCH  13  18
ENDBRANCH   2  10
BRANCH   3  20
ATOM     19  O   UNL     1      33.242  -6.042 -23.375  0.00  0.00    -0.245 OA
ATOM     20  C   UNL     1      32.266  -6.702 -23.068  0.00  0.00    +0.339 C 
BRANCH  20  21
ATOM     21  O   UNL     1      31.018  -6.646 -23.592  0.00  0.00    -0.452 OA
BRANCH  21  23
ATOM     22  N   UNL     1      31.867  -3.771 -24.521  0.00  0.00    +0.392 N 
ATOM     23  C   UNL     1      30.418  -5.358 -23.584  0.00  0.00    +0.147 C 
ATOM     24  C   UNL     1      31.025  -4.499 -22.476  0.00  0.00    +0.019 C 
ATOM     25  C   UNL     1      30.739  -4.632 -24.887  0.00  0.00    -0.032 C 
ATOM     26  C   UNL     1      31.545  -3.260 -23.189  0.00  0.00    -0.073 C 
ATOM     27  H   UNL     1      32.746  -4.289 -24.518  0.00  0.00    -0.079 HD
BRANCH  22  28
ATOM     28  C   UNL     1      32.090  -2.704 -25.487  0.00  0.00    -0.050 C 
BRANCH  28  29
ATOM     29  C   UNL     1      32.430  -3.244 -26.850  0.00  0.00    -0.043 C 
ATOM     30  C   UNL     1      33.498  -4.128 -27.003  0.00  0.00    -0.006 C 
ATOM     31  C   UNL     1      31.677  -2.861 -27.960  0.00  0.00    -0.006 C 
ATOM     32  C   UNL     1      33.813  -4.629 -28.266  0.00  0.00    -0.000 C 
ATOM     33  C   UNL     1      31.993  -3.361 -29.223  0.00  0.00    -0.000 C 
ATOM     34  C   UNL     1      33.061  -4.245 -29.376  0.00  0.00    -0.000 C 
ENDBRANCH  28  29
ENDBRANCH  22  28
ENDBRANCH  21  23
ENDBRANCH  20  21
ENDBRANCH   3  20
BRANCH   4  36
ATOM     35  O   UNL     1      30.163 -11.602 -22.209  0.00  0.00    -0.245 OA
ATOM     36  C   UNL     1      31.185 -11.438 -21.568  0.00  0.00    +0.342 C 
BRANCH  36  37
ATOM     37  O   UNL     1      31.995 -12.376 -21.023  0.00  0.00    -0.441 OA
ATOM     38  C   UNL     1      32.223 -13.529 -21.841  0.00  0.00    +0.256 C 
ENDBRANCH  36  37
ENDBRANCH   4  36
TORSDOF 9
ENDMDL
MODEL 7
REMARK VINA RESULT:      -9.5      2.436      7.797
REMARK  Name = 443869
REMARK  9 active torsions:
REMARK  status: ('A' for Active; 'I' for Inactive)
REMARK    1  A    between atoms: C_2  and  C_10
REMARK    2  A    between atoms: C_3  and  C_20
REMARK    3  A    between atoms: C_4  and  C_36
REMARK    4  A    between atoms: C_13  and  N_18
REMARK    5  A    between atoms: C_20  and  O_21
REMARK    6  A    between atoms: O_21  and  C_23
REMARK    7  A    between atoms: N_22  and  C_28
REMARK    8  A    between atoms: C_28  and  C_29
REMARK    9  A    between atoms: C_36  and  O_37
REMARK                            x       y       z     vdW  Elec       q    Type
REMARK                         _______ _______ _______ _____ _____    ______ ____
ROOT
ATOM      1  N   UNL     1      35.029 -15.473 -21.762  0.00  0.00    -0.334 N 
ATOM      2  C   UNL     1      33.224 -14.944 -23.881  0.00  0.00    +0.011 C 
ATOM      3  C   UNL     1      33.154 -14.243 -22.520  0.00  0.00    +0.071 C 
ATOM      4  C   UNL     1      34.261 -16.072 -23.920  0.00  0.00    +0.085 C 
ATOM      5  C   UNL     1      34.057 -14.509 -21.549  0.00  0.00    +0.098 C 
ATOM      6  C   UNL     1      35.112 -16.277 -22.887  0.00  0.00    +0.028 C 
ATOM      7  C   UNL     1      34.110 -13.842 -20.201  0.00  0.00    +0.026 C 
ATOM      8  C   UNL     1      36.188 -17.328 -22.840  0.00  0.00    +0.047 C 
ATOM      9  H   UNL     1      35.711 -15.595 -21.062  0.00  0.00    +0.147 HD
ENDROOT
BRANCH   2  10
ATOM     10  C   UNL     1      33.518 -13.941 -24.960  0.00  0.00    +0.002 C 
ATOM     11  C   UNL     1      34.188 -12.759 -24.649  0.00  0.00    +0.024 C 
ATOM     12  C   UNL     1      33.121 -14.194 -26.272  0.00  0.00    +0.000 C 
ATOM     13  C   UNL     1      34.461 -11.828 -25.651  0.00  0.00    +0.143 C 
ATOM     14  C   UNL     1      33.393 -13.264 -27.275  0.00  0.00    +0.002 C 
ATOM     15  C   UNL     1      34.065 -12.081 -26.965  0.00  0.00    +0.024 C 
BRANCH  13  18
ATOM     16  O   UNL     1      35.633  -9.940 -26.267  0.00  0.00    -0.126 OA
ATOM     17  O   UNL     1      35.240 -10.276 -24.134  0.00  0.00    -0.126 OA
ATOM     18  N   UNL     1      35.144 -10.624 -25.336  0.00  0.00    +0.058 N 
ENDBRANCH  13  18
ENDBRANCH   2  10
BRANCH   3  20
ATOM     19  O   UNL     1      30.938 -13.461 -22.823  0.00  0.00    -0.245 OA
ATOM     20  C   UNL     1      32.035 -13.311 -22.316  0.00  0.00    +0.339 C 
BRANCH  20  21
ATOM     21  O   UNL     1      32.451 -12.313 -21.499  0.00  0.00    -0.452 OA
BRANCH  21  23
ATOM     22  N   UNL     1      32.189  -9.266 -20.792  0.00  0.00    +0.392 N 
ATOM     23  C   UNL     1      31.420 -11.471 -21.001  0.00  0.00    +0.147 C 
ATOM     24  C   UNL     1      31.665 -11.150 -19.528  0.00  0.00    +0.019 C 
ATOM     25  C   UNL     1      31.457 -10.128 -21.724  0.00  0.00    -0.032 C 
ATOM     26  C   UNL     1      31.697  -9.631 -19.463  0.00  0.00    -0.073 C 
ATOM     27  H   UNL     1      33.196  -9.407 -20.867  0.00  0.00    -0.079 HD
BRANCH  22  28
ATOM     28  C   UNL     1      32.008  -7.851 -21.083  0.00  0.00    -0.050 C 
BRANCH  28  29
ATOM     29  C   UNL     1      32.756  -7.433 -22.320  0.00  0.00    -0.043 C 
ATOM     30  C   UNL     1      34.117  -7.714 -22.441  0.00  0.00    -0.006 C 
ATOM     31  C   UNL     1      32.088  -6.765 -23.347  0.00  0.00    -0.006 C 
ATOM     32  C   UNL     1      34.810  -7.327 -23.588  0.00  0.00    -0.000 C 
ATOM     33  C   UNL     1      32.781  -6.378 -24.493  0.00  0.00    -0.000 C 
ATOM     34  C   UNL     1      34.142  -6.659 -24.614  0.00  0.00    -0.000 C 
ENDBRANCH  28  29
ENDBRANCH  22  28
ENDBRANCH  21  23
ENDBRANCH  20  21
ENDBRANCH   3  20
BRANCH   4  36
ATOM     35  O   UNL     1      34.780 -16.671 -26.153  0.00  0.00    -0.245 OA
ATOM     36  C   UNL     1      34.236 -16.951 -25.100  0.00  0.00    +0.342 C 
BRANCH  36  37
ATOM     37  O   UNL     1      33.527 -18.062 -24.790  0.00  0.00    -0.441 OA
ATOM     38  C   UNL     1      34.255 -19.291 -24.883  0.00  0.00    +0.256 C 
ENDBRANCH  36  37
ENDBRANCH   4  36
TORSDOF 9
ENDMDL
MODEL 8
REMARK VINA RESULT:      -9.5      1.955      3.498
REMARK  Name = 443869
REMARK  9 active torsions:
REMARK  status: ('A' for Active; 'I' for Inactive)
REMARK    1  A    between atoms: C_2  and  C_10
REMARK    2  A    between atoms: C_3  and  C_20
REMARK    3  A    between atoms: C_4  and  C_36
REMARK    4  A    between atoms: C_13  and  N_18
REMARK    5  A    between atoms: C_20  and  O_21
REMARK    6  A    between atoms: O_21  and  C_23
REMARK    7  A    between atoms: N_22  and  C_28
REMARK    8  A    between atoms: C_28  and  C_29
REMARK    9  A    between atoms: C_36  and  O_37
REMARK                            x       y       z     vdW  Elec       q    Type
REMARK                         _______ _______ _______ _____ _____    ______ ____
ROOT
ATOM      1  N   UNL     1      31.307 -13.123 -20.947  0.00  0.00    -0.334 N 
ATOM      2  C   UNL     1      33.490 -12.228 -22.515  0.00  0.00    +0.011 C 
ATOM      3  C   UNL     1      33.461 -13.587 -21.809  0.00  0.00    +0.071 C 
ATOM      4  C   UNL     1      32.294 -11.340 -22.151  0.00  0.00    +0.085 C 
ATOM      5  C   UNL     1      32.383 -13.982 -21.094  0.00  0.00    +0.098 C 
ATOM      6  C   UNL     1      31.267 -11.817 -21.410  0.00  0.00    +0.028 C 
ATOM      7  C   UNL     1      32.231 -15.313 -20.408  0.00  0.00    +0.026 C 
ATOM      8  C   UNL     1      30.033 -11.045 -21.031  0.00  0.00    +0.047 C 
ATOM      9  H   UNL     1      30.511 -13.465 -20.477  0.00  0.00    +0.147 HD
ENDROOT
BRANCH   2  10
ATOM     10  C   UNL     1      33.548 -12.424 -24.003  0.00  0.00    +0.002 C 
ATOM     11  C   UNL     1      34.415 -11.651 -24.775  0.00  0.00    +0.024 C 
ATOM     12  C   UNL     1      32.734 -13.379 -24.611  0.00  0.00    +0.000 C 
ATOM     13  C   UNL     1      34.469 -11.834 -26.157  0.00  0.00    +0.143 C 
ATOM     14  C   UNL     1      32.787 -13.562 -25.994  0.00  0.00    +0.002 C 
ATOM     15  C   UNL     1      33.655 -12.790 -26.766  0.00  0.00    +0.024 C 
BRANCH  13  18
ATOM     16  O   UNL     1      35.775 -11.513 -28.030  0.00  0.00    -0.126 OA
ATOM     17  O   UNL     1      35.684  -9.911 -26.532  0.00  0.00    -0.126 OA
ATOM     18  N   UNL     1      35.351 -11.049 -26.944  0.00  0.00    +0.058 N 
ENDBRANCH  13  18
ENDBRANCH   2  10
BRANCH   3  20
ATOM     19  O   UNL     1      35.528 -14.458 -21.044  0.00  0.00    -0.245 OA
ATOM     20  C   UNL     1      34.677 -14.409 -21.913  0.00  0.00    +0.339 C 
BRANCH  20  21
ATOM     21  O   UNL     1      34.654 -15.061 -23.101  0.00  0.00    -0.452 OA
BRANCH  21  23
ATOM     22  N   UNL     1      35.977 -17.849 -22.529  0.00  0.00    +0.392 N 
ATOM     23  C   UNL     1      34.201 -16.406 -23.042  0.00  0.00    +0.147 C 
ATOM     24  C   UNL     1      34.628 -17.164 -24.299  0.00  0.00    +0.019 C 
ATOM     25  C   UNL     1      34.878 -17.127 -21.881  0.00  0.00    -0.032 C 
ATOM     26  C   UNL     1      35.418 -18.356 -23.782  0.00  0.00    -0.073 C 
ATOM     27  H   UNL     1      36.775 -17.237 -22.699  0.00  0.00    -0.079 HD
BRANCH  22  28
ATOM     28  C   UNL     1      36.518 -18.910 -21.692  0.00  0.00    -0.050 C 
BRANCH  28  29
ATOM     29  C   UNL     1      35.430 -19.701 -21.017  0.00  0.00    -0.043 C 
ATOM     30  C   UNL     1      34.091 -19.426 -21.297  0.00  0.00    -0.006 C 
ATOM     31  C   UNL     1      35.760 -20.710 -20.112  0.00  0.00    -0.006 C 
ATOM     32  C   UNL     1      33.083 -20.159 -20.672  0.00  0.00    -0.000 C 
ATOM     33  C   UNL     1      34.751 -21.444 -19.487  0.00  0.00    -0.000 C 
ATOM     34  C   UNL     1      33.412 -21.168 -19.767  0.00  0.00    -0.000 C 
ENDBRANCH  28  29
ENDBRANCH  22  28
ENDBRANCH  21  23
ENDBRANCH  20  21
ENDBRANCH   3  20
BRANCH   4  36
ATOM     35  O   UNL     1      31.934  -9.556 -23.669  0.00  0.00    -0.245 OA
ATOM     36  C   UNL     1      32.356  -9.937 -22.592  0.00  0.00    +0.342 C 
BRANCH  36  37
ATOM     37  O   UNL     1      32.942  -9.207 -21.614  0.00  0.00    -0.441 OA
ATOM     38  C   UNL     1      32.179  -8.086 -21.155  0.00  0.00    +0.256 C 
ENDBRANCH  36  37
ENDBRANCH   4  36
TORSDOF 9
ENDMDL
MODEL 9
REMARK VINA RESULT:      -9.3      2.986      9.860
REMARK  Name = 443869
REMARK  9 active torsions:
REMARK  status: ('A' for Active; 'I' for Inactive)
REMARK    1  A    between atoms: C_2  and  C_10
REMARK    2  A    between atoms: C_3  and  C_20
REMARK    3  A    between atoms: C_4  and  C_36
REMARK    4  A    between atoms: C_13  and  N_18
REMARK    5  A    between atoms: C_20  and  O_21
REMARK    6  A    between atoms: O_21  and  C_23
REMARK    7  A    between atoms: N_22  and  C_28
REMARK    8  A    between atoms: C_28  and  C_29
REMARK    9  A    between atoms: C_36  and  O_37
REMARK                            x       y       z     vdW  Elec       q    Type
REMARK                         _______ _______ _______ _____ _____    ______ ____
ROOT
ATOM      1  N   UNL     1      33.592 -13.920 -25.427  0.00  0.00    -0.334 N 
ATOM      2  C   UNL     1      33.781 -12.616 -22.919  0.00  0.00    +0.011 C 
ATOM      3  C   UNL     1      33.936 -11.891 -24.259  0.00  0.00    +0.071 C 
ATOM      4  C   UNL     1      33.679 -14.138 -23.071  0.00  0.00    +0.085 C 
ATOM      5  C   UNL     1      33.809 -12.553 -25.432  0.00  0.00    +0.098 C 
ATOM      6  C   UNL     1      33.576 -14.715 -24.291  0.00  0.00    +0.028 C 
ATOM      7  C   UNL     1      33.890 -11.928 -26.799  0.00  0.00    +0.026 C 
ATOM      8  C   UNL     1      33.433 -16.190 -24.549  0.00  0.00    +0.047 C 
ATOM      9  H   UNL     1      33.437 -14.361 -26.294  0.00  0.00    +0.147 HD
ENDROOT
BRANCH   2  10
ATOM     10  C   UNL     1      32.578 -12.093 -22.188  0.00  0.00    +0.002 C 
ATOM     11  C   UNL     1      32.716 -11.560 -20.907  0.00  0.00    +0.024 C 
ATOM     12  C   UNL     1      31.322 -12.140 -22.793  0.00  0.00    +0.000 C 
ATOM     13  C   UNL     1      31.598 -11.074 -20.230  0.00  0.00    +0.143 C 
ATOM     14  C   UNL     1      30.203 -11.654 -22.116  0.00  0.00    +0.002 C 
ATOM     15  C   UNL     1      30.341 -11.120 -20.835  0.00  0.00    +0.024 C 
BRANCH  13  18
ATOM     16  O   UNL     1      32.370  -9.458 -18.777  0.00  0.00    -0.126 OA
ATOM     17  O   UNL     1      31.222 -11.139 -17.956  0.00  0.00    -0.126 OA
ATOM     18  N   UNL     1      31.737 -10.531 -18.926  0.00  0.00    +0.058 N 
ENDBRANCH  13  18
ENDBRANCH   2  10
BRANCH   3  20
ATOM     19  O   UNL     1      35.414 -10.046 -24.088  0.00  0.00    -0.245 OA
ATOM     20  C   UNL     1      34.274 -10.460 -24.199  0.00  0.00    +0.339 C 
BRANCH  20  21
ATOM     21  O   UNL     1      33.127  -9.745 -24.287  0.00  0.00    -0.452 OA
BRANCH  21  23
ATOM     22  N   UNL     1      31.941  -6.876 -23.818  0.00  0.00    +0.392 N 
ATOM     23  C   UNL     1      32.827  -8.943 -23.153  0.00  0.00    +0.147 C 
ATOM     24  C   UNL     1      33.883  -7.852 -22.983  0.00  0.00    +0.019 C 
ATOM     25  C   UNL     1      31.510  -8.206 -23.376  0.00  0.00    -0.032 C 
ATOM     26  C   UNL     1      33.097  -6.550 -22.984  0.00  0.00    -0.073 C 
ATOM     27  H   UNL     1      32.184  -6.874 -24.809  0.00  0.00    -0.079 HD
BRANCH  22  28
ATOM     28  C   UNL     1      30.881  -5.884 -23.713  0.00  0.00    -0.050 C 
BRANCH  28  29
ATOM     29  C   UNL     1      31.329  -4.532 -24.197  0.00  0.00    -0.043 C 
ATOM     30  C   UNL     1      31.769  -4.372 -25.511  0.00  0.00    -0.006 C 
ATOM     31  C   UNL     1      31.303  -3.437 -23.333  0.00  0.00    -0.006 C 
ATOM     32  C   UNL     1      32.184  -3.119 -25.961  0.00  0.00    -0.000 C 
ATOM     33  C   UNL     1      31.718  -2.184 -23.783  0.00  0.00    -0.000 C 
ATOM     34  C   UNL     1      32.159  -2.024 -25.097  0.00  0.00    -0.000 C 
ENDBRANCH  28  29
ENDBRANCH  22  28
ENDBRANCH  21  23
ENDBRANCH  20  21
ENDBRANCH   3  20
BRANCH   4  36
ATOM     35  O   UNL     1      32.847 -15.032 -21.040  0.00  0.00    -0.245 OA
ATOM     36  C   UNL     1      33.764 -14.932 -21.835  0.00  0.00    +0.342 C 
BRANCH  36  37
ATOM     37  O   UNL     1      34.996 -15.491 -21.770  0.00  0.00    -0.441 OA
ATOM     38  C   UNL     1      35.037 -16.803 -21.198  0.00  0.00    +0.256 C 
ENDBRANCH  36  37
ENDBRANCH   4  36
TORSDOF 9
ENDMDL
