MODEL 1
REMARK VINA RESULT:      -9.9      0.000      0.000
REMARK  Name = 39562
REMARK  4 active torsions:
REMARK  status: ('A' for Active; 'I' for Inactive)
REMARK    1  A    between atoms: N_1  and  C_14
REMARK    2  A    between atoms: C_5  and  C_11
REMARK    3  A    between atoms: C_11  and  O_12
REMARK    4  A    between atoms: C_14  and  C_17
REMARK                            x       y       z     vdW  Elec       q    Type
REMARK                         _______ _______ _______ _____ _____    ______ ____
ROOT
ATOM      1  N   UNL     1      34.928 -16.884 -23.148  0.00  0.00    -0.246 N 
ATOM      2  N   UNL     1      34.646 -16.684 -24.446  0.00  0.00    -0.162 NA
ATOM      3  C   UNL     1      34.305 -16.011 -22.298  0.00  0.00    +0.080 A 
ATOM      4  C   UNL     1      33.555 -15.174 -23.117  0.00  0.00    +0.043 A 
ATOM      5  C   UNL     1      33.811 -15.643 -24.424  0.00  0.00    +0.177 A 
ATOM      6  C   UNL     1      34.337 -15.888 -20.907  0.00  0.00    +0.019 C 
ATOM      7  C   UNL     1      32.787 -14.151 -22.536  0.00  0.00    +0.003 C 
ATOM      8  C   UNL     1      33.566 -14.865 -20.344  0.00  0.00    +0.002 C 
ATOM      9  C   UNL     1      32.804 -14.011 -21.143  0.00  0.00    +0.000 C 
ENDROOT
BRANCH   5  11
ATOM     10  O   UNL     1      33.156 -13.930 -25.959  0.00  0.00    -0.243 OA
ATOM     11  C   UNL     1      33.284 -15.132 -25.658  0.00  0.00    +0.358 C 
BRANCH  11  12
ATOM     12  O   UNL     1      32.914 -16.114 -26.534  0.00  0.00    -0.476 OA
ATOM     13  H   UNL     1      32.226 -16.710 -26.308  0.00  0.00    +0.295 HD
ENDBRANCH  11  12
ENDBRANCH   5  11
BRANCH   1  14
ATOM     14  C   UNL     1      35.824 -17.956 -22.780  0.00  0.00    +0.155 C 
BRANCH  14  17
ATOM     15 CL   UNL     1      37.611 -19.440 -20.753  0.00  0.00    -0.082 Cl
ATOM     16 CL   UNL     1      33.071 -21.787 -19.066  0.00  0.00    -0.082 Cl
ATOM     17  C   UNL     1      35.164 -18.923 -21.835  0.00  0.00    +0.013 C 
ATOM     18  C   UNL     1      35.901 -19.630 -20.893  0.00  0.00    +0.056 C 
ATOM     19  C   UNL     1      33.788 -19.091 -21.931  0.00  0.00    -0.001 C 
ATOM     20  C   UNL     1      35.253 -20.518 -20.034  0.00  0.00    +0.023 C 
ATOM     21  C   UNL     1      33.139 -19.978 -21.072  0.00  0.00    +0.011 C 
ATOM     22  C   UNL     1      33.873 -20.692 -20.124  0.00  0.00    +0.058 C 
ENDBRANCH  14  17
ENDBRANCH   1  14
TORSDOF 4
ENDMDL
MODEL 2
REMARK VINA RESULT:      -9.8      2.316      3.410
REMARK  Name = 39562
REMARK  4 active torsions:
REMARK  status: ('A' for Active; 'I' for Inactive)
REMARK    1  A    between atoms: N_1  and  C_14
REMARK    2  A    between atoms: C_5  and  C_11
REMARK    3  A    between atoms: C_11  and  O_12
REMARK    4  A    between atoms: C_14  and  C_17
REMARK                            x       y       z     vdW  Elec       q    Type
REMARK                         _______ _______ _______ _____ _____    ______ ____
ROOT
ATOM      1  N   UNL     1      35.209 -18.119 -21.917  0.00  0.00    -0.246 N 
ATOM      2  N   UNL     1      34.984 -17.324 -20.858  0.00  0.00    -0.162 NA
ATOM      3  C   UNL     1      34.837 -17.573 -23.117  0.00  0.00    +0.080 A 
ATOM      4  C   UNL     1      34.327 -16.317 -22.805  0.00  0.00    +0.043 A 
ATOM      5  C   UNL     1      34.448 -16.229 -21.401  0.00  0.00    +0.177 A 
ATOM      6  C   UNL     1      34.903 -18.067 -24.421  0.00  0.00    +0.019 C 
ATOM      7  C   UNL     1      33.852 -15.492 -23.838  0.00  0.00    +0.003 C 
ATOM      8  C   UNL     1      34.427 -17.232 -25.439  0.00  0.00    +0.002 C 
ATOM      9  C   UNL     1      33.910 -15.967 -25.154  0.00  0.00    +0.000 C 
ENDROOT
BRANCH   5  11
ATOM     10  O   UNL     1      32.906 -14.837 -20.215  0.00  0.00    -0.243 OA
ATOM     11  C   UNL     1      34.068 -15.133 -20.555  0.00  0.00    +0.358 C 
BRANCH  11  12
ATOM     12  O   UNL     1      35.133 -14.395 -20.118  0.00  0.00    -0.476 OA
ATOM     13  H   UNL     1      35.092 -13.958 -19.289  0.00  0.00    +0.295 HD
ENDBRANCH  11  12
ENDBRANCH   5  11
BRANCH   1  14
ATOM     14  C   UNL     1      35.798 -19.422 -21.708  0.00  0.00    +0.155 C 
BRANCH  14  17
ATOM     15 CL   UNL     1      37.312 -21.398 -19.891  0.00  0.00    -0.082 Cl
ATOM     16 CL   UNL     1      32.482 -22.613 -17.852  0.00  0.00    -0.082 Cl
ATOM     17  C   UNL     1      34.994 -20.236 -20.731  0.00  0.00    +0.013 C 
ATOM     18  C   UNL     1      35.604 -21.148 -19.879  0.00  0.00    +0.056 C 
ATOM     19  C   UNL     1      33.617 -20.051 -20.705  0.00  0.00    -0.001 C 
ATOM     20  C   UNL     1      34.825 -21.886 -18.985  0.00  0.00    +0.023 C 
ATOM     21  C   UNL     1      32.839 -20.787 -19.811  0.00  0.00    +0.011 C 
ATOM     22  C   UNL     1      33.444 -21.705 -18.952  0.00  0.00    +0.058 C 
ENDBRANCH  14  17
ENDBRANCH   1  14
TORSDOF 4
ENDMDL
MODEL 3
REMARK VINA RESULT:      -9.7      9.985     11.888
REMARK  Name = 39562
REMARK  4 active torsions:
REMARK  status: ('A' for Active; 'I' for Inactive)
REMARK    1  A    between atoms: N_1  and  C_14
REMARK    2  A    between atoms: C_5  and  C_11
REMARK    3  A    between atoms: C_11  and  O_12
REMARK    4  A    between atoms: C_14  and  C_17
REMARK                            x       y       z     vdW  Elec       q    Type
REMARK                         _______ _______ _______ _____ _____    ______ ____
ROOT
ATOM      1  N   UNL     1      35.567 -23.983 -14.827  0.00  0.00    -0.246 N 
ATOM      2  N   UNL     1      35.755 -25.094 -15.558  0.00  0.00    -0.162 NA
ATOM      3  C   UNL     1      36.358 -23.904 -13.712  0.00  0.00    +0.080 A 
ATOM      4  C   UNL     1      37.124 -25.065 -13.724  0.00  0.00    +0.043 A 
ATOM      5  C   UNL     1      36.703 -25.750 -14.884  0.00  0.00    +0.177 A 
ATOM      6  C   UNL     1      36.464 -22.931 -12.716  0.00  0.00    +0.019 C 
ATOM      7  C   UNL     1      38.053 -25.287 -12.693  0.00  0.00    +0.003 C 
ATOM      8  C   UNL     1      37.394 -23.166 -11.697  0.00  0.00    +0.002 C 
ATOM      9  C   UNL     1      38.175 -24.323 -11.684  0.00  0.00    +0.000 C 
ENDROOT
BRANCH   5  11
ATOM     10  O   UNL     1      38.045 -27.730 -14.846  0.00  0.00    -0.243 OA
ATOM     11  C   UNL     1      37.174 -27.014 -15.376  0.00  0.00    +0.358 C 
BRANCH  11  12
ATOM     12  O   UNL     1      36.561 -27.404 -16.535  0.00  0.00    -0.476 OA
ATOM     13  H   UNL     1      36.155 -28.248 -16.590  0.00  0.00    +0.295 HD
ENDBRANCH  11  12
ENDBRANCH   5  11
BRANCH   1  14
ATOM     14  C   UNL     1      34.590 -23.011 -15.261  0.00  0.00    +0.155 C 
BRANCH  14  17
ATOM     15 CL   UNL     1      32.715 -22.720 -17.691  0.00  0.00    -0.082 Cl
ATOM     16 CL   UNL     1      29.031 -25.194 -14.646  0.00  0.00    -0.082 Cl
ATOM     17  C   UNL     1      33.190 -23.549 -15.138  0.00  0.00    +0.013 C 
ATOM     18  C   UNL     1      32.286 -23.455 -16.189  0.00  0.00    +0.056 C 
ATOM     19  C   UNL     1      32.824 -24.144 -13.937  0.00  0.00    -0.001 C 
ATOM     20  C   UNL     1      30.996 -23.965 -16.037  0.00  0.00    +0.023 C 
ATOM     21  C   UNL     1      31.535 -24.655 -13.785  0.00  0.00    +0.011 C 
ATOM     22  C   UNL     1      30.621 -24.565 -14.835  0.00  0.00    +0.058 C 
ENDBRANCH  14  17
ENDBRANCH   1  14
TORSDOF 4
ENDMDL
MODEL 4
REMARK VINA RESULT:      -9.7      4.574      7.261
REMARK  Name = 39562
REMARK  4 active torsions:
REMARK  status: ('A' for Active; 'I' for Inactive)
REMARK    1  A    between atoms: N_1  and  C_14
REMARK    2  A    between atoms: C_5  and  C_11
REMARK    3  A    between atoms: C_11  and  O_12
REMARK    4  A    between atoms: C_14  and  C_17
REMARK                            x       y       z     vdW  Elec       q    Type
REMARK                         _______ _______ _______ _____ _____    ______ ____
ROOT
ATOM      1  N   UNL     1      32.702 -13.730 -23.147  0.00  0.00    -0.246 N 
ATOM      2  N   UNL     1      32.799 -14.059 -24.446  0.00  0.00    -0.162 NA
ATOM      3  C   UNL     1      33.416 -14.543 -22.308  0.00  0.00    +0.080 A 
ATOM      4  C   UNL     1      34.027 -15.478 -23.136  0.00  0.00    +0.043 A 
ATOM      5  C   UNL     1      33.606 -15.123 -24.436  0.00  0.00    +0.177 A 
ATOM      6  C   UNL     1      33.573 -14.536 -20.920  0.00  0.00    +0.019 C 
ATOM      7  C   UNL     1      34.844 -16.471 -22.568  0.00  0.00    +0.003 C 
ATOM      8  C   UNL     1      34.390 -15.530 -20.370  0.00  0.00    +0.002 C 
ATOM      9  C   UNL     1      35.015 -16.481 -21.179  0.00  0.00    +0.000 C 
ENDROOT
BRANCH   5  11
ATOM     10  O   UNL     1      34.629 -16.798 -25.802  0.00  0.00    -0.243 OA
ATOM     11  C   UNL     1      33.946 -15.764 -25.675  0.00  0.00    +0.358 C 
BRANCH  11  12
ATOM     12  O   UNL     1      33.434 -15.125 -26.770  0.00  0.00    -0.476 OA
ATOM     13  H   UNL     1      32.992 -14.304 -26.671  0.00  0.00    +0.295 HD
ENDBRANCH  11  12
ENDBRANCH   5  11
BRANCH   1  14
ATOM     14  C   UNL     1      31.890 -12.598 -22.766  0.00  0.00    +0.155 C 
BRANCH  14  17
ATOM     15 CL   UNL     1      31.114 -10.176 -21.024  0.00  0.00    -0.082 Cl
ATOM     16 CL   UNL     1      34.846  -7.477 -23.809  0.00  0.00    -0.082 Cl
ATOM     17  C   UNL     1      32.613 -11.300 -23.003  0.00  0.00    +0.013 C 
ATOM     18  C   UNL     1      32.320 -10.163 -22.260  0.00  0.00    +0.056 C 
ATOM     19  C   UNL     1      33.588 -11.268 -23.993  0.00  0.00    -0.001 C 
ATOM     20  C   UNL     1      33.012  -8.977 -22.509  0.00  0.00    +0.023 C 
ATOM     21  C   UNL     1      34.281 -10.083 -24.242  0.00  0.00    +0.011 C 
ATOM     22  C   UNL     1      33.992  -8.938 -23.500  0.00  0.00    +0.058 C 
ENDBRANCH  14  17
ENDBRANCH   1  14
TORSDOF 4
ENDMDL
MODEL 5
REMARK VINA RESULT:      -9.3      5.829      7.705
REMARK  Name = 39562
REMARK  4 active torsions:
REMARK  status: ('A' for Active; 'I' for Inactive)
REMARK    1  A    between atoms: N_1  and  C_14
REMARK    2  A    between atoms: C_5  and  C_11
REMARK    3  A    between atoms: C_11  and  O_12
REMARK    4  A    between atoms: C_14  and  C_17
REMARK                            x       y       z     vdW  Elec       q    Type
REMARK                         _______ _______ _______ _____ _____    ______ ____
ROOT
ATOM      1  N   UNL     1      31.849 -10.068 -22.254  0.00  0.00    -0.246 N 
ATOM      2  N   UNL     1      31.525  -9.180 -21.300  0.00  0.00    -0.162 NA
ATOM      3  C   UNL     1      32.919  -9.699 -23.025  0.00  0.00    +0.080 A 
ATOM      4  C   UNL     1      33.321  -8.465 -22.525  0.00  0.00    +0.043 A 
ATOM      5  C   UNL     1      32.422  -8.206 -21.468  0.00  0.00    +0.177 A 
ATOM      6  C   UNL     1      33.554 -10.331 -24.096  0.00  0.00    +0.019 C 
ATOM      7  C   UNL     1      34.415  -7.809 -23.113  0.00  0.00    +0.003 C 
ATOM      8  C   UNL     1      34.642  -9.665 -24.670  0.00  0.00    +0.002 C 
ATOM      9  C   UNL     1      35.067  -8.426 -24.188  0.00  0.00    +0.000 C 
ENDROOT
BRANCH   5  11
ATOM     10  O   UNL     1      31.753  -6.005 -20.813  0.00  0.00    -0.243 OA
ATOM     11  C   UNL     1      32.388  -7.057 -20.607  0.00  0.00    +0.358 C 
BRANCH  11  12
ATOM     12  O   UNL     1      33.143  -7.207 -19.477  0.00  0.00    -0.476 OA
ATOM     13  H   UNL     1      33.394  -6.454 -18.977  0.00  0.00    +0.295 HD
ENDBRANCH  11  12
ENDBRANCH   5  11
BRANCH   1  14
ATOM     14  C   UNL     1      31.075 -11.282 -22.378  0.00  0.00    +0.155 C 
BRANCH  14  17
ATOM     15 CL   UNL     1      31.592 -11.757 -19.377  0.00  0.00    -0.082 Cl
ATOM     16 CL   UNL     1      34.307 -16.134 -20.941  0.00  0.00    -0.082 Cl
ATOM     17  C   UNL     1      31.882 -12.490 -21.986  0.00  0.00    +0.013 C 
ATOM     18  C   UNL     1      32.158 -12.772 -20.654  0.00  0.00    +0.056 C 
ATOM     19  C   UNL     1      32.347 -13.320 -22.999  0.00  0.00    -0.001 C 
ATOM     20  C   UNL     1      32.910 -13.902 -20.329  0.00  0.00    +0.023 C 
ATOM     21  C   UNL     1      33.098 -14.450 -22.674  0.00  0.00    +0.011 C 
ATOM     22  C   UNL     1      33.379 -14.740 -21.339  0.00  0.00    +0.058 C 
ENDBRANCH  14  17
ENDBRANCH   1  14
TORSDOF 4
ENDMDL
MODEL 6
REMARK VINA RESULT:      -9.2     10.344     12.437
REMARK  Name = 39562
REMARK  4 active torsions:
REMARK  status: ('A' for Active; 'I' for Inactive)
REMARK    1  A    between atoms: N_1  and  C_14
REMARK    2  A    between atoms: C_5  and  C_11
REMARK    3  A    between atoms: C_11  and  O_12
REMARK    4  A    between atoms: C_14  and  C_17
REMARK                            x       y       z     vdW  Elec       q    Type
REMARK                         _______ _______ _______ _____ _____    ______ ____
ROOT
ATOM      1  N   UNL     1      35.159 -23.717 -14.181  0.00  0.00    -0.246 N 
ATOM      2  N   UNL     1      35.297 -23.139 -12.976  0.00  0.00    -0.162 NA
ATOM      3  C   UNL     1      35.883 -24.868 -14.336  0.00  0.00    +0.080 A 
ATOM      4  C   UNL     1      36.546 -25.049 -13.127  0.00  0.00    +0.043 A 
ATOM      5  C   UNL     1      36.141 -23.951 -12.338  0.00  0.00    +0.177 A 
ATOM      6  C   UNL     1      36.009 -25.748 -15.414  0.00  0.00    +0.019 C 
ATOM      7  C   UNL     1      37.388 -26.163 -12.964  0.00  0.00    +0.003 C 
ATOM      8  C   UNL     1      36.850 -26.852 -15.235  0.00  0.00    +0.002 C 
ATOM      9  C   UNL     1      37.528 -27.057 -14.032  0.00  0.00    +0.000 C 
ENDROOT
BRANCH   5  11
ATOM     10  O   UNL     1      36.187 -24.269  -9.967  0.00  0.00    -0.243 OA
ATOM     11  C   UNL     1      36.533 -23.647 -10.990  0.00  0.00    +0.358 C 
BRANCH  11  12
ATOM     12  O   UNL     1      37.364 -22.565 -10.902  0.00  0.00    -0.476 OA
ATOM     13  H   UNL     1      37.375 -21.925 -11.587  0.00  0.00    +0.295 HD
ENDBRANCH  11  12
ENDBRANCH   5  11
BRANCH   1  14
ATOM     14  C   UNL     1      34.296 -23.102 -15.163  0.00  0.00    +0.155 C 
BRANCH  14  17
ATOM     15 CL   UNL     1      32.411 -22.627 -17.555  0.00  0.00    -0.082 Cl
ATOM     16 CL   UNL     1      28.716 -25.261 -14.660  0.00  0.00    -0.082 Cl
ATOM     17  C   UNL     1      32.891 -23.631 -15.067  0.00  0.00    +0.013 C 
ATOM     18  C   UNL     1      31.982 -23.457 -16.103  0.00  0.00    +0.056 C 
ATOM     19  C   UNL     1      32.525 -24.302 -13.907  0.00  0.00    -0.001 C 
ATOM     20  C   UNL     1      30.687 -23.962 -15.978  0.00  0.00    +0.023 C 
ATOM     21  C   UNL     1      31.231 -24.808 -13.781  0.00  0.00    +0.011 C 
ATOM     22  C   UNL     1      30.312 -24.637 -14.817  0.00  0.00    +0.058 C 
ENDBRANCH  14  17
ENDBRANCH   1  14
TORSDOF 4
ENDMDL
MODEL 7
REMARK VINA RESULT:      -9.2      5.869      8.561
REMARK  Name = 39562
REMARK  4 active torsions:
REMARK  status: ('A' for Active; 'I' for Inactive)
REMARK    1  A    between atoms: N_1  and  C_14
REMARK    2  A    between atoms: C_5  and  C_11
REMARK    3  A    between atoms: C_11  and  O_12
REMARK    4  A    between atoms: C_14  and  C_17
REMARK                            x       y       z     vdW  Elec       q    Type
REMARK                         _______ _______ _______ _____ _____    ______ ____
ROOT
ATOM      1  N   UNL     1      33.543 -22.974 -18.067  0.00  0.00    -0.246 N 
ATOM      2  N   UNL     1      32.201 -22.939 -18.011  0.00  0.00    -0.162 NA
ATOM      3  C   UNL     1      34.153 -23.090 -16.846  0.00  0.00    +0.080 A 
ATOM      4  C   UNL     1      33.114 -23.134 -15.922  0.00  0.00    +0.043 A 
ATOM      5  C   UNL     1      31.944 -23.036 -16.705  0.00  0.00    +0.177 A 
ATOM      6  C   UNL     1      35.499 -23.159 -16.484  0.00  0.00    +0.019 C 
ATOM      7  C   UNL     1      33.416 -23.252 -14.555  0.00  0.00    +0.003 C 
ATOM      8  C   UNL     1      35.783 -23.278 -15.119  0.00  0.00    +0.002 C 
ATOM      9  C   UNL     1      34.760 -23.323 -14.170  0.00  0.00    +0.000 C 
ENDROOT
BRANCH   5  11
ATOM     10  O   UNL     1      30.139 -23.633 -15.253  0.00  0.00    -0.243 OA
ATOM     11  C   UNL     1      30.582 -23.032 -16.250  0.00  0.00    +0.358 C 
BRANCH  11  12
ATOM     12  O   UNL     1      29.755 -22.275 -17.033  0.00  0.00    -0.476 OA
ATOM     13  H   UNL     1      29.739 -21.343 -16.934  0.00  0.00    +0.295 HD
ENDBRANCH  11  12
ENDBRANCH   5  11
BRANCH   1  14
ATOM     14  C   UNL     1      34.197 -22.890 -19.352  0.00  0.00    +0.155 C 
BRANCH  14  17
ATOM     15 CL   UNL     1      36.901 -21.487 -19.821  0.00  0.00    -0.082 Cl
ATOM     16 CL   UNL     1      33.983 -17.284 -21.490  0.00  0.00    -0.082 Cl
ATOM     17  C   UNL     1      34.176 -21.484 -19.888  0.00  0.00    +0.013 C 
ATOM     18  C   UNL     1      35.353 -20.785 -20.125  0.00  0.00    +0.056 C 
ATOM     19  C   UNL     1      32.940 -20.901 -20.139  0.00  0.00    -0.001 C 
ATOM     20  C   UNL     1      35.294 -19.482 -20.622  0.00  0.00    +0.023 C 
ATOM     21  C   UNL     1      32.881 -19.599 -20.637  0.00  0.00    +0.011 C 
ATOM     22  C   UNL     1      34.058 -18.890 -20.878  0.00  0.00    +0.058 C 
ENDBRANCH  14  17
ENDBRANCH   1  14
TORSDOF 4
ENDMDL
MODEL 8
REMARK VINA RESULT:      -9.1      4.563      7.221
REMARK  Name = 39562
REMARK  4 active torsions:
REMARK  status: ('A' for Active; 'I' for Inactive)
REMARK    1  A    between atoms: N_1  and  C_14
REMARK    2  A    between atoms: C_5  and  C_11
REMARK    3  A    between atoms: C_11  and  O_12
REMARK    4  A    between atoms: C_14  and  C_17
REMARK                            x       y       z     vdW  Elec       q    Type
REMARK                         _______ _______ _______ _____ _____    ______ ____
ROOT
ATOM      1  N   UNL     1      32.656 -13.816 -23.138  0.00  0.00    -0.246 N 
ATOM      2  N   UNL     1      32.411 -13.717 -24.455  0.00  0.00    -0.162 NA
ATOM      3  C   UNL     1      33.514 -14.829 -22.802  0.00  0.00    +0.080 A 
ATOM      4  C   UNL     1      33.852 -15.436 -24.007  0.00  0.00    +0.043 A 
ATOM      5  C   UNL     1      33.140 -14.704 -24.980  0.00  0.00    +0.177 A 
ATOM      6  C   UNL     1      34.011 -15.254 -21.568  0.00  0.00    +0.019 C 
ATOM      7  C   UNL     1      34.734 -16.531 -24.001  0.00  0.00    +0.003 C 
ATOM      8  C   UNL     1      34.889 -16.344 -21.580  0.00  0.00    +0.002 C 
ATOM      9  C   UNL     1      35.244 -16.972 -22.775  0.00  0.00    +0.000 C 
ENDROOT
BRANCH   5  11
ATOM     10  O   UNL     1      33.728 -14.224 -27.249  0.00  0.00    -0.243 OA
ATOM     11  C   UNL     1      33.128 -14.912 -26.401  0.00  0.00    +0.358 C 
BRANCH  11  12
ATOM     12  O   UNL     1      32.370 -15.985 -26.782  0.00  0.00    -0.476 OA
ATOM     13  H   UNL     1      32.343 -16.243 -27.684  0.00  0.00    +0.295 HD
ENDBRANCH  11  12
ENDBRANCH   5  11
BRANCH   1  14
ATOM     14  C   UNL     1      32.022 -12.887 -22.231  0.00  0.00    +0.155 C 
BRANCH  14  17
ATOM     15 CL   UNL     1      30.848 -10.653 -20.461  0.00  0.00    -0.082 Cl
ATOM     16 CL   UNL     1      33.762  -7.277 -23.474  0.00  0.00    -0.082 Cl
ATOM     17  C   UNL     1      32.439 -11.470 -22.518  0.00  0.00    +0.013 C 
ATOM     18  C   UNL     1      31.953 -10.408 -21.765  0.00  0.00    +0.056 C 
ATOM     19  C   UNL     1      33.329 -11.251 -23.563  0.00  0.00    -0.001 C 
ATOM     20  C   UNL     1      32.363  -9.107 -22.061  0.00  0.00    +0.023 C 
ATOM     21  C   UNL     1      33.739  -9.951 -23.858  0.00  0.00    +0.011 C 
ATOM     22  C   UNL     1      33.255  -8.880 -23.107  0.00  0.00    +0.058 C 
ENDBRANCH  14  17
ENDBRANCH   1  14
TORSDOF 4
ENDMDL
MODEL 9
REMARK VINA RESULT:      -9.1      5.470      7.301
REMARK  Name = 39562
REMARK  4 active torsions:
REMARK  status: ('A' for Active; 'I' for Inactive)
REMARK    1  A    between atoms: N_1  and  C_14
REMARK    2  A    between atoms: C_5  and  C_11
REMARK    3  A    between atoms: C_11  and  O_12
REMARK    4  A    between atoms: C_14  and  C_17
REMARK                            x       y       z     vdW  Elec       q    Type
REMARK                         _______ _______ _______ _____ _____    ______ ____
ROOT
ATOM      1  N   UNL     1      32.092 -10.574 -22.513  0.00  0.00    -0.246 N 
ATOM      2  N   UNL     1      31.591  -9.942 -21.438  0.00  0.00    -0.162 NA
ATOM      3  C   UNL     1      33.095  -9.892 -23.148  0.00  0.00    +0.080 A 
ATOM      4  C   UNL     1      33.256  -8.718 -22.420  0.00  0.00    +0.043 A 
ATOM      5  C   UNL     1      32.301  -8.814 -21.385  0.00  0.00    +0.177 A 
ATOM      6  C   UNL     1      33.857 -10.201 -24.276  0.00  0.00    +0.019 C 
ATOM      7  C   UNL     1      34.227  -7.786 -22.825  0.00  0.00    +0.003 C 
ATOM      8  C   UNL     1      34.821  -9.263 -24.665  0.00  0.00    +0.002 C 
ATOM      9  C   UNL     1      35.003  -8.077 -23.953  0.00  0.00    +0.000 C 
ENDROOT
BRANCH   5  11
ATOM     10  O   UNL     1      31.913  -6.632 -20.485  0.00  0.00    -0.243 OA
ATOM     11  C   UNL     1      32.040  -7.862 -20.341  0.00  0.00    +0.358 C 
BRANCH  11  12
ATOM     12  O   UNL     1      31.933  -8.436 -19.104  0.00  0.00    -0.476 OA
ATOM     13  H   UNL     1      32.642  -8.370 -18.494  0.00  0.00    +0.295 HD
ENDBRANCH  11  12
ENDBRANCH   5  11
BRANCH   1  14
ATOM     14  C   UNL     1      31.552 -11.861 -22.888  0.00  0.00    +0.155 C 
BRANCH  14  17
ATOM     15 CL   UNL     1      33.314 -13.392 -24.902  0.00  0.00    -0.082 Cl
ATOM     16 CL   UNL     1      34.904 -16.327 -20.680  0.00  0.00    -0.082 Cl
ATOM     17  C   UNL     1      32.404 -12.986 -22.365  0.00  0.00    +0.013 C 
ATOM     18  C   UNL     1      33.224 -13.724 -23.210  0.00  0.00    +0.056 C 
ATOM     19  C   UNL     1      32.347 -13.270 -21.006  0.00  0.00    -0.001 C 
ATOM     20  C   UNL     1      34.000 -14.760 -22.688  0.00  0.00    +0.023 C 
ATOM     21  C   UNL     1      33.122 -14.305 -20.483  0.00  0.00    +0.011 C 
ATOM     22  C   UNL     1      33.948 -15.050 -21.325  0.00  0.00    +0.058 C 
ENDBRANCH  14  17
ENDBRANCH   1  14
TORSDOF 4
ENDMDL
