MODEL 1
REMARK VINA RESULT:     -10.8      0.000      0.000
REMARK  Name = 11304743
REMARK  5 active torsions:
REMARK  status: ('A' for Active; 'I' for Inactive)
REMARK    1  A    between atoms: C_4  and  C_15
REMARK    2  A    between atoms: C_5  and  N_28
REMARK    3  A    between atoms: N_10  and  C_19
REMARK    4  A    between atoms: C_19  and  C_21
REMARK    5  A    between atoms: C_30  and  O_31
REMARK                            x       y       z     vdW  Elec       q    Type
REMARK                         _______ _______ _______ _____ _____    ______ ____
ROOT
ATOM      1  N   UNL     1      34.059 -12.238 -23.535  0.00  0.00    -0.326 NA
ATOM      2  N   UNL     1      32.249 -13.001 -22.139  0.00  0.00    -0.326 NA
ATOM      3  N   UNL     1      34.218  -9.958 -24.152  0.00  0.00    -0.334 N 
ATOM      4  C   UNL     1      33.369 -13.172 -22.861  0.00  0.00    +0.160 C 
ATOM      5  C   UNL     1      32.399 -10.680 -22.755  0.00  0.00    +0.213 C 
ATOM      6  C   UNL     1      33.542 -10.994 -23.461  0.00  0.00    +0.193 C 
ATOM      7  C   UNL     1      31.788 -11.735 -22.108  0.00  0.00    +0.193 C 
ATOM      8  H   UNL     1      35.035 -10.158 -24.661  0.00  0.00    +0.144 HD
ATOM      9  H   UNL     1      33.868  -9.037 -24.121  0.00  0.00    +0.144 HD
ATOM     10  N   UNL     1      30.608 -11.481 -21.365  0.00  0.00    -0.334 N 
ATOM     11  H   UNL     1      30.154 -12.218 -20.895  0.00  0.00    +0.144 HD
ATOM     12  H   UNL     1      30.241 -10.568 -21.319  0.00  0.00    +0.144 HD
ENDROOT
BRANCH   4  18
ATOM     13  N   UNL     1      34.853 -16.272 -22.271  0.00  0.00    -0.229 N 
ATOM     14  N   UNL     1      34.512 -15.039 -21.855  0.00  0.00    -0.155 NA
ATOM     15  N   UNL     1      34.681 -17.689 -24.225  0.00  0.00    -0.225 NA
ATOM     16  C   UNL     1      33.834 -15.401 -24.010  0.00  0.00    +0.066 A 
ATOM     17  C   UNL     1      34.472 -16.543 -23.552  0.00  0.00    +0.162 A 
ATOM     18  C   UNL     1      33.892 -14.513 -22.917  0.00  0.00    +0.189 A 
ATOM     19  C   UNL     1      33.337 -15.408 -25.319  0.00  0.00    +0.007 C 
ATOM     20  C   UNL     1      33.523 -16.571 -26.067  0.00  0.00    +0.021 C 
ATOM     21  C   UNL     1      34.183 -17.648 -25.484  0.00  0.00    +0.101 C 
BRANCH  13  22
ATOM     22  C   UNL     1      35.553 -17.158 -21.370  0.00  0.00    +0.158 C 
BRANCH  22  24
ATOM     23  F   UNL     1      36.684 -19.673 -20.750  0.00  0.00    -0.204 F 
ATOM     24  C   UNL     1      34.721 -18.366 -21.032  0.00  0.00    +0.030 C 
ATOM     25  C   UNL     1      35.347 -19.570 -20.738  0.00  0.00    +0.138 C 
ATOM     26  C   UNL     1      33.337 -18.258 -21.020  0.00  0.00    -0.000 C 
ATOM     27  C   UNL     1      34.573 -20.688 -20.426  0.00  0.00    +0.029 C 
ATOM     28  C   UNL     1      32.564 -19.376 -20.708  0.00  0.00    -0.000 C 
ATOM     29  C   UNL     1      33.182 -20.591 -20.411  0.00  0.00    +0.002 C 
ENDBRANCH  22  24
ENDBRANCH  13  22
ENDBRANCH   4  18
BRANCH   5  31
ATOM     30  O   UNL     1      32.536  -8.950 -20.470  0.00  0.00    -0.226 OA
ATOM     31  N   UNL     1      31.891  -9.380 -22.701  0.00  0.00    -0.231 N 
ATOM     32  C   UNL     1      31.208  -8.760 -23.878  0.00  0.00    +0.119 C 
ATOM     33  C   UNL     1      32.002  -8.576 -21.512  0.00  0.00    +0.406 C 
BRANCH  33  34
ATOM     34  O   UNL     1      31.422  -7.335 -21.617  0.00  0.00    -0.430 OA
ATOM     35  C   UNL     1      32.017  -6.284 -20.846  0.00  0.00    +0.257 C 
ENDBRANCH  33  34
ENDBRANCH   5  31
TORSDOF 5
ENDMDL
MODEL 2
REMARK VINA RESULT:     -10.8      0.043      1.490
REMARK  Name = 11304743
REMARK  5 active torsions:
REMARK  status: ('A' for Active; 'I' for Inactive)
REMARK    1  A    between atoms: C_4  and  C_15
REMARK    2  A    between atoms: C_5  and  N_28
REMARK    3  A    between atoms: N_10  and  C_19
REMARK    4  A    between atoms: C_19  and  C_21
REMARK    5  A    between atoms: C_30  and  O_31
REMARK                            x       y       z     vdW  Elec       q    Type
REMARK                         _______ _______ _______ _____ _____    ______ ____
ROOT
ATOM      1  N   UNL     1      32.272 -13.030 -22.132  0.00  0.00    -0.326 NA
ATOM      2  N   UNL     1      34.079 -12.251 -23.522  0.00  0.00    -0.326 NA
ATOM      3  N   UNL     1      30.623 -11.522 -21.351  0.00  0.00    -0.334 N 
ATOM      4  C   UNL     1      33.394 -13.192 -22.852  0.00  0.00    +0.160 C 
ATOM      5  C   UNL     1      32.408 -10.706 -22.740  0.00  0.00    +0.213 C 
ATOM      6  C   UNL     1      31.803 -11.765 -22.096  0.00  0.00    +0.193 C 
ATOM      7  C   UNL     1      33.555 -11.011 -23.444  0.00  0.00    +0.193 C 
ATOM      8  H   UNL     1      30.173 -12.262 -20.885  0.00  0.00    +0.144 HD
ATOM      9  H   UNL     1      30.252 -10.610 -21.302  0.00  0.00    +0.144 HD
ATOM     10  N   UNL     1      34.227  -9.966 -24.128  0.00  0.00    -0.334 N 
ATOM     11  H   UNL     1      35.048 -10.160 -24.637  0.00  0.00    +0.144 HD
ATOM     12  H   UNL     1      33.875  -9.048 -24.093  0.00  0.00    +0.144 HD
ENDROOT
BRANCH   4  18
ATOM     13  N   UNL     1      34.891 -16.287 -22.272  0.00  0.00    -0.229 N 
ATOM     14  N   UNL     1      34.545 -15.057 -21.852  0.00  0.00    -0.155 NA
ATOM     15  N   UNL     1      34.726 -17.698 -24.230  0.00  0.00    -0.225 NA
ATOM     16  C   UNL     1      33.869 -15.414 -24.009  0.00  0.00    +0.066 A 
ATOM     17  C   UNL     1      34.513 -16.556 -23.554  0.00  0.00    +0.162 A 
ATOM     18  C   UNL     1      33.924 -14.530 -22.913  0.00  0.00    +0.189 A 
ATOM     19  C   UNL     1      33.374 -15.419 -25.318  0.00  0.00    +0.007 C 
ATOM     20  C   UNL     1      33.565 -16.579 -26.069  0.00  0.00    +0.021 C 
ATOM     21  C   UNL     1      34.229 -17.655 -25.489  0.00  0.00    +0.101 C 
BRANCH  13  22
ATOM     22  C   UNL     1      35.594 -17.173 -21.373  0.00  0.00    +0.158 C 
BRANCH  22  24
ATOM     23  F   UNL     1      36.712 -19.676 -20.685  0.00  0.00    -0.204 F 
ATOM     24  C   UNL     1      34.756 -18.371 -21.016  0.00  0.00    +0.030 C 
ATOM     25  C   UNL     1      35.376 -19.569 -20.688  0.00  0.00    +0.138 C 
ATOM     26  C   UNL     1      33.372 -18.259 -21.020  0.00  0.00    -0.000 C 
ATOM     27  C   UNL     1      34.596 -20.678 -20.359  0.00  0.00    +0.029 C 
ATOM     28  C   UNL     1      32.593 -19.368 -20.691  0.00  0.00    -0.000 C 
ATOM     29  C   UNL     1      33.205 -20.577 -20.360  0.00  0.00    +0.002 C 
ENDBRANCH  22  24
ENDBRANCH  13  22
ENDBRANCH   4  18
BRANCH   5  31
ATOM     30  O   UNL     1      32.549  -8.985 -20.449  0.00  0.00    -0.226 OA
ATOM     31  N   UNL     1      31.896  -9.408 -22.679  0.00  0.00    -0.231 N 
ATOM     32  C   UNL     1      31.206  -8.785 -23.850  0.00  0.00    +0.119 C 
ATOM     33  C   UNL     1      32.009  -8.608 -21.487  0.00  0.00    +0.406 C 
BRANCH  33  34
ATOM     34  O   UNL     1      31.424  -7.369 -21.585  0.00  0.00    -0.430 OA
ATOM     35  C   UNL     1      32.030  -6.315 -20.825  0.00  0.00    +0.257 C 
ENDBRANCH  33  34
ENDBRANCH   5  31
TORSDOF 5
ENDMDL
MODEL 3
REMARK VINA RESULT:     -10.7      6.560     10.325
REMARK  Name = 11304743
REMARK  5 active torsions:
REMARK  status: ('A' for Active; 'I' for Inactive)
REMARK    1  A    between atoms: C_4  and  C_15
REMARK    2  A    between atoms: C_5  and  N_28
REMARK    3  A    between atoms: N_10  and  C_19
REMARK    4  A    between atoms: C_19  and  C_21
REMARK    5  A    between atoms: C_30  and  O_31
REMARK                            x       y       z     vdW  Elec       q    Type
REMARK                         _______ _______ _______ _____ _____    ______ ____
ROOT
ATOM      1  N   UNL     1      33.211 -21.449 -19.146  0.00  0.00    -0.326 NA
ATOM      2  N   UNL     1      35.592 -21.628 -18.821  0.00  0.00    -0.326 NA
ATOM      3  N   UNL     1      32.336 -20.094 -20.879  0.00  0.00    -0.334 N 
ATOM      4  C   UNL     1      34.311 -21.906 -18.526  0.00  0.00    +0.160 C 
ATOM      5  C   UNL     1      34.718 -20.251 -20.590  0.00  0.00    +0.213 C 
ATOM      6  C   UNL     1      33.453 -20.617 -20.181  0.00  0.00    +0.193 C 
ATOM      7  C   UNL     1      35.760 -20.792 -19.865  0.00  0.00    +0.193 C 
ATOM      8  H   UNL     1      31.424 -20.342 -20.606  0.00  0.00    +0.144 HD
ATOM      9  H   UNL     1      32.474 -19.482 -21.639  0.00  0.00    +0.144 HD
ATOM     10  N   UNL     1      37.087 -20.454 -20.232  0.00  0.00    -0.334 N 
ATOM     11  H   UNL     1      37.847 -20.828 -19.730  0.00  0.00    +0.144 HD
ATOM     12  H   UNL     1      37.249 -19.845 -20.989  0.00  0.00    +0.144 HD
ENDROOT
BRANCH   4  18
ATOM     13  N   UNL     1      34.538 -24.192 -15.903  0.00  0.00    -0.229 N 
ATOM     14  N   UNL     1      35.112 -23.487 -16.895  0.00  0.00    -0.155 NA
ATOM     15  N   UNL     1      32.374 -24.538 -14.879  0.00  0.00    -0.225 NA
ATOM     16  C   UNL     1      32.869 -23.055 -16.764  0.00  0.00    +0.066 A 
ATOM     17  C   UNL     1      33.199 -23.972 -15.778  0.00  0.00    +0.162 A 
ATOM     18  C   UNL     1      34.092 -22.797 -17.416  0.00  0.00    +0.189 A 
ATOM     19  C   UNL     1      31.533 -22.649 -16.862  0.00  0.00    +0.007 C 
ATOM     20  C   UNL     1      30.629 -23.202 -15.953  0.00  0.00    +0.021 C 
ATOM     21  C   UNL     1      31.094 -24.115 -15.013  0.00  0.00    +0.101 C 
BRANCH  13  22
ATOM     22  C   UNL     1      35.351 -25.071 -15.095  0.00  0.00    +0.158 C 
BRANCH  22  24
ATOM     23  F   UNL     1      37.789 -23.642 -15.057  0.00  0.00    -0.204 F 
ATOM     24  C   UNL     1      35.867 -24.369 -13.868  0.00  0.00    +0.030 C 
ATOM     25  C   UNL     1      37.074 -23.686 -13.925  0.00  0.00    +0.138 C 
ATOM     26  C   UNL     1      35.126 -24.415 -12.694  0.00  0.00    -0.000 C 
ATOM     27  C   UNL     1      37.549 -23.036 -12.785  0.00  0.00    +0.029 C 
ATOM     28  C   UNL     1      35.602 -23.766 -11.555  0.00  0.00    -0.000 C 
ATOM     29  C   UNL     1      36.814 -23.077 -11.600  0.00  0.00    +0.002 C 
ENDBRANCH  22  24
ENDBRANCH  13  22
ENDBRANCH   4  18
BRANCH   5  31
ATOM     30  O   UNL     1      35.456 -17.488 -20.358  0.00  0.00    -0.226 OA
ATOM     31  N   UNL     1      34.931 -19.384 -21.665  0.00  0.00    -0.231 N 
ATOM     32  C   UNL     1      34.786 -19.846 -23.079  0.00  0.00    +0.119 C 
ATOM     33  C   UNL     1      35.300 -18.007 -21.461  0.00  0.00    +0.406 C 
BRANCH  33  34
ATOM     34  O   UNL     1      35.439 -17.286 -22.622  0.00  0.00    -0.430 OA
ATOM     35  C   UNL     1      34.804 -16.002 -22.655  0.00  0.00    +0.257 C 
ENDBRANCH  33  34
ENDBRANCH   5  31
TORSDOF 5
ENDMDL
MODEL 4
REMARK VINA RESULT:     -10.6      9.269     13.767
REMARK  Name = 11304743
REMARK  5 active torsions:
REMARK  status: ('A' for Active; 'I' for Inactive)
REMARK    1  A    between atoms: C_4  and  C_15
REMARK    2  A    between atoms: C_5  and  N_28
REMARK    3  A    between atoms: N_10  and  C_19
REMARK    4  A    between atoms: C_19  and  C_21
REMARK    5  A    between atoms: C_30  and  O_31
REMARK                            x       y       z     vdW  Elec       q    Type
REMARK                         _______ _______ _______ _____ _____    ______ ____
ROOT
ATOM      1  N   UNL     1      35.280 -25.289 -15.817  0.00  0.00    -0.326 NA
ATOM      2  N   UNL     1      35.756 -23.115 -14.893  0.00  0.00    -0.326 NA
ATOM      3  N   UNL     1      36.608 -27.159 -15.230  0.00  0.00    -0.334 N 
ATOM      4  C   UNL     1      35.063 -23.973 -15.660  0.00  0.00    +0.160 C 
ATOM      5  C   UNL     1      37.113 -25.006 -14.284  0.00  0.00    +0.213 C 
ATOM      6  C   UNL     1      36.320 -25.776 -15.110  0.00  0.00    +0.193 C 
ATOM      7  C   UNL     1      36.781 -23.669 -14.215  0.00  0.00    +0.193 C 
ATOM      8  H   UNL     1      36.056 -27.728 -15.813  0.00  0.00    +0.144 HD
ATOM      9  H   UNL     1      37.362 -27.549 -14.730  0.00  0.00    +0.144 HD
ATOM     10  N   UNL     1      37.557 -22.821 -13.385  0.00  0.00    -0.334 N 
ATOM     11  H   UNL     1      37.339 -21.863 -13.320  0.00  0.00    +0.144 HD
ATOM     12  H   UNL     1      38.314 -23.189 -12.875  0.00  0.00    +0.144 HD
ENDROOT
BRANCH   4  18
ATOM     13  N   UNL     1      32.923 -22.523 -18.000  0.00  0.00    -0.229 N 
ATOM     14  N   UNL     1      34.147 -22.947 -17.638  0.00  0.00    -0.155 NA
ATOM     15  N   UNL     1      30.671 -22.381 -17.129  0.00  0.00    -0.225 NA
ATOM     16  C   UNL     1      32.623 -23.299 -15.968  0.00  0.00    +0.066 A 
ATOM     17  C   UNL     1      31.972 -22.709 -17.041  0.00  0.00    +0.162 A 
ATOM     18  C   UNL     1      33.959 -23.418 -16.401  0.00  0.00    +0.189 A 
ATOM     19  C   UNL     1      31.867 -23.601 -14.830  0.00  0.00    +0.007 C 
ATOM     20  C   UNL     1      30.508 -23.285 -14.861  0.00  0.00    +0.021 C 
ATOM     21  C   UNL     1      29.982 -22.692 -16.005  0.00  0.00    +0.101 C 
BRANCH  13  22
ATOM     22  C   UNL     1      32.731 -21.941 -19.309  0.00  0.00    +0.158 C 
BRANCH  22  24
ATOM     23  F   UNL     1      32.597 -19.576 -20.850  0.00  0.00    -0.204 F 
ATOM     24  C   UNL     1      33.955 -21.190 -19.760  0.00  0.00    +0.030 C 
ATOM     25  C   UNL     1      33.811 -20.034 -20.516  0.00  0.00    +0.138 C 
ATOM     26  C   UNL     1      35.213 -21.666 -19.414  0.00  0.00    -0.000 C 
ATOM     27  C   UNL     1      34.948 -19.341 -20.933  0.00  0.00    +0.029 C 
ATOM     28  C   UNL     1      36.349 -20.973 -19.831  0.00  0.00    -0.000 C 
ATOM     29  C   UNL     1      36.217 -19.811 -20.591  0.00  0.00    +0.002 C 
ENDBRANCH  22  24
ENDBRANCH  13  22
ENDBRANCH   4  18
BRANCH   5  31
ATOM     30  O   UNL     1      39.805 -25.211 -15.254  0.00  0.00    -0.226 OA
ATOM     31  N   UNL     1      38.185 -25.544 -13.568  0.00  0.00    -0.231 N 
ATOM     32  C   UNL     1      38.009 -26.078 -12.183  0.00  0.00    +0.119 C 
ATOM     33  C   UNL     1      39.509 -25.609 -14.130  0.00  0.00    +0.406 C 
BRANCH  33  34
ATOM     34  O   UNL     1      40.439 -26.197 -13.307  0.00  0.00    -0.430 OA
ATOM     35  C   UNL     1      41.324 -27.145 -13.917  0.00  0.00    +0.257 C 
ENDBRANCH  33  34
ENDBRANCH   5  31
TORSDOF 5
ENDMDL
MODEL 5
REMARK VINA RESULT:     -10.3      6.167     10.024
REMARK  Name = 11304743
REMARK  5 active torsions:
REMARK  status: ('A' for Active; 'I' for Inactive)
REMARK    1  A    between atoms: C_4  and  C_15
REMARK    2  A    between atoms: C_5  and  N_28
REMARK    3  A    between atoms: N_10  and  C_19
REMARK    4  A    between atoms: C_19  and  C_21
REMARK    5  A    between atoms: C_30  and  O_31
REMARK                            x       y       z     vdW  Elec       q    Type
REMARK                         _______ _______ _______ _____ _____    ______ ____
ROOT
ATOM      1  N   UNL     1      35.392 -21.564 -18.971  0.00  0.00    -0.326 NA
ATOM      2  N   UNL     1      33.027 -21.219 -19.280  0.00  0.00    -0.326 NA
ATOM      3  N   UNL     1      36.955 -20.492 -20.389  0.00  0.00    -0.334 N 
ATOM      4  C   UNL     1      34.097 -21.754 -18.669  0.00  0.00    +0.160 C 
ATOM      5  C   UNL     1      34.604 -20.119 -20.727  0.00  0.00    +0.213 C 
ATOM      6  C   UNL     1      35.611 -20.735 -20.013  0.00  0.00    +0.193 C 
ATOM      7  C   UNL     1      33.319 -20.401 -20.312  0.00  0.00    +0.193 C 
ATOM      8  H   UNL     1      37.690 -20.919 -19.894  0.00  0.00    +0.144 HD
ATOM      9  H   UNL     1      37.153 -19.894 -21.147  0.00  0.00    +0.144 HD
ATOM     10  N   UNL     1      32.237 -19.802 -21.005  0.00  0.00    -0.334 N 
ATOM     11  H   UNL     1      31.311 -19.989 -20.727  0.00  0.00    +0.144 HD
ATOM     12  H   UNL     1      32.410 -19.200 -21.764  0.00  0.00    +0.144 HD
ENDROOT
BRANCH   4  18
ATOM     13  N   UNL     1      32.739 -23.931 -16.309  0.00  0.00    -0.229 N 
ATOM     14  N   UNL     1      32.619 -23.196 -17.428  0.00  0.00    -0.155 NA
ATOM     15  N   UNL     1      34.372 -24.479 -14.610  0.00  0.00    -0.225 NA
ATOM     16  C   UNL     1      34.716 -23.003 -16.534  0.00  0.00    +0.066 A 
ATOM     17  C   UNL     1      33.971 -23.854 -15.731  0.00  0.00    +0.162 A 
ATOM     18  C   UNL     1      33.825 -22.633 -17.561  0.00  0.00    +0.189 A 
ATOM     19  C   UNL     1      36.040 -22.744 -16.162  0.00  0.00    +0.007 C 
ATOM     20  C   UNL     1      36.514 -23.366 -15.007  0.00  0.00    +0.021 C 
ATOM     21  C   UNL     1      35.658 -24.198 -14.293  0.00  0.00    +0.101 C 
BRANCH  13  22
ATOM     22  C   UNL     1      31.610 -24.702 -15.841  0.00  0.00    +0.158 C 
BRANCH  22  24
ATOM     23  F   UNL     1      31.251 -22.429 -14.201  0.00  0.00    -0.204 F 
ATOM     24  C   UNL     1      30.347 -23.884 -15.844  0.00  0.00    +0.030 C 
ATOM     25  C   UNL     1      30.242 -22.779 -15.011  0.00  0.00    +0.138 C 
ATOM     26  C   UNL     1      29.302 -24.249 -16.683  0.00  0.00    -0.000 C 
ATOM     27  C   UNL     1      29.069 -22.024 -15.016  0.00  0.00    +0.029 C 
ATOM     28  C   UNL     1      28.130 -23.493 -16.688  0.00  0.00    -0.000 C 
ATOM     29  C   UNL     1      28.013 -22.381 -15.854  0.00  0.00    +0.002 C 
ENDBRANCH  22  24
ENDBRANCH  13  22
ENDBRANCH   4  18
BRANCH   5  31
ATOM     30  O   UNL     1      35.292 -17.344 -20.502  0.00  0.00    -0.226 OA
ATOM     31  N   UNL     1      34.868 -19.269 -21.803  0.00  0.00    -0.231 N 
ATOM     32  C   UNL     1      34.812 -19.756 -23.215  0.00  0.00    +0.119 C 
ATOM     33  C   UNL     1      35.208 -17.883 -21.603  0.00  0.00    +0.406 C 
BRANCH  33  34
ATOM     34  O   UNL     1      35.405 -17.180 -22.766  0.00  0.00    -0.430 OA
ATOM     35  C   UNL     1      34.773 -15.896 -22.851  0.00  0.00    +0.257 C 
ENDBRANCH  33  34
ENDBRANCH   5  31
TORSDOF 5
ENDMDL
MODEL 6
REMARK VINA RESULT:     -10.0      1.588      1.958
REMARK  Name = 11304743
REMARK  5 active torsions:
REMARK  status: ('A' for Active; 'I' for Inactive)
REMARK    1  A    between atoms: C_4  and  C_15
REMARK    2  A    between atoms: C_5  and  N_28
REMARK    3  A    between atoms: N_10  and  C_19
REMARK    4  A    between atoms: C_19  and  C_21
REMARK    5  A    between atoms: C_30  and  O_31
REMARK                            x       y       z     vdW  Elec       q    Type
REMARK                         _______ _______ _______ _____ _____    ______ ____
ROOT
ATOM      1  N   UNL     1      34.035 -14.131 -23.866  0.00  0.00    -0.326 NA
ATOM      2  N   UNL     1      33.298 -14.343 -21.582  0.00  0.00    -0.326 NA
ATOM      3  N   UNL     1      33.640 -12.132 -25.073  0.00  0.00    -0.334 N 
ATOM      4  C   UNL     1      33.888 -14.787 -22.704  0.00  0.00    +0.160 C 
ATOM      5  C   UNL     1      32.893 -12.304 -22.794  0.00  0.00    +0.213 C 
ATOM      6  C   UNL     1      33.522 -12.882 -23.876  0.00  0.00    +0.193 C 
ATOM      7  C   UNL     1      32.809 -13.089 -21.662  0.00  0.00    +0.193 C 
ATOM      8  H   UNL     1      34.086 -12.524 -25.858  0.00  0.00    +0.144 HD
ATOM      9  H   UNL     1      33.276 -11.218 -25.118  0.00  0.00    +0.144 HD
ATOM     10  N   UNL     1      32.171 -12.555 -20.514  0.00  0.00    -0.334 N 
ATOM     11  H   UNL     1      32.099 -13.097 -19.695  0.00  0.00    +0.144 HD
ATOM     12  H   UNL     1      31.801 -11.643 -20.535  0.00  0.00    +0.144 HD
ENDROOT
BRANCH   4  18
ATOM     13  N   UNL     1      35.368 -17.830 -21.862  0.00  0.00    -0.229 N 
ATOM     14  N   UNL     1      34.997 -16.578 -21.537  0.00  0.00    -0.155 NA
ATOM     15  N   UNL     1      35.301 -19.362 -23.733  0.00  0.00    -0.225 NA
ATOM     16  C   UNL     1      34.425 -17.075 -23.696  0.00  0.00    +0.066 A 
ATOM     17  C   UNL     1      35.051 -18.181 -23.141  0.00  0.00    +0.162 A 
ATOM     18  C   UNL     1      34.424 -16.123 -22.656  0.00  0.00    +0.189 A 
ATOM     19  C   UNL     1      33.992 -17.165 -25.023  0.00  0.00    +0.007 C 
ATOM     20  C   UNL     1      34.222 -18.368 -25.691  0.00  0.00    +0.021 C 
ATOM     21  C   UNL     1      34.863 -19.400 -25.014  0.00  0.00    +0.101 C 
BRANCH  13  22
ATOM     22  C   UNL     1      36.032 -18.653 -20.877  0.00  0.00    +0.158 C 
BRANCH  22  24
ATOM     23  F   UNL     1      37.050 -21.041 -19.760  0.00  0.00    -0.204 F 
ATOM     24  C   UNL     1      35.148 -19.782 -20.420  0.00  0.00    +0.030 C 
ATOM     25  C   UNL     1      35.720 -20.926 -19.880  0.00  0.00    +0.138 C 
ATOM     26  C   UNL     1      33.770 -19.662 -20.546  0.00  0.00    -0.000 C 
ATOM     27  C   UNL     1      34.897 -21.971 -19.458  0.00  0.00    +0.029 C 
ATOM     28  C   UNL     1      32.949 -20.707 -20.124  0.00  0.00    -0.000 C 
ATOM     29  C   UNL     1      33.512 -21.862 -19.580  0.00  0.00    +0.002 C 
ENDBRANCH  22  24
ENDBRANCH  13  22
ENDBRANCH   4  18
BRANCH   5  31
ATOM     30  O   UNL     1      34.384  -9.951 -23.478  0.00  0.00    -0.226 OA
ATOM     31  N   UNL     1      32.370 -11.009 -22.841  0.00  0.00    -0.231 N 
ATOM     32  C   UNL     1      30.935 -10.735 -22.528  0.00  0.00    +0.119 C 
ATOM     33  C   UNL     1      33.190  -9.879 -23.196  0.00  0.00    +0.406 C 
BRANCH  33  34
ATOM     34  O   UNL     1      32.530  -8.675 -23.163  0.00  0.00    -0.430 OA
ATOM     35  C   UNL     1      33.113  -7.649 -22.351  0.00  0.00    +0.257 C 
ENDBRANCH  33  34
ENDBRANCH   5  31
TORSDOF 5
ENDMDL
MODEL 7
REMARK VINA RESULT:      -9.9      1.210      1.537
REMARK  Name = 11304743
REMARK  5 active torsions:
REMARK  status: ('A' for Active; 'I' for Inactive)
REMARK    1  A    between atoms: C_4  and  C_15
REMARK    2  A    between atoms: C_5  and  N_28
REMARK    3  A    between atoms: N_10  and  C_19
REMARK    4  A    between atoms: C_19  and  C_21
REMARK    5  A    between atoms: C_30  and  O_31
REMARK                            x       y       z     vdW  Elec       q    Type
REMARK                         _______ _______ _______ _____ _____    ______ ____
ROOT
ATOM      1  N   UNL     1      33.809 -11.339 -23.538  0.00  0.00    -0.326 NA
ATOM      2  N   UNL     1      32.130 -12.202 -22.041  0.00  0.00    -0.326 NA
ATOM      3  N   UNL     1      33.981  -9.010 -23.933  0.00  0.00    -0.334 N 
ATOM      4  C   UNL     1      33.162 -12.322 -22.892  0.00  0.00    +0.160 C 
ATOM      5  C   UNL     1      32.294  -9.833 -22.429  0.00  0.00    +0.213 C 
ATOM      6  C   UNL     1      33.346 -10.097 -23.282  0.00  0.00    +0.193 C 
ATOM      7  C   UNL     1      31.718 -10.935 -21.831  0.00  0.00    +0.193 C 
ATOM      8  H   UNL     1      34.733  -9.175 -24.544  0.00  0.00    +0.144 HD
ATOM      9  H   UNL     1      33.668  -8.090 -23.771  0.00  0.00    +0.144 HD
ATOM     10  N   UNL     1      30.631 -10.733 -20.945  0.00  0.00    -0.334 N 
ATOM     11  H   UNL     1      30.203 -11.504 -20.506  0.00  0.00    +0.144 HD
ATOM     12  H   UNL     1      30.302  -9.822 -20.767  0.00  0.00    +0.144 HD
ENDROOT
BRANCH   4  18
ATOM     13  N   UNL     1      34.593 -15.500 -22.784  0.00  0.00    -0.229 N 
ATOM     14  N   UNL     1      34.341 -14.309 -22.211  0.00  0.00    -0.155 NA
ATOM     15  N   UNL     1      34.166 -16.701 -24.840  0.00  0.00    -0.225 NA
ATOM     16  C   UNL     1      33.425 -14.429 -24.305  0.00  0.00    +0.066 A 
ATOM     17  C   UNL     1      34.070 -15.627 -24.037  0.00  0.00    +0.162 A 
ATOM     18  C   UNL     1      33.630 -13.662 -23.141  0.00  0.00    +0.189 A 
ATOM     19  C   UNL     1      32.793 -14.289 -25.545  0.00  0.00    +0.007 C 
ATOM     20  C   UNL     1      32.858 -15.372 -26.422  0.00  0.00    +0.021 C 
ATOM     21  C   UNL     1      33.539 -16.518 -26.027  0.00  0.00    +0.101 C 
BRANCH  13  22
ATOM     22  C   UNL     1      35.355 -16.490 -22.059  0.00  0.00    +0.158 C 
BRANCH  22  24
ATOM     23  F   UNL     1      36.218 -19.174 -21.868  0.00  0.00    -0.204 F 
ATOM     24  C   UNL     1      34.472 -17.598 -21.551  0.00  0.00    +0.030 C 
ATOM     25  C   UNL     1      34.965 -18.894 -21.485  0.00  0.00    +0.138 C 
ATOM     26  C   UNL     1      33.173 -17.306 -21.156  0.00  0.00    -0.000 C 
ATOM     27  C   UNL     1      34.142 -19.918 -21.015  0.00  0.00    +0.029 C 
ATOM     28  C   UNL     1      32.351 -18.330 -20.686  0.00  0.00    -0.000 C 
ATOM     29  C   UNL     1      32.836 -19.637 -20.615  0.00  0.00    +0.002 C 
ENDBRANCH  22  24
ENDBRANCH  13  22
ENDBRANCH   4  18
BRANCH   5  31
ATOM     30  O   UNL     1      30.778  -8.251 -24.281  0.00  0.00    -0.226 OA
ATOM     31  N   UNL     1      31.839  -8.534 -22.190  0.00  0.00    -0.231 N 
ATOM     32  C   UNL     1      32.115  -7.836 -20.897  0.00  0.00    +0.119 C 
ATOM     33  C   UNL     1      31.081  -7.808 -23.176  0.00  0.00    +0.406 C 
BRANCH  33  34
ATOM     34  O   UNL     1      30.739  -6.533 -22.794  0.00  0.00    -0.430 OA
ATOM     35  C   UNL     1      31.168  -5.471 -23.656  0.00  0.00    +0.257 C 
ENDBRANCH  33  34
ENDBRANCH   5  31
TORSDOF 5
ENDMDL
MODEL 8
REMARK VINA RESULT:      -9.6      6.631     10.183
REMARK  Name = 11304743
REMARK  5 active torsions:
REMARK  status: ('A' for Active; 'I' for Inactive)
REMARK    1  A    between atoms: C_4  and  C_15
REMARK    2  A    between atoms: C_5  and  N_28
REMARK    3  A    between atoms: N_10  and  C_19
REMARK    4  A    between atoms: C_19  and  C_21
REMARK    5  A    between atoms: C_30  and  O_31
REMARK                            x       y       z     vdW  Elec       q    Type
REMARK                         _______ _______ _______ _____ _____    ______ ____
ROOT
ATOM      1  N   UNL     1      36.405 -20.958 -19.082  0.00  0.00    -0.326 NA
ATOM      2  N   UNL     1      34.030 -21.354 -19.169  0.00  0.00    -0.326 NA
ATOM      3  N   UNL     1      37.437 -19.513 -20.648  0.00  0.00    -0.334 N 
ATOM      4  C   UNL     1      35.261 -21.519 -18.658  0.00  0.00    +0.160 C 
ATOM      5  C   UNL     1      35.064 -19.881 -20.765  0.00  0.00    +0.213 C 
ATOM      6  C   UNL     1      36.269 -20.138 -20.146  0.00  0.00    +0.193 C 
ATOM      7  C   UNL     1      33.967 -20.523 -20.229  0.00  0.00    +0.193 C 
ATOM      8  H   UNL     1      38.308 -19.681 -20.222  0.00  0.00    +0.144 HD
ATOM      9  H   UNL     1      37.376 -18.909 -21.425  0.00  0.00    +0.144 HD
ATOM     10  N   UNL     1      32.697 -20.303 -20.821  0.00  0.00    -0.334 N 
ATOM     11  H   UNL     1      31.900 -20.752 -20.456  0.00  0.00    +0.144 HD
ATOM     12  H   UNL     1      32.612 -19.704 -21.597  0.00  0.00    +0.144 HD
ENDROOT
BRANCH   4  18
ATOM     13  N   UNL     1      36.278 -23.572 -16.030  0.00  0.00    -0.229 N 
ATOM     14  N   UNL     1      36.569 -22.772 -17.071  0.00  0.00    -0.155 NA
ATOM     15  N   UNL     1      34.364 -24.455 -14.843  0.00  0.00    -0.225 NA
ATOM     16  C   UNL     1      34.308 -22.956 -16.779  0.00  0.00    +0.066 A 
ATOM     17  C   UNL     1      34.940 -23.718 -15.809  0.00  0.00    +0.162 A 
ATOM     18  C   UNL     1      35.367 -22.400 -17.524  0.00  0.00    +0.189 A 
ATOM     19  C   UNL     1      32.908 -22.929 -16.782  0.00  0.00    +0.007 C 
ATOM     20  C   UNL     1      32.253 -23.675 -15.802  0.00  0.00    +0.021 C 
ATOM     21  C   UNL     1      33.011 -24.397 -14.887  0.00  0.00    +0.101 C 
BRANCH  13  22
ATOM     22  C   UNL     1      37.351 -24.173 -15.273  0.00  0.00    +0.158 C 
BRANCH  22  24
ATOM     23  F   UNL     1      36.738 -26.494 -13.782  0.00  0.00    -0.204 F 
ATOM     24  C   UNL     1      37.065 -24.142 -13.795  0.00  0.00    +0.030 C 
ATOM     25  C   UNL     1      36.771 -25.324 -13.129  0.00  0.00    +0.138 C 
ATOM     26  C   UNL     1      37.098 -22.930 -13.120  0.00  0.00    -0.000 C 
ATOM     27  C   UNL     1      36.505 -25.292 -11.760  0.00  0.00    +0.029 C 
ATOM     28  C   UNL     1      36.832 -22.898 -11.751  0.00  0.00    -0.000 C 
ATOM     29  C   UNL     1      36.535 -24.079 -11.071  0.00  0.00    +0.002 C 
ENDBRANCH  22  24
ENDBRANCH  13  22
ENDBRANCH   4  18
BRANCH   5  31
ATOM     30  O   UNL     1      35.136 -17.015 -20.643  0.00  0.00    -0.226 OA
ATOM     31  N   UNL     1      34.961 -19.028 -21.867  0.00  0.00    -0.231 N 
ATOM     32  C   UNL     1      34.799 -19.561 -23.254  0.00  0.00    +0.119 C 
ATOM     33  C   UNL     1      35.007 -17.596 -21.718  0.00  0.00    +0.406 C 
BRANCH  33  34
ATOM     34  O   UNL     1      34.859 -16.905 -22.896  0.00  0.00    -0.430 OA
ATOM     35  C   UNL     1      34.555 -15.508 -22.783  0.00  0.00    +0.257 C 
ENDBRANCH  33  34
ENDBRANCH   5  31
TORSDOF 5
ENDMDL
MODEL 9
REMARK VINA RESULT:      -9.6      5.808      9.390
REMARK  Name = 11304743
REMARK  5 active torsions:
REMARK  status: ('A' for Active; 'I' for Inactive)
REMARK    1  A    between atoms: C_4  and  C_15
REMARK    2  A    between atoms: C_5  and  N_28
REMARK    3  A    between atoms: N_10  and  C_19
REMARK    4  A    between atoms: C_19  and  C_21
REMARK    5  A    between atoms: C_30  and  O_31
REMARK                            x       y       z     vdW  Elec       q    Type
REMARK                         _______ _______ _______ _____ _____    ______ ____
ROOT
ATOM      1  N   UNL     1      36.042 -20.503 -19.846  0.00  0.00    -0.326 NA
ATOM      2  N   UNL     1      33.636 -20.498 -19.986  0.00  0.00    -0.326 NA
ATOM      3  N   UNL     1      37.327 -19.097 -21.252  0.00  0.00    -0.334 N 
ATOM      4  C   UNL     1      34.813 -20.911 -19.488  0.00  0.00    +0.160 C 
ATOM      5  C   UNL     1      34.929 -19.061 -21.418  0.00  0.00    +0.213 C 
ATOM      6  C   UNL     1      36.063 -19.571 -20.822  0.00  0.00    +0.193 C 
ATOM      7  C   UNL     1      33.731 -19.566 -20.956  0.00  0.00    +0.193 C 
ATOM      8  H   UNL     1      38.150 -19.446 -20.840  0.00  0.00    +0.144 HD
ATOM      9  H   UNL     1      37.382 -18.418 -21.963  0.00  0.00    +0.144 HD
ATOM     10  N   UNL     1      32.527 -19.085 -21.529  0.00  0.00    -0.334 N 
ATOM     11  H   UNL     1      31.660 -19.431 -21.215  0.00  0.00    +0.144 HD
ATOM     12  H   UNL     1      32.557 -18.405 -22.240  0.00  0.00    +0.144 HD
ENDROOT
BRANCH   4  18
ATOM     13  N   UNL     1      33.965 -23.460 -17.265  0.00  0.00    -0.229 N 
ATOM     14  N   UNL     1      33.663 -22.671 -18.312  0.00  0.00    -0.155 NA
ATOM     15  N   UNL     1      35.759 -23.857 -15.692  0.00  0.00    -0.225 NA
ATOM     16  C   UNL     1      35.748 -22.199 -17.495  0.00  0.00    +0.066 A 
ATOM     17  C   UNL     1      35.199 -23.222 -16.737  0.00  0.00    +0.162 A 
ATOM     18  C   UNL     1      34.751 -21.905 -18.447  0.00  0.00    +0.189 A 
ATOM     19  C   UNL     1      37.031 -21.752 -17.161  0.00  0.00    +0.007 C 
ATOM     20  C   UNL     1      37.665 -22.374 -16.084  0.00  0.00    +0.021 C 
ATOM     21  C   UNL     1      36.998 -23.390 -15.408  0.00  0.00    +0.101 C 
BRANCH  13  22
ATOM     22  C   UNL     1      33.005 -24.443 -16.817  0.00  0.00    +0.158 C 
BRANCH  22  24
ATOM     23  F   UNL     1      33.156 -24.557 -13.997  0.00  0.00    -0.204 F 
ATOM     24  C   UNL     1      31.967 -23.827 -15.918  0.00  0.00    +0.030 C 
ATOM     25  C   UNL     1      32.108 -23.923 -14.540  0.00  0.00    +0.138 C 
ATOM     26  C   UNL     1      30.881 -23.170 -16.482  0.00  0.00    -0.000 C 
ATOM     27  C   UNL     1      31.143 -23.351 -13.711  0.00  0.00    +0.029 C 
ATOM     28  C   UNL     1      29.917 -22.599 -15.652  0.00  0.00    -0.000 C 
ATOM     29  C   UNL     1      30.048 -22.690 -14.266  0.00  0.00    +0.002 C 
ENDBRANCH  22  24
ENDBRANCH  13  22
ENDBRANCH   4  18
BRANCH   5  31
ATOM     30  O   UNL     1      35.003 -19.624 -24.230  0.00  0.00    -0.226 OA
ATOM     31  N   UNL     1      34.989 -18.097 -22.428  0.00  0.00    -0.231 N 
ATOM     32  C   UNL     1      35.020 -16.637 -22.113  0.00  0.00    +0.119 C 
ATOM     33  C   UNL     1      35.023 -18.466 -23.820  0.00  0.00    +0.406 C 
BRANCH  33  34
ATOM     34  O   UNL     1      35.114 -17.400 -24.681  0.00  0.00    -0.430 OA
ATOM     35  C   UNL     1      33.975 -17.152 -25.514  0.00  0.00    +0.257 C 
ENDBRANCH  33  34
ENDBRANCH   5  31
TORSDOF 5
ENDMDL
