MODEL 1
REMARK VINA RESULT:      -9.4      0.000      0.000
REMARK  Name = 446641
REMARK  6 active torsions:
REMARK  status: ('A' for Active; 'I' for Inactive)
REMARK    1  A    between atoms: N_2  and  CA_5
REMARK    2  A    between atoms: C_3  and  C_13
REMARK    3  A    between atoms: CA_5  and  CB_6
REMARK    4  A    between atoms: CA_5  and  C_10
REMARK    5  A    between atoms: C_10  and  O_11
REMARK    6  A    between atoms: C_13  and  C_15
REMARK                            x       y       z     vdW  Elec       q    Type
REMARK                         _______ _______ _______ _____ _____    ______ ____
ROOT
ATOM      1  O   UNL     1      37.636 -22.895 -13.902  0.00  0.00    -0.275 OA
ATOM      2  N   UNL     1      38.526 -24.469 -15.359  0.00  0.00    -0.297 N 
ATOM      3  C   ACE A   0      37.896 -23.274 -15.041  0.00  0.00    +0.227 C 
ATOM      4  H   UNL     1      38.687 -24.678 -16.308  0.00  0.00    +0.150 HD
ENDROOT
BRANCH   2   5
ATOM      5  CA  UNL     1      38.954 -25.422 -14.361  0.00  0.00    +0.171 C 
BRANCH   5   6
ATOM      6  CB  UNL     1      37.824 -26.433 -14.068  0.00  0.00    +0.029 C 
ATOM      7  CG1 UNL     1      36.862 -26.583 -15.249  0.00  0.00    +0.002 C 
ATOM      8  CG2 UNL     1      37.046 -26.114 -12.788  0.00  0.00    +0.002 C 
ENDBRANCH   5   6
BRANCH   5  10
ATOM      9  OXT UNL     1      41.069 -26.544 -13.946  0.00  0.00    -0.248 OA
ATOM     10  C   UNL     1      40.283 -26.060 -14.754  0.00  0.00    +0.332 C 
BRANCH  10  11
ATOM     11  O   UNL     1      40.564 -26.008 -16.080  0.00  0.00    -0.479 OA
ATOM     12  H   UNL     1      39.929 -25.667 -16.679  0.00  0.00    +0.295 HD
ENDBRANCH  10  11
ENDBRANCH   5  10
ENDBRANCH   2   5
BRANCH   3  13
ATOM     13  C   UNL     1      37.544 -22.482 -16.289  0.00  0.00    +0.113 C 
BRANCH  13  15
ATOM     14  N   UNL     1      33.996 -23.256 -16.663  0.00  0.00    -0.312 N 
ATOM     15  C   UNL     1      36.112 -22.650 -16.687  0.00  0.00    +0.003 C 
ATOM     16  C   UNL     1      35.512 -22.136 -17.857  0.00  0.00    +0.011 C 
ATOM     17  C   UNL     1      34.173 -22.532 -17.821  0.00  0.00    +0.048 C 
ATOM     18  C   UNL     1      35.173 -23.332 -15.968  0.00  0.00    +0.058 C 
ATOM     19  C   UNL     1      35.963 -21.372 -18.951  0.00  0.00    +0.001 C 
ATOM     20  C   UNL     1      33.260 -22.201 -18.828  0.00  0.00    +0.015 C 
ATOM     21  C   UNL     1      35.060 -21.034 -19.966  0.00  0.00    +0.000 C 
ATOM     22  C   UNL     1      33.730 -21.442 -19.903  0.00  0.00    +0.001 C 
ATOM     23  H   UNL     1      33.146 -23.661 -16.376  0.00  0.00    +0.152 HD
ENDBRANCH  13  15
ENDBRANCH   3  13
TORSDOF 6
ENDMDL
MODEL 2
REMARK VINA RESULT:      -9.1      8.353     11.050
REMARK  Name = 446641
REMARK  6 active torsions:
REMARK  status: ('A' for Active; 'I' for Inactive)
REMARK    1  A    between atoms: N_2  and  CA_5
REMARK    2  A    between atoms: C_3  and  C_13
REMARK    3  A    between atoms: CA_5  and  CB_6
REMARK    4  A    between atoms: CA_5  and  C_10
REMARK    5  A    between atoms: C_10  and  O_11
REMARK    6  A    between atoms: C_13  and  C_15
REMARK                            x       y       z     vdW  Elec       q    Type
REMARK                         _______ _______ _______ _____ _____    ______ ____
ROOT
ATOM      1  O   UNL     1      35.018 -15.695 -20.480  0.00  0.00    -0.275 OA
ATOM      2  N   UNL     1      33.681 -17.404 -21.306  0.00  0.00    -0.297 N 
ATOM      3  C   ACE A   0      33.914 -16.138 -20.786  0.00  0.00    +0.227 C 
ATOM      4  H   UNL     1      32.754 -17.662 -21.519  0.00  0.00    +0.150 HD
ENDROOT
BRANCH   2   5
ATOM      5  CA  UNL     1      34.736 -18.361 -21.549  0.00  0.00    +0.171 C 
BRANCH   5   6
ATOM      6  CB  UNL     1      34.260 -19.784 -21.185  0.00  0.00    +0.029 C 
ATOM      7  CG1 UNL     1      32.858 -19.785 -20.569  0.00  0.00    +0.002 C 
ATOM      8  CG2 UNL     1      35.239 -20.535 -20.277  0.00  0.00    +0.002 C 
ENDBRANCH   5   6
BRANCH   5  10
ATOM      9  OXT UNL     1      35.169 -19.093 -23.825  0.00  0.00    -0.248 OA
ATOM     10  C   UNL     1      35.280 -18.223 -22.968  0.00  0.00    +0.332 C 
BRANCH  10  11
ATOM     11  O   UNL     1      35.952 -17.069 -23.205  0.00  0.00    -0.479 OA
ATOM     12  H   UNL     1      36.389 -16.942 -24.024  0.00  0.00    +0.295 HD
ENDBRANCH  10  11
ENDBRANCH   5  10
ENDBRANCH   2   5
BRANCH   3  13
ATOM     13  C   UNL     1      32.622 -15.358 -20.622  0.00  0.00    +0.113 C 
BRANCH  13  15
ATOM     14  N   UNL     1      32.603 -12.988 -23.399  0.00  0.00    -0.312 N 
ATOM     15  C   UNL     1      32.532 -14.197 -21.560  0.00  0.00    +0.003 C 
ATOM     16  C   UNL     1      32.164 -12.878 -21.214  0.00  0.00    +0.011 C 
ATOM     17  C   UNL     1      32.216 -12.131 -22.393  0.00  0.00    +0.048 C 
ATOM     18  C   UNL     1      32.798 -14.248 -22.898  0.00  0.00    +0.058 C 
ATOM     19  C   UNL     1      31.790 -12.233 -20.019  0.00  0.00    +0.001 C 
ATOM     20  C   UNL     1      31.911 -10.766 -22.436  0.00  0.00    +0.015 C 
ATOM     21  C   UNL     1      31.481 -10.868 -20.047  0.00  0.00    +0.000 C 
ATOM     22  C   UNL     1      31.542 -10.148 -21.239  0.00  0.00    +0.001 C 
ATOM     23  H   UNL     1      32.723 -12.732 -24.341  0.00  0.00    +0.152 HD
ENDBRANCH  13  15
ENDBRANCH   3  13
TORSDOF 6
ENDMDL
MODEL 3
REMARK VINA RESULT:      -8.9      6.248     10.359
REMARK  Name = 446641
REMARK  6 active torsions:
REMARK  status: ('A' for Active; 'I' for Inactive)
REMARK    1  A    between atoms: N_2  and  CA_5
REMARK    2  A    between atoms: C_3  and  C_13
REMARK    3  A    between atoms: CA_5  and  CB_6
REMARK    4  A    between atoms: CA_5  and  C_10
REMARK    5  A    between atoms: C_10  and  O_11
REMARK    6  A    between atoms: C_13  and  C_15
REMARK                            x       y       z     vdW  Elec       q    Type
REMARK                         _______ _______ _______ _____ _____    ______ ____
ROOT
ATOM      1  O   UNL     1      35.315 -16.769 -20.434  0.00  0.00    -0.275 OA
ATOM      2  N   UNL     1      34.095 -16.564 -22.399  0.00  0.00    -0.297 N 
ATOM      3  C   ACE A   0      34.867 -17.250 -21.472  0.00  0.00    +0.227 C 
ATOM      4  H   UNL     1      33.785 -17.045 -23.201  0.00  0.00    +0.150 HD
ENDROOT
BRANCH   2   5
ATOM      5  CA  UNL     1      33.726 -15.176 -22.241  0.00  0.00    +0.171 C 
BRANCH   5   6
ATOM      6  CB  UNL     1      33.346 -14.566 -23.608  0.00  0.00    +0.029 C 
ATOM      7  CG1 UNL     1      33.744 -15.472 -24.777  0.00  0.00    +0.002 C 
ATOM      8  CG2 UNL     1      33.905 -13.155 -23.817  0.00  0.00    +0.002 C 
ENDBRANCH   5   6
BRANCH   5  10
ATOM      9  OXT UNL     1      31.857 -15.895 -20.866  0.00  0.00    -0.248 OA
ATOM     10  C   UNL     1      32.659 -15.016 -21.162  0.00  0.00    +0.332 C 
BRANCH  10  11
ATOM     11  O   UNL     1      32.626 -13.792 -20.578  0.00  0.00    -0.479 OA
ATOM     12  H   UNL     1      32.002 -13.614 -19.901  0.00  0.00    +0.295 HD
ENDBRANCH  10  11
ENDBRANCH   5  10
ENDBRANCH   2   5
BRANCH   3  13
ATOM     13  C   UNL     1      35.112 -18.685 -21.905  0.00  0.00    +0.113 C 
BRANCH  13  15
ATOM     14  N   UNL     1      32.656 -20.838 -20.274  0.00  0.00    -0.312 N 
ATOM     15  C   UNL     1      34.332 -19.668 -21.092  0.00  0.00    +0.003 C 
ATOM     16  C   UNL     1      34.862 -20.543 -20.118  0.00  0.00    +0.011 C 
ATOM     17  C   UNL     1      33.783 -21.273 -19.614  0.00  0.00    +0.048 C 
ATOM     18  C   UNL     1      32.983 -19.860 -21.175  0.00  0.00    +0.058 C 
ATOM     19  C   UNL     1      36.150 -20.796 -19.606  0.00  0.00    +0.001 C 
ATOM     20  C   UNL     1      33.929 -22.247 -18.620  0.00  0.00    +0.015 C 
ATOM     21  C   UNL     1      36.310 -21.768 -18.611  0.00  0.00    +0.000 C 
ATOM     22  C   UNL     1      35.215 -22.481 -18.128  0.00  0.00    +0.001 C 
ATOM     23  H   UNL     1      31.746 -21.180 -20.121  0.00  0.00    +0.152 HD
ENDBRANCH  13  15
ENDBRANCH   3  13
TORSDOF 6
ENDMDL
MODEL 4
REMARK VINA RESULT:      -8.8      2.847      4.404
REMARK  Name = 446641
REMARK  6 active torsions:
REMARK  status: ('A' for Active; 'I' for Inactive)
REMARK    1  A    between atoms: N_2  and  CA_5
REMARK    2  A    between atoms: C_3  and  C_13
REMARK    3  A    between atoms: CA_5  and  CB_6
REMARK    4  A    between atoms: CA_5  and  C_10
REMARK    5  A    between atoms: C_10  and  O_11
REMARK    6  A    between atoms: C_13  and  C_15
REMARK                            x       y       z     vdW  Elec       q    Type
REMARK                         _______ _______ _______ _____ _____    ______ ____
ROOT
ATOM      1  O   UNL     1      35.547 -25.589 -15.447  0.00  0.00    -0.275 OA
ATOM      2  N   UNL     1      36.062 -24.028 -13.808  0.00  0.00    -0.297 N 
ATOM      3  C   ACE A   0      35.713 -24.426 -15.091  0.00  0.00    +0.227 C 
ATOM      4  H   UNL     1      36.170 -23.066 -13.626  0.00  0.00    +0.150 HD
ENDROOT
BRANCH   2   5
ATOM      5  CA  UNL     1      36.276 -24.963 -12.726  0.00  0.00    +0.171 C 
BRANCH   5   6
ATOM      6  CB  UNL     1      37.779 -25.047 -12.382  0.00  0.00    +0.029 C 
ATOM      7  CG1 UNL     1      38.350 -23.694 -11.947  0.00  0.00    +0.002 C 
ATOM      8  CG2 UNL     1      38.624 -25.639 -13.513  0.00  0.00    +0.002 C 
ENDBRANCH   5   6
BRANCH   5  10
ATOM      9  OXT UNL     1      35.347 -25.294 -10.506  0.00  0.00    -0.248 OA
ATOM     10  C   UNL     1      35.376 -24.634 -11.538  0.00  0.00    +0.332 C 
BRANCH  10  11
ATOM     11  O   UNL     1      34.558 -23.569 -11.728  0.00  0.00    -0.479 OA
ATOM     12  H   UNL     1      33.961 -23.311 -11.053  0.00  0.00    +0.295 HD
ENDBRANCH  10  11
ENDBRANCH   5  10
ENDBRANCH   2   5
BRANCH   3  13
ATOM     13  C   UNL     1      35.572 -23.234 -16.022  0.00  0.00    +0.113 C 
BRANCH  13  15
ATOM     14  N   UNL     1      32.529 -22.857 -18.004  0.00  0.00    -0.312 N 
ATOM     15  C   UNL     1      34.191 -23.106 -16.581  0.00  0.00    +0.003 C 
ATOM     16  C   UNL     1      32.990 -23.148 -15.840  0.00  0.00    +0.011 C 
ATOM     17  C   UNL     1      31.952 -22.988 -16.761  0.00  0.00    +0.048 C 
ATOM     18  C   UNL     1      33.893 -22.928 -17.902  0.00  0.00    +0.058 C 
ATOM     19  C   UNL     1      32.669 -23.304 -14.477  0.00  0.00    +0.001 C 
ATOM     20  C   UNL     1      30.604 -22.978 -16.385  0.00  0.00    +0.015 C 
ATOM     21  C   UNL     1      31.324 -23.296 -14.087  0.00  0.00    +0.000 C 
ATOM     22  C   UNL     1      30.310 -23.135 -15.029  0.00  0.00    +0.001 C 
ATOM     23  H   UNL     1      32.034 -22.731 -18.845  0.00  0.00    +0.152 HD
ENDBRANCH  13  15
ENDBRANCH   3  13
TORSDOF 6
ENDMDL
MODEL 5
REMARK VINA RESULT:      -8.8      6.843     10.952
REMARK  Name = 446641
REMARK  6 active torsions:
REMARK  status: ('A' for Active; 'I' for Inactive)
REMARK    1  A    between atoms: N_2  and  CA_5
REMARK    2  A    between atoms: C_3  and  C_13
REMARK    3  A    between atoms: CA_5  and  CB_6
REMARK    4  A    between atoms: CA_5  and  C_10
REMARK    5  A    between atoms: C_10  and  O_11
REMARK    6  A    between atoms: C_13  and  C_15
REMARK                            x       y       z     vdW  Elec       q    Type
REMARK                         _______ _______ _______ _____ _____    ______ ____
ROOT
ATOM      1  O   UNL     1      35.082 -16.116 -20.711  0.00  0.00    -0.275 OA
ATOM      2  N   UNL     1      34.227 -15.572 -22.800  0.00  0.00    -0.297 N 
ATOM      3  C   ACE A   0      34.893 -16.385 -21.894  0.00  0.00    +0.227 C 
ATOM      4  H   UNL     1      34.130 -15.884 -23.730  0.00  0.00    +0.150 HD
ENDROOT
BRANCH   2   5
ATOM      5  CA  UNL     1      33.669 -14.288 -22.441  0.00  0.00    +0.171 C 
BRANCH   5   6
ATOM      6  CB  UNL     1      33.100 -13.585 -23.693  0.00  0.00    +0.029 C 
ATOM      7  CG1 UNL     1      33.202 -14.460 -24.945  0.00  0.00    +0.002 C 
ATOM      8  CG2 UNL     1      33.728 -12.213 -23.953  0.00  0.00    +0.002 C 
ENDBRANCH   5   6
BRANCH   5  10
ATOM      9  OXT UNL     1      32.507 -13.571 -20.432  0.00  0.00    -0.248 OA
ATOM     10  C   UNL     1      32.676 -14.429 -21.292  0.00  0.00    +0.332 C 
BRANCH  10  11
ATOM     11  O   UNL     1      32.017 -15.614 -21.258  0.00  0.00    -0.479 OA
ATOM     12  H   UNL     1      31.759 -15.982 -20.436  0.00  0.00    +0.295 HD
ENDBRANCH  10  11
ENDBRANCH   5  10
ENDBRANCH   2   5
BRANCH   3  13
ATOM     13  C   UNL     1      35.385 -17.663 -22.552  0.00  0.00    +0.113 C 
BRANCH  13  15
ATOM     14  N   UNL     1      36.808 -20.065 -20.199  0.00  0.00    -0.312 N 
ATOM     15  C   UNL     1      35.696 -18.735 -21.556  0.00  0.00    +0.003 C 
ATOM     16  C   UNL     1      34.760 -19.603 -20.954  0.00  0.00    +0.011 C 
ATOM     17  C   UNL     1      35.486 -20.436 -20.099  0.00  0.00    +0.048 C 
ATOM     18  C   UNL     1      36.943 -19.030 -21.085  0.00  0.00    +0.058 C 
ATOM     19  C   UNL     1      33.364 -19.774 -21.042  0.00  0.00    +0.001 C 
ATOM     20  C   UNL     1      34.883 -21.434 -19.325  0.00  0.00    +0.015 C 
ATOM     21  C   UNL     1      32.748 -20.768 -20.273  0.00  0.00    +0.000 C 
ATOM     22  C   UNL     1      33.498 -21.584 -19.428  0.00  0.00    +0.001 C 
ATOM     23  H   UNL     1      37.549 -20.483 -19.705  0.00  0.00    +0.152 HD
ENDBRANCH  13  15
ENDBRANCH   3  13
TORSDOF 6
ENDMDL
MODEL 6
REMARK VINA RESULT:      -8.6      2.145      2.909
REMARK  Name = 446641
REMARK  6 active torsions:
REMARK  status: ('A' for Active; 'I' for Inactive)
REMARK    1  A    between atoms: N_2  and  CA_5
REMARK    2  A    between atoms: C_3  and  C_13
REMARK    3  A    between atoms: CA_5  and  CB_6
REMARK    4  A    between atoms: CA_5  and  C_10
REMARK    5  A    between atoms: C_10  and  O_11
REMARK    6  A    between atoms: C_13  and  C_15
REMARK                            x       y       z     vdW  Elec       q    Type
REMARK                         _______ _______ _______ _____ _____    ______ ____
ROOT
ATOM      1  O   UNL     1      37.635 -22.495 -14.936  0.00  0.00    -0.275 OA
ATOM      2  N   UNL     1      37.877 -24.804 -14.916  0.00  0.00    -0.297 N 
ATOM      3  C   ACE A   0      37.239 -23.616 -15.244  0.00  0.00    +0.227 C 
ATOM      4  H   UNL     1      37.475 -25.652 -15.214  0.00  0.00    +0.150 HD
ENDROOT
BRANCH   2   5
ATOM      5  CA  UNL     1      39.107 -24.853 -14.158  0.00  0.00    +0.171 C 
BRANCH   5   6
ATOM      6  CB  UNL     1      38.804 -25.128 -12.669  0.00  0.00    +0.029 C 
ATOM      7  CG1 UNL     1      37.637 -26.102 -12.486  0.00  0.00    +0.002 C 
ATOM      8  CG2 UNL     1      38.562 -23.852 -11.856  0.00  0.00    +0.002 C 
ENDBRANCH   5   6
BRANCH   5  10
ATOM      9  OXT UNL     1      40.832 -26.563 -14.140  0.00  0.00    -0.248 OA
ATOM     10  C   UNL     1      40.096 -25.827 -14.789  0.00  0.00    +0.332 C 
BRANCH  10  11
ATOM     11  O   UNL     1      40.144 -25.784 -16.144  0.00  0.00    -0.479 OA
ATOM     12  H   UNL     1      39.365 -25.929 -16.644  0.00  0.00    +0.295 HD
ENDBRANCH  10  11
ENDBRANCH   5  10
ENDBRANCH   2   5
BRANCH   3  13
ATOM     13  C   UNL     1      35.963 -23.868 -16.028  0.00  0.00    +0.113 C 
BRANCH  13  15
ATOM     14  N   UNL     1      33.407 -23.750 -13.423  0.00  0.00    -0.312 N 
ATOM     15  C   UNL     1      34.738 -23.755 -15.177  0.00  0.00    +0.003 C 
ATOM     16  C   UNL     1      33.438 -23.445 -15.633  0.00  0.00    +0.011 C 
ATOM     17  C   UNL     1      32.613 -23.447 -14.506  0.00  0.00    +0.048 C 
ATOM     18  C   UNL     1      34.703 -23.939 -13.825  0.00  0.00    +0.058 C 
ATOM     19  C   UNL     1      32.868 -23.160 -16.890  0.00  0.00    +0.001 C 
ATOM     20  C   UNL     1      31.242 -23.178 -14.574  0.00  0.00    +0.015 C 
ATOM     21  C   UNL     1      31.498 -22.889 -16.973  0.00  0.00    +0.000 C 
ATOM     22  C   UNL     1      30.699 -22.898 -15.831  0.00  0.00    +0.001 C 
ATOM     23  H   UNL     1      33.090 -23.821 -12.495  0.00  0.00    +0.152 HD
ENDBRANCH  13  15
ENDBRANCH   3  13
TORSDOF 6
ENDMDL
MODEL 7
REMARK VINA RESULT:      -8.5      3.650      4.550
REMARK  Name = 446641
REMARK  6 active torsions:
REMARK  status: ('A' for Active; 'I' for Inactive)
REMARK    1  A    between atoms: N_2  and  CA_5
REMARK    2  A    between atoms: C_3  and  C_13
REMARK    3  A    between atoms: CA_5  and  CB_6
REMARK    4  A    between atoms: CA_5  and  C_10
REMARK    5  A    between atoms: C_10  and  O_11
REMARK    6  A    between atoms: C_13  and  C_15
REMARK                            x       y       z     vdW  Elec       q    Type
REMARK                         _______ _______ _______ _____ _____    ______ ____
ROOT
ATOM      1  O   UNL     1      34.735 -24.024 -16.611  0.00  0.00    -0.275 OA
ATOM      2  N   UNL     1      35.852 -24.323 -14.597  0.00  0.00    -0.297 N 
ATOM      3  C   ACE A   0      34.813 -23.864 -15.396  0.00  0.00    +0.227 C 
ATOM      4  H   UNL     1      35.818 -24.140 -13.630  0.00  0.00    +0.150 HD
ENDROOT
BRANCH   2   5
ATOM      5  CA  UNL     1      36.983 -25.055 -15.122  0.00  0.00    +0.171 C 
BRANCH   5   6
ATOM      6  CB  UNL     1      38.275 -24.639 -14.386  0.00  0.00    +0.029 C 
ATOM      7  CG1 UNL     1      39.439 -25.589 -14.678  0.00  0.00    +0.002 C 
ATOM      8  CG2 UNL     1      38.086 -24.482 -12.874  0.00  0.00    +0.002 C 
ENDBRANCH   5   6
BRANCH   5  10
ATOM      9  OXT UNL     1      36.592 -27.230 -16.131  0.00  0.00    -0.248 OA
ATOM     10  C   UNL     1      36.709 -26.555 -15.113  0.00  0.00    +0.332 C 
BRANCH  10  11
ATOM     11  O   UNL     1      36.551 -27.093 -13.878  0.00  0.00    -0.479 OA
ATOM     12  H   UNL     1      36.842 -27.967 -13.707  0.00  0.00    +0.295 HD
ENDBRANCH  10  11
ENDBRANCH   5  10
ENDBRANCH   2   5
BRANCH   3  13
ATOM     13  C   UNL     1      33.775 -23.115 -14.580  0.00  0.00    +0.113 C 
BRANCH  13  15
ATOM     14  N   UNL     1      31.081 -25.390 -13.633  0.00  0.00    -0.312 N 
ATOM     15  C   UNL     1      32.519 -23.904 -14.390  0.00  0.00    +0.003 C 
ATOM     16  C   UNL     1      31.307 -23.716 -15.091  0.00  0.00    +0.011 C 
ATOM     17  C   UNL     1      30.412 -24.668 -14.595  0.00  0.00    +0.048 C 
ATOM     18  C   UNL     1      32.365 -24.931 -13.503  0.00  0.00    +0.058 C 
ATOM     19  C   UNL     1      30.871 -22.835 -16.100  0.00  0.00    +0.001 C 
ATOM     20  C   UNL     1      29.098 -24.781 -15.060  0.00  0.00    +0.015 C 
ATOM     21  C   UNL     1      29.558 -22.938 -16.574  0.00  0.00    +0.000 C 
ATOM     22  C   UNL     1      28.687 -23.897 -16.061  0.00  0.00    +0.001 C 
ATOM     23  H   UNL     1      30.693 -26.130 -13.113  0.00  0.00    +0.152 HD
ENDBRANCH  13  15
ENDBRANCH   3  13
TORSDOF 6
ENDMDL
MODEL 8
REMARK VINA RESULT:      -8.4      2.084      2.908
REMARK  Name = 446641
REMARK  6 active torsions:
REMARK  status: ('A' for Active; 'I' for Inactive)
REMARK    1  A    between atoms: N_2  and  CA_5
REMARK    2  A    between atoms: C_3  and  C_13
REMARK    3  A    between atoms: CA_5  and  CB_6
REMARK    4  A    between atoms: CA_5  and  C_10
REMARK    5  A    between atoms: C_10  and  O_11
REMARK    6  A    between atoms: C_13  and  C_15
REMARK                            x       y       z     vdW  Elec       q    Type
REMARK                         _______ _______ _______ _____ _____    ______ ____
ROOT
ATOM      1  O   UNL     1      35.337 -25.576 -15.641  0.00  0.00    -0.275 OA
ATOM      2  N   UNL     1      36.368 -24.316 -13.986  0.00  0.00    -0.297 N 
ATOM      3  C   ACE A   0      35.394 -24.568 -14.942  0.00  0.00    +0.227 C 
ATOM      4  H   UNL     1      36.322 -23.474 -13.478  0.00  0.00    +0.150 HD
ENDROOT
BRANCH   2   5
ATOM      5  CA  UNL     1      37.447 -25.234 -13.702  0.00  0.00    +0.171 C 
BRANCH   5   6
ATOM      6  CB  UNL     1      38.785 -24.659 -14.215  0.00  0.00    +0.029 C 
ATOM      7  CG1 UNL     1      38.620 -23.896 -15.533  0.00  0.00    +0.002 C 
ATOM      8  CG2 UNL     1      39.885 -25.717 -14.350  0.00  0.00    +0.002 C 
ENDBRANCH   5   6
BRANCH   5  10
ATOM      9  OXT UNL     1      36.993 -26.679 -11.803  0.00  0.00    -0.248 OA
ATOM     10  C   UNL     1      37.455 -25.625 -12.228  0.00  0.00    +0.332 C 
BRANCH  10  11
ATOM     11  O   UNL     1      37.972 -24.686 -11.397  0.00  0.00    -0.479 OA
ATOM     12  H   UNL     1      38.229 -23.851 -11.737  0.00  0.00    +0.295 HD
ENDBRANCH  10  11
ENDBRANCH   5  10
ENDBRANCH   2   5
BRANCH   3  13
ATOM     13  C   UNL     1      34.399 -23.425 -15.036  0.00  0.00    +0.113 C 
BRANCH  13  15
ATOM     14  N   UNL     1      32.896 -22.891 -18.321  0.00  0.00    -0.312 N 
ATOM     15  C   UNL     1      34.039 -23.095 -16.450  0.00  0.00    +0.003 C 
ATOM     16  C   UNL     1      34.892 -22.496 -17.404  0.00  0.00    +0.011 C 
ATOM     17  C   UNL     1      34.147 -22.377 -18.580  0.00  0.00    +0.048 C 
ATOM     18  C   UNL     1      32.824 -23.331 -17.026  0.00  0.00    +0.058 C 
ATOM     19  C   UNL     1      36.224 -22.039 -17.396  0.00  0.00    +0.001 C 
ATOM     20  C   UNL     1      34.671 -21.821 -19.752  0.00  0.00    +0.015 C 
ATOM     21  C   UNL     1      36.761 -21.481 -18.562  0.00  0.00    +0.000 C 
ATOM     22  C   UNL     1      35.994 -21.374 -19.720  0.00  0.00    +0.001 C 
ATOM     23  H   UNL     1      32.160 -22.936 -18.972  0.00  0.00    +0.152 HD
ENDBRANCH  13  15
ENDBRANCH   3  13
TORSDOF 6
ENDMDL
MODEL 9
REMARK VINA RESULT:      -8.4      1.326      2.737
REMARK  Name = 446641
REMARK  6 active torsions:
REMARK  status: ('A' for Active; 'I' for Inactive)
REMARK    1  A    between atoms: N_2  and  CA_5
REMARK    2  A    between atoms: C_3  and  C_13
REMARK    3  A    between atoms: CA_5  and  CB_6
REMARK    4  A    between atoms: CA_5  and  C_10
REMARK    5  A    between atoms: C_10  and  O_11
REMARK    6  A    between atoms: C_13  and  C_15
REMARK                            x       y       z     vdW  Elec       q    Type
REMARK                         _______ _______ _______ _____ _____    ______ ____
ROOT
ATOM      1  O   UNL     1      37.611 -22.806 -13.874  0.00  0.00    -0.275 OA
ATOM      2  N   UNL     1      38.281 -24.433 -15.388  0.00  0.00    -0.297 N 
ATOM      3  C   ACE A   0      37.708 -23.222 -15.025  0.00  0.00    +0.227 C 
ATOM      4  H   UNL     1      38.308 -24.673 -16.343  0.00  0.00    +0.150 HD
ENDROOT
BRANCH   2   5
ATOM      5  CA  UNL     1      38.839 -25.358 -14.428  0.00  0.00    +0.171 C 
BRANCH   5   6
ATOM      6  CB  UNL     1      37.791 -26.426 -14.045  0.00  0.00    +0.029 C 
ATOM      7  CG1 UNL     1      36.738 -26.622 -15.138  0.00  0.00    +0.002 C 
ATOM      8  CG2 UNL     1      37.113 -26.149 -12.699  0.00  0.00    +0.002 C 
ENDBRANCH   5   6
BRANCH   5  10
ATOM      9  OXT UNL     1      41.033 -26.374 -14.189  0.00  0.00    -0.248 OA
ATOM     10  C   UNL     1      40.163 -25.928 -14.929  0.00  0.00    +0.332 C 
BRANCH  10  11
ATOM     11  O   UNL     1      40.336 -25.858 -16.273  0.00  0.00    -0.479 OA
ATOM     12  H   UNL     1      39.958 -26.512 -16.828  0.00  0.00    +0.295 HD
ENDBRANCH  10  11
ENDBRANCH   5  10
ENDBRANCH   2   5
BRANCH   3  13
ATOM     13  C   UNL     1      37.191 -22.467 -16.237  0.00  0.00    +0.113 C 
BRANCH  13  15
ATOM     14  N   UNL     1      33.809 -22.910 -17.541  0.00  0.00    -0.312 N 
ATOM     15  C   UNL     1      35.744 -22.738 -16.505  0.00  0.00    +0.003 C 
ATOM     16  C   UNL     1      34.806 -23.226 -15.569  0.00  0.00    +0.011 C 
ATOM     17  C   UNL     1      33.588 -23.326 -16.247  0.00  0.00    +0.048 C 
ATOM     18  C   UNL     1      35.120 -22.550 -17.704  0.00  0.00    +0.058 C 
ATOM     19  C   UNL     1      34.858 -23.596 -14.211  0.00  0.00    +0.001 C 
ATOM     20  C   UNL     1      32.417 -23.780 -15.632  0.00  0.00    +0.015 C 
ATOM     21  C   UNL     1      33.693 -24.051 -13.582  0.00  0.00    +0.000 C 
ATOM     22  C   UNL     1      32.492 -24.141 -14.284  0.00  0.00    +0.001 C 
ATOM     23  H   UNL     1      33.124 -22.875 -18.246  0.00  0.00    +0.152 HD
ENDBRANCH  13  15
ENDBRANCH   3  13
TORSDOF 6
ENDMDL
