MODEL 1
REMARK VINA RESULT:      -9.2      0.000      0.000
REMARK  Name = 46937086
REMARK  7 active torsions:
REMARK  status: ('A' for Active; 'I' for Inactive)
REMARK    1  A    between atoms: C_2  and  O_15
REMARK    2  A    between atoms: C_3  and  C_17
REMARK    3  A    between atoms: C_5  and  C_8
REMARK    4  A    between atoms: C_17  and  O_18
REMARK    5  A    between atoms: O_18  and  P_19
REMARK    6  A    between atoms: P_19  and  O_21
REMARK    7  A    between atoms: P_19  and  O_23
REMARK                            x       y       z     vdW  Elec       q    Type
REMARK                         _______ _______ _______ _____ _____    ______ ____
ROOT
ATOM      1  O   UNL     1      36.354 -22.939 -14.594  0.00  0.00    -0.349 OA
ATOM      2  C   UNL     1      36.303 -25.205 -13.876  0.00  0.00    +0.143 C 
ATOM      3  C   UNL     1      37.167 -23.955 -13.976  0.00  0.00    +0.172 C 
ATOM      4  C   UNL     1      35.324 -25.038 -15.016  0.00  0.00    +0.066 C 
ATOM      5  C   UNL     1      35.125 -23.527 -15.059  0.00  0.00    +0.142 C 
ENDROOT
BRANCH   5   8
ATOM      6  F   UNL     1      32.490 -23.720 -16.086  0.00  0.00    -0.204 F 
ATOM      7  F   UNL     1      33.658 -21.639 -20.166  0.00  0.00    -0.204 F 
ATOM      8  C   UNL     1      34.733 -23.022 -16.426  0.00  0.00    +0.032 C 
ATOM      9  C   UNL     1      35.690 -22.427 -17.248  0.00  0.00    -0.002 C 
ATOM     10  C   UNL     1      33.416 -23.149 -16.868  0.00  0.00    +0.141 C 
ATOM     11  C   UNL     1      35.330 -21.958 -18.511  0.00  0.00    +0.006 C 
ATOM     12  C   UNL     1      33.056 -22.681 -18.131  0.00  0.00    +0.059 C 
ATOM     13  C   UNL     1      34.012 -22.085 -18.953  0.00  0.00    +0.138 C 
ATOM     14  C   UNL     1      36.356 -21.322 -19.387  0.00  0.00    +0.033 C 
ENDBRANCH   5   8
BRANCH   2  15
ATOM     15  O   UNL     1      35.599 -25.215 -12.636  0.00  0.00    -0.382 OA
ATOM     16  H   UNL     1      34.644 -25.194 -12.807  0.00  0.00    +0.210 HD
ENDBRANCH   2  15
BRANCH   3  17
ATOM     17  C   UNL     1      38.401 -24.161 -14.844  0.00  0.00    +0.185 C 
BRANCH  17  18
ATOM     18  O   UNL     1      39.414 -24.762 -14.057  0.00  0.00    -0.271 OA
BRANCH  18  19
ATOM     19  P   UNL     1      40.096 -26.131 -14.589  0.00  0.00    +0.473 P 
ATOM     20  O   UNL     1      41.243 -26.630 -13.762  0.00  0.00    -0.227 OA
BRANCH  19  21
ATOM     21  O   UNL     1      40.444 -25.811 -16.135  0.00  0.00    -0.303 OA
ATOM     22  H   UNL     1      40.571 -26.642 -16.618  0.00  0.00    +0.222 HD
ENDBRANCH  19  21
BRANCH  19  23
ATOM     23  O   UNL     1      38.838 -27.144 -14.694  0.00  0.00    -0.303 OA
ATOM     24  H   UNL     1      39.013 -27.932 -14.158  0.00  0.00    +0.222 HD
ENDBRANCH  19  23
ENDBRANCH  18  19
ENDBRANCH  17  18
ENDBRANCH   3  17
TORSDOF 7
ENDMDL
MODEL 2
REMARK VINA RESULT:      -9.1      2.568      4.266
REMARK  Name = 46937086
REMARK  7 active torsions:
REMARK  status: ('A' for Active; 'I' for Inactive)
REMARK    1  A    between atoms: C_2  and  O_15
REMARK    2  A    between atoms: C_3  and  C_17
REMARK    3  A    between atoms: C_5  and  C_8
REMARK    4  A    between atoms: C_17  and  O_18
REMARK    5  A    between atoms: O_18  and  P_19
REMARK    6  A    between atoms: P_19  and  O_21
REMARK    7  A    between atoms: P_19  and  O_23
REMARK                            x       y       z     vdW  Elec       q    Type
REMARK                         _______ _______ _______ _____ _____    ______ ____
ROOT
ATOM      1  O   UNL     1      35.841 -25.086 -15.540  0.00  0.00    -0.349 OA
ATOM      2  C   UNL     1      37.518 -23.622 -14.706  0.00  0.00    +0.143 C 
ATOM      3  C   UNL     1      36.955 -25.034 -14.627  0.00  0.00    +0.172 C 
ATOM      4  C   UNL     1      36.321 -22.797 -15.122  0.00  0.00    +0.066 C 
ATOM      5  C   UNL     1      35.557 -23.760 -16.024  0.00  0.00    +0.142 C 
ENDROOT
BRANCH   5   8
ATOM      6  F   UNL     1      34.199 -22.992 -18.391  0.00  0.00    -0.204 F 
ATOM      7  F   UNL     1      30.021 -22.697 -16.198  0.00  0.00    -0.204 F 
ATOM      8  C   UNL     1      34.076 -23.476 -16.070  0.00  0.00    +0.032 C 
ATOM      9  C   UNL     1      33.310 -23.586 -14.909  0.00  0.00    -0.002 C 
ATOM     10  C   UNL     1      33.472 -23.102 -17.270  0.00  0.00    +0.141 C 
ATOM     11  C   UNL     1      31.941 -23.325 -14.949  0.00  0.00    +0.006 C 
ATOM     12  C   UNL     1      32.102 -22.840 -17.311  0.00  0.00    +0.059 C 
ATOM     13  C   UNL     1      31.337 -22.952 -16.151  0.00  0.00    +0.138 C 
ATOM     14  C   UNL     1      31.125 -23.446 -13.707  0.00  0.00    +0.033 C 
ENDBRANCH   5   8
BRANCH   2  15
ATOM     15  O   UNL     1      38.524 -23.552 -15.714  0.00  0.00    -0.382 OA
ATOM     16  H   UNL     1      38.186 -23.943 -16.535  0.00  0.00    +0.210 HD
ENDBRANCH   2  15
BRANCH   3  17
ATOM     17  C   UNL     1      36.439 -25.386 -13.239  0.00  0.00    +0.185 C 
BRANCH  17  18
ATOM     18  O   UNL     1      37.188 -24.660 -12.279  0.00  0.00    -0.271 OA
BRANCH  18  19
ATOM     19  P   UNL     1      36.396 -23.683 -11.259  0.00  0.00    +0.473 P 
ATOM     20  O   UNL     1      36.297 -24.186  -9.849  0.00  0.00    -0.227 OA
BRANCH  19  21
ATOM     21  O   UNL     1      34.985 -23.417 -12.001  0.00  0.00    -0.303 OA
ATOM     22  H   UNL     1      34.369 -24.137 -11.794  0.00  0.00    +0.222 HD
ENDBRANCH  19  21
BRANCH  19  23
ATOM     23  O   UNL     1      37.176 -22.275 -11.428  0.00  0.00    -0.303 OA
ATOM     24  H   UNL     1      36.702 -21.718 -12.065  0.00  0.00    +0.222 HD
ENDBRANCH  19  23
ENDBRANCH  18  19
ENDBRANCH  17  18
ENDBRANCH   3  17
TORSDOF 7
ENDMDL
MODEL 3
REMARK VINA RESULT:      -8.9      5.317      7.228
REMARK  Name = 46937086
REMARK  7 active torsions:
REMARK  status: ('A' for Active; 'I' for Inactive)
REMARK    1  A    between atoms: C_2  and  O_15
REMARK    2  A    between atoms: C_3  and  C_17
REMARK    3  A    between atoms: C_5  and  C_8
REMARK    4  A    between atoms: C_17  and  O_18
REMARK    5  A    between atoms: O_18  and  P_19
REMARK    6  A    between atoms: P_19  and  O_21
REMARK    7  A    between atoms: P_19  and  O_23
REMARK                            x       y       z     vdW  Elec       q    Type
REMARK                         _______ _______ _______ _____ _____    ______ ____
ROOT
ATOM      1  O   UNL     1      31.897 -25.270 -14.880  0.00  0.00    -0.349 OA
ATOM      2  C   UNL     1      30.325 -24.001 -13.626  0.00  0.00    +0.143 C 
ATOM      3  C   UNL     1      30.488 -25.162 -14.598  0.00  0.00    +0.172 C 
ATOM      4  C   UNL     1      31.515 -23.123 -13.937  0.00  0.00    +0.066 C 
ATOM      5  C   UNL     1      32.586 -24.142 -14.311  0.00  0.00    +0.142 C 
ENDROOT
BRANCH   5   8
ATOM      6  F   UNL     1      35.223 -23.511 -13.482  0.00  0.00    -0.204 F 
ATOM      7  F   UNL     1      36.499 -22.057 -17.796  0.00  0.00    -0.204 F 
ATOM      8  C   UNL     1      33.633 -23.584 -15.243  0.00  0.00    +0.032 C 
ATOM      9  C   UNL     1      33.319 -23.356 -16.583  0.00  0.00    -0.002 C 
ATOM     10  C   UNL     1      34.912 -23.296 -14.768  0.00  0.00    +0.141 C 
ATOM     11  C   UNL     1      34.284 -22.841 -17.448  0.00  0.00    +0.006 C 
ATOM     12  C   UNL     1      35.878 -22.780 -15.632  0.00  0.00    +0.059 C 
ATOM     13  C   UNL     1      35.565 -22.553 -16.972  0.00  0.00    +0.138 C 
ATOM     14  C   UNL     1      33.946 -22.599 -18.880  0.00  0.00    +0.033 C 
ENDBRANCH   5   8
BRANCH   2  15
ATOM     15  O   UNL     1      30.413 -24.472 -12.283  0.00  0.00    -0.382 OA
ATOM     16  H   UNL     1      29.802 -23.968 -11.723  0.00  0.00    +0.210 HD
ENDBRANCH   2  15
BRANCH   3  17
ATOM     17  C   UNL     1      29.762 -24.932 -15.916  0.00  0.00    +0.185 C 
BRANCH  17  18
ATOM     18  O   UNL     1      28.559 -24.229 -15.655  0.00  0.00    -0.271 OA
BRANCH  18  19
ATOM     19  P   UNL     1      28.214 -22.928 -16.556  0.00  0.00    +0.473 P 
ATOM     20  O   UNL     1      27.442 -21.855 -15.847  0.00  0.00    -0.227 OA
BRANCH  19  21
ATOM     21  O   UNL     1      27.496 -23.547 -17.865  0.00  0.00    -0.303 OA
ATOM     22  H   UNL     1      27.840 -23.112 -18.660  0.00  0.00    +0.222 HD
ENDBRANCH  19  21
BRANCH  19  23
ATOM     23  O   UNL     1      29.665 -22.475 -17.107  0.00  0.00    -0.303 OA
ATOM     24  H   UNL     1      29.633 -21.543 -17.375  0.00  0.00    +0.222 HD
ENDBRANCH  19  23
ENDBRANCH  18  19
ENDBRANCH  17  18
ENDBRANCH   3  17
TORSDOF 7
ENDMDL
MODEL 4
REMARK VINA RESULT:      -8.9      8.708     11.556
REMARK  Name = 46937086
REMARK  7 active torsions:
REMARK  status: ('A' for Active; 'I' for Inactive)
REMARK    1  A    between atoms: C_2  and  O_15
REMARK    2  A    between atoms: C_3  and  C_17
REMARK    3  A    between atoms: C_5  and  C_8
REMARK    4  A    between atoms: C_17  and  O_18
REMARK    5  A    between atoms: O_18  and  P_19
REMARK    6  A    between atoms: P_19  and  O_21
REMARK    7  A    between atoms: P_19  and  O_23
REMARK                            x       y       z     vdW  Elec       q    Type
REMARK                         _______ _______ _______ _____ _____    ______ ____
ROOT
ATOM      1  O   UNL     1      35.708 -16.785 -22.615  0.00  0.00    -0.349 OA
ATOM      2  C   UNL     1      34.389 -16.949 -24.586  0.00  0.00    +0.143 C 
ATOM      3  C   UNL     1      34.832 -16.018 -23.465  0.00  0.00    +0.172 C 
ATOM      4  C   UNL     1      34.484 -18.319 -23.954  0.00  0.00    +0.066 C 
ATOM      5  C   UNL     1      35.679 -18.166 -23.019  0.00  0.00    +0.142 C 
ENDROOT
BRANCH   5   8
ATOM      6  F   UNL     1      37.973 -18.914 -21.532  0.00  0.00    -0.204 F 
ATOM      7  F   UNL     1      35.487 -21.670 -18.605  0.00  0.00    -0.204 F 
ATOM      8  C   UNL     1      35.627 -19.104 -21.838  0.00  0.00    +0.032 C 
ATOM      9  C   UNL     1      34.407 -19.646 -21.434  0.00  0.00    -0.002 C 
ATOM     10  C   UNL     1      36.796 -19.429 -21.151  0.00  0.00    +0.141 C 
ATOM     11  C   UNL     1      34.356 -20.513 -20.342  0.00  0.00    +0.006 C 
ATOM     12  C   UNL     1      36.746 -20.296 -20.059  0.00  0.00    +0.059 C 
ATOM     13  C   UNL     1      35.526 -20.838 -19.654  0.00  0.00    +0.138 C 
ATOM     14  C   UNL     1      33.050 -21.090 -19.912  0.00  0.00    +0.033 C 
ENDBRANCH   5   8
BRANCH   2  15
ATOM     15  O   UNL     1      35.297 -16.861 -25.683  0.00  0.00    -0.382 OA
ATOM     16  H   UNL     1      36.145 -16.509 -25.371  0.00  0.00    +0.210 HD
ENDBRANCH   2  15
BRANCH   3  17
ATOM     17  C   UNL     1      33.669 -15.524 -22.616  0.00  0.00    +0.185 C 
BRANCH  17  18
ATOM     18  O   UNL     1      33.781 -14.119 -22.468  0.00  0.00    -0.271 OA
BRANCH  18  19
ATOM     19  P   UNL     1      33.064 -13.168 -23.565  0.00  0.00    +0.473 P 
ATOM     20  O   UNL     1      32.646 -13.861 -24.828  0.00  0.00    -0.227 OA
BRANCH  19  21
ATOM     21  O   UNL     1      34.108 -11.949 -23.757  0.00  0.00    -0.303 OA
ATOM     22  H   UNL     1      34.726 -11.930 -23.010  0.00  0.00    +0.222 HD
ENDBRANCH  19  21
BRANCH  19  23
ATOM     23  O   UNL     1      31.857 -12.494 -22.726  0.00  0.00    -0.303 OA
ATOM     24  H   UNL     1      31.513 -11.729 -23.212  0.00  0.00    +0.222 HD
ENDBRANCH  19  23
ENDBRANCH  18  19
ENDBRANCH  17  18
ENDBRANCH   3  17
TORSDOF 7
ENDMDL
MODEL 5
REMARK VINA RESULT:      -8.8      4.775      6.727
REMARK  Name = 46937086
REMARK  7 active torsions:
REMARK  status: ('A' for Active; 'I' for Inactive)
REMARK    1  A    between atoms: C_2  and  O_15
REMARK    2  A    between atoms: C_3  and  C_17
REMARK    3  A    between atoms: C_5  and  C_8
REMARK    4  A    between atoms: C_17  and  O_18
REMARK    5  A    between atoms: O_18  and  P_19
REMARK    6  A    between atoms: P_19  and  O_21
REMARK    7  A    between atoms: P_19  and  O_23
REMARK                            x       y       z     vdW  Elec       q    Type
REMARK                         _______ _______ _______ _____ _____    ______ ____
ROOT
ATOM      1  O   UNL     1      32.761 -23.698 -17.275  0.00  0.00    -0.349 OA
ATOM      2  C   UNL     1      33.333 -23.542 -14.973  0.00  0.00    +0.143 C 
ATOM      3  C   UNL     1      32.187 -23.748 -15.954  0.00  0.00    +0.172 C 
ATOM      4  C   UNL     1      34.331 -22.737 -15.773  0.00  0.00    +0.066 C 
ATOM      5  C   UNL     1      34.136 -23.282 -17.184  0.00  0.00    +0.142 C 
ENDROOT
BRANCH   5   8
ATOM      6  F   UNL     1      36.803 -22.474 -17.704  0.00  0.00    -0.204 F 
ATOM      7  F   UNL     1      35.506 -19.562 -21.195  0.00  0.00    -0.204 F 
ATOM      8  C   UNL     1      34.502 -22.287 -18.257  0.00  0.00    +0.032 C 
ATOM      9  C   UNL     1      33.503 -21.718 -19.047  0.00  0.00    -0.002 C 
ATOM     10  C   UNL     1      35.836 -21.934 -18.459  0.00  0.00    +0.141 C 
ATOM     11  C   UNL     1      33.839 -20.798 -20.041  0.00  0.00    +0.006 C 
ATOM     12  C   UNL     1      36.173 -21.014 -19.453  0.00  0.00    +0.059 C 
ATOM     13  C   UNL     1      35.174 -20.446 -20.244  0.00  0.00    +0.138 C 
ATOM     14  C   UNL     1      32.769 -20.193 -20.886  0.00  0.00    +0.033 C 
ENDBRANCH   5   8
BRANCH   2  15
ATOM     15  O   UNL     1      33.905 -24.800 -14.618  0.00  0.00    -0.382 OA
ATOM     16  H   UNL     1      34.273 -25.222 -15.410  0.00  0.00    +0.210 HD
ENDBRANCH   2  15
BRANCH   3  17
ATOM     17  C   UNL     1      31.130 -22.657 -15.860  0.00  0.00    +0.185 C 
BRANCH  17  18
ATOM     18  O   UNL     1      30.114 -22.926 -16.811  0.00  0.00    -0.271 OA
BRANCH  18  19
ATOM     19  P   UNL     1      28.646 -23.350 -16.274  0.00  0.00    +0.473 P 
ATOM     20  O   UNL     1      28.640 -24.436 -15.239  0.00  0.00    -0.227 OA
BRANCH  19  21
ATOM     21  O   UNL     1      27.823 -23.678 -17.626  0.00  0.00    -0.303 OA
ATOM     22  H   UNL     1      27.518 -24.599 -17.605  0.00  0.00    +0.222 HD
ENDBRANCH  19  21
BRANCH  19  23
ATOM     23  O   UNL     1      28.018 -21.940 -15.789  0.00  0.00    -0.303 OA
ATOM     24  H   UNL     1      28.721 -21.275 -15.737  0.00  0.00    +0.222 HD
ENDBRANCH  19  23
ENDBRANCH  18  19
ENDBRANCH  17  18
ENDBRANCH   3  17
TORSDOF 7
ENDMDL
MODEL 6
REMARK VINA RESULT:      -8.7      8.471     10.868
REMARK  Name = 46937086
REMARK  7 active torsions:
REMARK  status: ('A' for Active; 'I' for Inactive)
REMARK    1  A    between atoms: C_2  and  O_15
REMARK    2  A    between atoms: C_3  and  C_17
REMARK    3  A    between atoms: C_5  and  C_8
REMARK    4  A    between atoms: C_17  and  O_18
REMARK    5  A    between atoms: O_18  and  P_19
REMARK    6  A    between atoms: P_19  and  O_21
REMARK    7  A    between atoms: P_19  and  O_23
REMARK                            x       y       z     vdW  Elec       q    Type
REMARK                         _______ _______ _______ _____ _____    ______ ____
ROOT
ATOM      1  O   UNL     1      35.477 -16.502 -22.977  0.00  0.00    -0.349 OA
ATOM      2  C   UNL     1      34.431 -16.832 -25.085  0.00  0.00    +0.143 C 
ATOM      3  C   UNL     1      34.646 -15.840 -23.950  0.00  0.00    +0.172 C 
ATOM      4  C   UNL     1      34.573 -18.173 -24.402  0.00  0.00    +0.066 C 
ATOM      5  C   UNL     1      35.625 -17.888 -23.336  0.00  0.00    +0.142 C 
ENDROOT
BRANCH   5   8
ATOM      6  F   UNL     1      37.861 -18.695 -21.792  0.00  0.00    -0.204 F 
ATOM      7  F   UNL     1      35.217 -21.301 -18.865  0.00  0.00    -0.204 F 
ATOM      8  C   UNL     1      35.516 -18.801 -22.140  0.00  0.00    +0.032 C 
ATOM      9  C   UNL     1      34.269 -19.290 -21.750  0.00  0.00    -0.002 C 
ATOM     10  C   UNL     1      36.658 -19.158 -21.424  0.00  0.00    +0.141 C 
ATOM     11  C   UNL     1      34.164 -20.133 -20.644  0.00  0.00    +0.006 C 
ATOM     12  C   UNL     1      36.555 -20.002 -20.318  0.00  0.00    +0.059 C 
ATOM     13  C   UNL     1      35.308 -20.490 -19.928  0.00  0.00    +0.138 C 
ATOM     14  C   UNL     1      32.829 -20.653 -20.229  0.00  0.00    +0.033 C 
ENDBRANCH   5   8
BRANCH   2  15
ATOM     15  O   UNL     1      35.454 -16.682 -26.067  0.00  0.00    -0.382 OA
ATOM     16  H   UNL     1      35.209 -17.174 -26.866  0.00  0.00    +0.210 HD
ENDBRANCH   2  15
BRANCH   3  17
ATOM     17  C   UNL     1      33.347 -15.441 -23.263  0.00  0.00    +0.185 C 
BRANCH  17  18
ATOM     18  O   UNL     1      33.632 -14.441 -22.301  0.00  0.00    -0.271 OA
BRANCH  18  19
ATOM     19  P   UNL     1      33.328 -14.759 -20.742  0.00  0.00    +0.473 P 
ATOM     20  O   UNL     1      32.619 -13.665 -20.000  0.00  0.00    -0.227 OA
BRANCH  19  21
ATOM     21  O   UNL     1      34.771 -15.177 -20.147  0.00  0.00    -0.303 OA
ATOM     22  H   UNL     1      35.463 -14.643 -20.569  0.00  0.00    +0.222 HD
ENDBRANCH  19  21
BRANCH  19  23
ATOM     23  O   UNL     1      32.532 -16.165 -20.809  0.00  0.00    -0.303 OA
ATOM     24  H   UNL     1      32.240 -16.328 -21.720  0.00  0.00    +0.222 HD
ENDBRANCH  19  23
ENDBRANCH  18  19
ENDBRANCH  17  18
ENDBRANCH   3  17
TORSDOF 7
ENDMDL
MODEL 7
REMARK VINA RESULT:      -8.7      1.638      2.306
REMARK  Name = 46937086
REMARK  7 active torsions:
REMARK  status: ('A' for Active; 'I' for Inactive)
REMARK    1  A    between atoms: C_2  and  O_15
REMARK    2  A    between atoms: C_3  and  C_17
REMARK    3  A    between atoms: C_5  and  C_8
REMARK    4  A    between atoms: C_17  and  O_18
REMARK    5  A    between atoms: O_18  and  P_19
REMARK    6  A    between atoms: P_19  and  O_21
REMARK    7  A    between atoms: P_19  and  O_23
REMARK                            x       y       z     vdW  Elec       q    Type
REMARK                         _______ _______ _______ _____ _____    ______ ____
ROOT
ATOM      1  O   UNL     1      37.267 -23.634 -14.656  0.00  0.00    -0.349 OA
ATOM      2  C   UNL     1      35.657 -25.037 -13.612  0.00  0.00    +0.143 C 
ATOM      3  C   UNL     1      37.137 -24.873 -13.932  0.00  0.00    +0.172 C 
ATOM      4  C   UNL     1      34.977 -24.266 -14.720  0.00  0.00    +0.066 C 
ATOM      5  C   UNL     1      35.959 -23.127 -14.976  0.00  0.00    +0.142 C 
ENDROOT
BRANCH   5   8
ATOM      6  F   UNL     1      38.053 -21.646 -16.183  0.00  0.00    -0.204 F 
ATOM      7  F   UNL     1      35.680 -21.116 -20.237  0.00  0.00    -0.204 F 
ATOM      8  C   UNL     1      35.884 -22.589 -16.384  0.00  0.00    +0.032 C 
ATOM      9  C   UNL     1      34.743 -22.813 -17.154  0.00  0.00    -0.002 C 
ATOM     10  C   UNL     1      36.952 -21.868 -16.916  0.00  0.00    +0.141 C 
ATOM     11  C   UNL     1      34.671 -22.318 -18.456  0.00  0.00    +0.006 C 
ATOM     12  C   UNL     1      36.882 -21.372 -18.218  0.00  0.00    +0.059 C 
ATOM     13  C   UNL     1      35.741 -21.597 -18.988  0.00  0.00    +0.138 C 
ATOM     14  C   UNL     1      33.450 -22.561 -19.277  0.00  0.00    +0.033 C 
ENDBRANCH   5   8
BRANCH   2  15
ATOM     15  O   UNL     1      35.358 -24.434 -12.354  0.00  0.00    -0.382 OA
ATOM     16  H   UNL     1      34.561 -24.842 -11.982  0.00  0.00    +0.210 HD
ENDBRANCH   2  15
BRANCH   3  17
ATOM     17  C   UNL     1      37.676 -25.991 -14.813  0.00  0.00    +0.185 C 
BRANCH  17  18
ATOM     18  O   UNL     1      38.778 -26.594 -14.157  0.00  0.00    -0.271 OA
BRANCH  18  19
ATOM     19  P   UNL     1      40.267 -26.052 -14.493  0.00  0.00    +0.473 P 
ATOM     20  O   UNL     1      41.383 -26.937 -14.021  0.00  0.00    -0.227 OA
BRANCH  19  21
ATOM     21  O   UNL     1      40.273 -24.551 -13.895  0.00  0.00    -0.303 OA
ATOM     22  H   UNL     1      39.620 -24.011 -14.368  0.00  0.00    +0.222 HD
ENDBRANCH  19  21
BRANCH  19  23
ATOM     23  O   UNL     1      40.213 -25.816 -16.092  0.00  0.00    -0.303 OA
ATOM     24  H   UNL     1      41.031 -26.148 -16.495  0.00  0.00    +0.222 HD
ENDBRANCH  19  23
ENDBRANCH  18  19
ENDBRANCH  17  18
ENDBRANCH   3  17
TORSDOF 7
ENDMDL
MODEL 8
REMARK VINA RESULT:      -8.6      1.712      2.126
REMARK  Name = 46937086
REMARK  7 active torsions:
REMARK  status: ('A' for Active; 'I' for Inactive)
REMARK    1  A    between atoms: C_2  and  O_15
REMARK    2  A    between atoms: C_3  and  C_17
REMARK    3  A    between atoms: C_5  and  C_8
REMARK    4  A    between atoms: C_17  and  O_18
REMARK    5  A    between atoms: O_18  and  P_19
REMARK    6  A    between atoms: P_19  and  O_21
REMARK    7  A    between atoms: P_19  and  O_23
REMARK                            x       y       z     vdW  Elec       q    Type
REMARK                         _______ _______ _______ _____ _____    ______ ____
ROOT
ATOM      1  O   UNL     1      37.267 -23.398 -12.837  0.00  0.00    -0.349 OA
ATOM      2  C   UNL     1      36.346 -24.906 -11.248  0.00  0.00    +0.143 C 
ATOM      3  C   UNL     1      37.636 -24.429 -11.901  0.00  0.00    +0.172 C 
ATOM      4  C   UNL     1      35.300 -24.617 -12.300  0.00  0.00    +0.066 C 
ATOM      5  C   UNL     1      35.833 -23.345 -12.951  0.00  0.00    +0.142 C 
ENDROOT
BRANCH   5   8
ATOM      6  F   UNL     1      33.246 -24.073 -13.852  0.00  0.00    -0.204 F 
ATOM      7  F   UNL     1      34.140 -22.725 -18.294  0.00  0.00    -0.204 F 
ATOM      8  C   UNL     1      35.380 -23.179 -14.381  0.00  0.00    +0.032 C 
ATOM      9  C   UNL     1      36.254 -22.646 -15.329  0.00  0.00    -0.002 C 
ATOM     10  C   UNL     1      34.092 -23.559 -14.756  0.00  0.00    +0.141 C 
ATOM     11  C   UNL     1      35.838 -22.490 -16.651  0.00  0.00    +0.006 C 
ATOM     12  C   UNL     1      33.675 -23.404 -16.078  0.00  0.00    +0.059 C 
ATOM     13  C   UNL     1      34.548 -22.869 -17.026  0.00  0.00    +0.138 C 
ATOM     14  C   UNL     1      36.773 -21.918 -17.662  0.00  0.00    +0.033 C 
ENDBRANCH   5   8
BRANCH   2  15
ATOM     15  O   UNL     1      36.076 -24.137 -10.078  0.00  0.00    -0.382 OA
ATOM     16  H   UNL     1      35.609 -23.325 -10.327  0.00  0.00    +0.210 HD
ENDBRANCH   2  15
BRANCH   3  17
ATOM     17  C   UNL     1      38.348 -25.531 -12.673  0.00  0.00    +0.185 C 
BRANCH  17  18
ATOM     18  O   UNL     1      39.432 -24.958 -13.385  0.00  0.00    -0.271 OA
BRANCH  18  19
ATOM     19  P   UNL     1      39.627 -25.355 -14.943  0.00  0.00    +0.473 P 
ATOM     20  O   UNL     1      40.921 -26.044 -15.262  0.00  0.00    -0.227 OA
BRANCH  19  21
ATOM     21  O   UNL     1      39.371 -23.965 -15.728  0.00  0.00    -0.303 OA
ATOM     22  H   UNL     1      38.497 -23.617 -15.493  0.00  0.00    +0.222 HD
ENDBRANCH  19  21
BRANCH  19  23
ATOM     23  O   UNL     1      38.297 -26.216 -15.267  0.00  0.00    -0.303 OA
ATOM     24  H   UNL     1      38.159 -26.248 -16.226  0.00  0.00    +0.222 HD
ENDBRANCH  19  23
ENDBRANCH  18  19
ENDBRANCH  17  18
ENDBRANCH   3  17
TORSDOF 7
ENDMDL
MODEL 9
REMARK VINA RESULT:      -8.5      1.895      2.777
REMARK  Name = 46937086
REMARK  7 active torsions:
REMARK  status: ('A' for Active; 'I' for Inactive)
REMARK    1  A    between atoms: C_2  and  O_15
REMARK    2  A    between atoms: C_3  and  C_17
REMARK    3  A    between atoms: C_5  and  C_8
REMARK    4  A    between atoms: C_17  and  O_18
REMARK    5  A    between atoms: O_18  and  P_19
REMARK    6  A    between atoms: P_19  and  O_21
REMARK    7  A    between atoms: P_19  and  O_23
REMARK                            x       y       z     vdW  Elec       q    Type
REMARK                         _______ _______ _______ _____ _____    ______ ____
ROOT
ATOM      1  O   UNL     1      37.150 -23.684 -13.449  0.00  0.00    -0.349 OA
ATOM      2  C   UNL     1      36.286 -24.801 -11.537  0.00  0.00    +0.143 C 
ATOM      3  C   UNL     1      37.492 -24.673 -12.458  0.00  0.00    +0.172 C 
ATOM      4  C   UNL     1      35.130 -24.402 -12.426  0.00  0.00    +0.066 C 
ATOM      5  C   UNL     1      35.758 -23.341 -13.323  0.00  0.00    +0.142 C 
ENDROOT
BRANCH   5   8
ATOM      6  F   UNL     1      37.128 -22.633 -15.702  0.00  0.00    -0.204 F 
ATOM      7  F   UNL     1      33.212 -22.906 -18.336  0.00  0.00    -0.204 F 
ATOM      8  C   UNL     1      35.077 -23.225 -14.665  0.00  0.00    +0.032 C 
ATOM      9  C   UNL     1      33.708 -23.470 -14.772  0.00  0.00    -0.002 C 
ATOM     10  C   UNL     1      35.812 -22.872 -15.796  0.00  0.00    +0.141 C 
ATOM     11  C   UNL     1      33.075 -23.364 -16.010  0.00  0.00    +0.006 C 
ATOM     12  C   UNL     1      35.180 -22.765 -17.035  0.00  0.00    +0.059 C 
ATOM     13  C   UNL     1      33.812 -23.011 -17.142  0.00  0.00    +0.138 C 
ATOM     14  C   UNL     1      31.611 -23.628 -16.122  0.00  0.00    +0.033 C 
ENDBRANCH   5   8
BRANCH   2  15
ATOM     15  O   UNL     1      36.398 -23.882 -10.452  0.00  0.00    -0.382 OA
ATOM     16  H   UNL     1      35.984 -24.263  -9.662  0.00  0.00    +0.210 HD
ENDBRANCH   2  15
BRANCH   3  17
ATOM     17  C   UNL     1      37.819 -25.970 -13.183  0.00  0.00    +0.185 C 
BRANCH  17  18
ATOM     18  O   UNL     1      39.222 -26.166 -13.152  0.00  0.00    -0.271 OA
BRANCH  18  19
ATOM     19  P   UNL     1      40.085 -25.788 -14.470  0.00  0.00    +0.473 P 
ATOM     20  O   UNL     1      40.901 -26.913 -15.035  0.00  0.00    -0.227 OA
BRANCH  19  21
ATOM     21  O   UNL     1      40.923 -24.482 -14.019  0.00  0.00    -0.303 OA
ATOM     22  H   UNL     1      41.861 -24.713 -13.931  0.00  0.00    +0.222 HD
ENDBRANCH  19  21
BRANCH  19  23
ATOM     23  O   UNL     1      38.967 -25.185 -15.472  0.00  0.00    -0.303 OA
ATOM     24  H   UNL     1      38.968 -24.217 -15.412  0.00  0.00    +0.222 HD
ENDBRANCH  19  23
ENDBRANCH  18  19
ENDBRANCH  17  18
ENDBRANCH   3  17
TORSDOF 7
ENDMDL
