MODEL 1
REMARK VINA RESULT:      -6.3      0.000      0.000
REMARK  Name = 446167
REMARK  6 active torsions:
REMARK  status: ('A' for Active; 'I' for Inactive)
REMARK    1  A    between atoms: C_2  and  C_3
REMARK    2  A    between atoms: C_2  and  C_9
REMARK    3  A    between atoms: C_3  and  P_4
REMARK    4  A    between atoms: P_4  and  O_7
REMARK    5  A    between atoms: C_9  and  C_11
REMARK    6  A    between atoms: C_11  and  O_12
REMARK                            x       y       z     vdW  Elec       q    Type
REMARK                         _______ _______ _______ _____ _____    ______ ____
ROOT
ATOM      1  O   UNL     1      37.722 -26.783 -15.205  0.00  0.00    -0.295 OA
ATOM      2  C   UNL     1      37.867 -25.759 -14.539  0.00  0.00    +0.172 C 
ENDROOT
BRANCH   2   3
ATOM      3  C   UNL     1      36.686 -24.937 -14.084  0.00  0.00    +0.152 C 
BRANCH   3   4
ATOM      4  P   UNL     1      36.391 -25.001 -12.306  0.00  0.00    +0.227 P 
ATOM      5  O   UNL     1      36.974 -26.208 -11.656  0.00  0.00    -0.289 OA
ATOM      6  C   UNL     1      36.958 -23.451 -11.661  0.00  0.00    +0.097 C 
BRANCH   4   7
ATOM      7  O   UNL     1      34.785 -24.894 -12.219  0.00  0.00    -0.342 OA
ATOM      8  H   UNL     1      34.473 -25.353 -11.424  0.00  0.00    +0.218 HD
ENDBRANCH   4   7
ENDBRANCH   3   4
ENDBRANCH   2   3
BRANCH   2   9
ATOM      9  C   UNL     1      39.231 -25.258 -14.114  0.00  0.00    +0.174 C 
BRANCH   9  11
ATOM     10  O   UNL     1      41.249 -26.581 -14.080  0.00  0.00    -0.250 OA
ATOM     11  C   UNL     1      40.396 -25.988 -14.726  0.00  0.00    +0.321 C 
BRANCH  11  12
ATOM     12  O   UNL     1      40.401 -25.914 -16.081  0.00  0.00    -0.480 OA
ATOM     13  H   UNL     1      39.614 -25.699 -16.541  0.00  0.00    +0.295 HD
ENDBRANCH  11  12
ENDBRANCH   9  11
ENDBRANCH   2   9
TORSDOF 6
ENDMDL
MODEL 2
REMARK VINA RESULT:      -6.3      0.997      1.069
REMARK  Name = 446167
REMARK  6 active torsions:
REMARK  status: ('A' for Active; 'I' for Inactive)
REMARK    1  A    between atoms: C_2  and  C_3
REMARK    2  A    between atoms: C_2  and  C_9
REMARK    3  A    between atoms: C_3  and  P_4
REMARK    4  A    between atoms: P_4  and  O_7
REMARK    5  A    between atoms: C_9  and  C_11
REMARK    6  A    between atoms: C_11  and  O_12
REMARK                            x       y       z     vdW  Elec       q    Type
REMARK                         _______ _______ _______ _____ _____    ______ ____
ROOT
ATOM      1  O   UNL     1      37.469 -26.048 -14.829  0.00  0.00    -0.295 OA
ATOM      2  C   UNL     1      38.061 -25.779 -13.785  0.00  0.00    +0.172 C 
ENDROOT
BRANCH   2   3
ATOM      3  C   UNL     1      37.414 -25.975 -12.436  0.00  0.00    +0.152 C 
BRANCH   3   4
ATOM      4  P   UNL     1      36.095 -24.799 -12.077  0.00  0.00    +0.227 P 
ATOM      5  O   UNL     1      35.396 -25.075 -10.789  0.00  0.00    -0.289 OA
ATOM      6  C   UNL     1      36.826 -23.190 -12.206  0.00  0.00    +0.097 C 
BRANCH   4   7
ATOM      7  O   UNL     1      35.166 -24.910 -13.389  0.00  0.00    -0.342 OA
ATOM      8  H   UNL     1      34.282 -25.216 -13.135  0.00  0.00    +0.218 HD
ENDBRANCH   4   7
ENDBRANCH   3   4
ENDBRANCH   2   3
BRANCH   2   9
ATOM      9  C   UNL     1      39.479 -25.250 -13.773  0.00  0.00    +0.174 C 
BRANCH   9  11
ATOM     10  O   UNL     1      41.297 -26.798 -14.127  0.00  0.00    -0.250 OA
ATOM     11  C   UNL     1      40.459 -26.041 -14.597  0.00  0.00    +0.321 C 
BRANCH  11  12
ATOM     12  O   UNL     1      40.316 -25.817 -15.928  0.00  0.00    -0.480 OA
ATOM     13  H   UNL     1      40.510 -26.499 -16.541  0.00  0.00    +0.295 HD
ENDBRANCH  11  12
ENDBRANCH   9  11
ENDBRANCH   2   9
TORSDOF 6
ENDMDL
MODEL 3
REMARK VINA RESULT:      -6.2      2.047      4.826
REMARK  Name = 446167
REMARK  6 active torsions:
REMARK  status: ('A' for Active; 'I' for Inactive)
REMARK    1  A    between atoms: C_2  and  C_3
REMARK    2  A    between atoms: C_2  and  C_9
REMARK    3  A    between atoms: C_3  and  P_4
REMARK    4  A    between atoms: P_4  and  O_7
REMARK    5  A    between atoms: C_9  and  C_11
REMARK    6  A    between atoms: C_11  and  O_12
REMARK                            x       y       z     vdW  Elec       q    Type
REMARK                         _______ _______ _______ _____ _____    ______ ____
ROOT
ATOM      1  O   UNL     1      38.753 -23.289 -11.674  0.00  0.00    -0.295 OA
ATOM      2  C   UNL     1      37.809 -24.007 -12.000  0.00  0.00    +0.172 C 
ENDROOT
BRANCH   2   3
ATOM      3  C   UNL     1      38.020 -25.426 -12.470  0.00  0.00    +0.152 C 
BRANCH   3   4
ATOM      4  P   UNL     1      38.291 -25.578 -14.246  0.00  0.00    +0.227 P 
ATOM      5  O   UNL     1      39.304 -26.612 -14.599  0.00  0.00    -0.289 OA
ATOM      6  C   UNL     1      36.689 -25.816 -14.965  0.00  0.00    +0.097 C 
BRANCH   4   7
ATOM      7  O   UNL     1      38.685 -24.073 -14.666  0.00  0.00    -0.342 OA
ATOM      8  H   UNL     1      39.271 -24.095 -15.437  0.00  0.00    +0.218 HD
ENDBRANCH   4   7
ENDBRANCH   3   4
ENDBRANCH   2   3
BRANCH   2   9
ATOM      9  C   UNL     1      36.373 -23.533 -11.938  0.00  0.00    +0.174 C 
BRANCH   9  11
ATOM     10  O   UNL     1      35.416 -24.943 -10.230  0.00  0.00    -0.250 OA
ATOM     11  C   UNL     1      35.396 -24.534 -11.383  0.00  0.00    +0.321 C 
BRANCH  11  12
ATOM     12  O   UNL     1      34.488 -24.940 -12.305  0.00  0.00    -0.480 OA
ATOM     13  H   UNL     1      33.605 -25.117 -12.047  0.00  0.00    +0.295 HD
ENDBRANCH  11  12
ENDBRANCH   9  11
ENDBRANCH   2   9
TORSDOF 6
ENDMDL
MODEL 4
REMARK VINA RESULT:      -6.1      2.478      3.256
REMARK  Name = 446167
REMARK  6 active torsions:
REMARK  status: ('A' for Active; 'I' for Inactive)
REMARK    1  A    between atoms: C_2  and  C_3
REMARK    2  A    between atoms: C_2  and  C_9
REMARK    3  A    between atoms: C_3  and  P_4
REMARK    4  A    between atoms: P_4  and  O_7
REMARK    5  A    between atoms: C_9  and  C_11
REMARK    6  A    between atoms: C_11  and  O_12
REMARK                            x       y       z     vdW  Elec       q    Type
REMARK                         _______ _______ _______ _____ _____    ______ ____
ROOT
ATOM      1  O   UNL     1      36.958 -26.586 -12.357  0.00  0.00    -0.295 OA
ATOM      2  C   UNL     1      37.724 -26.059 -13.162  0.00  0.00    +0.172 C 
ENDROOT
BRANCH   2   3
ATOM      3  C   UNL     1      38.495 -24.809 -12.817  0.00  0.00    +0.152 C 
BRANCH   3   4
ATOM      4  P   UNL     1      37.489 -23.503 -12.086  0.00  0.00    +0.227 P 
ATOM      5  O   UNL     1      38.244 -22.240 -11.854  0.00  0.00    -0.289 OA
ATOM      6  C   UNL     1      36.063 -23.347 -13.125  0.00  0.00    +0.097 C 
BRANCH   4   7
ATOM      7  O   UNL     1      36.922 -24.209 -10.753  0.00  0.00    -0.342 OA
ATOM      8  H   UNL     1      36.723 -23.532 -10.088  0.00  0.00    +0.218 HD
ENDBRANCH   4   7
ENDBRANCH   3   4
ENDBRANCH   2   3
BRANCH   2   9
ATOM      9  C   UNL     1      37.964 -26.630 -14.543  0.00  0.00    +0.174 C 
BRANCH   9  11
ATOM     10  O   UNL     1      36.702 -27.454 -16.428  0.00  0.00    -0.250 OA
ATOM     11  C   UNL     1      36.722 -26.852 -15.363  0.00  0.00    +0.321 C 
BRANCH  11  12
ATOM     12  O   UNL     1      35.619 -26.305 -14.793  0.00  0.00    -0.480 OA
ATOM     13  H   UNL     1      35.656 -25.982 -13.915  0.00  0.00    +0.295 HD
ENDBRANCH  11  12
ENDBRANCH   9  11
ENDBRANCH   2   9
TORSDOF 6
ENDMDL
MODEL 5
REMARK VINA RESULT:      -5.8      2.225      3.928
REMARK  Name = 446167
REMARK  6 active torsions:
REMARK  status: ('A' for Active; 'I' for Inactive)
REMARK    1  A    between atoms: C_2  and  C_3
REMARK    2  A    between atoms: C_2  and  C_9
REMARK    3  A    between atoms: C_3  and  P_4
REMARK    4  A    between atoms: P_4  and  O_7
REMARK    5  A    between atoms: C_9  and  C_11
REMARK    6  A    between atoms: C_11  and  O_12
REMARK                            x       y       z     vdW  Elec       q    Type
REMARK                         _______ _______ _______ _____ _____    ______ ____
ROOT
ATOM      1  O   UNL     1      34.800 -24.710 -12.761  0.00  0.00    -0.295 OA
ATOM      2  C   UNL     1      35.779 -24.288 -13.374  0.00  0.00    +0.172 C 
ENDROOT
BRANCH   2   3
ATOM      3  C   UNL     1      36.117 -24.779 -14.760  0.00  0.00    +0.152 C 
BRANCH   3   4
ATOM      4  P   UNL     1      37.078 -26.304 -14.785  0.00  0.00    +0.227 P 
ATOM      5  O   UNL     1      36.742 -27.193 -15.933  0.00  0.00    -0.289 OA
ATOM      6  C   UNL     1      38.777 -25.811 -14.688  0.00  0.00    +0.097 C 
BRANCH   4   7
ATOM      7  O   UNL     1      36.772 -26.930 -13.332  0.00  0.00    -0.342 OA
ATOM      8  H   UNL     1      37.275 -27.750 -13.220  0.00  0.00    +0.218 HD
ENDBRANCH   4   7
ENDBRANCH   3   4
ENDBRANCH   2   3
BRANCH   2   9
ATOM      9  C   UNL     1      36.703 -23.238 -12.797  0.00  0.00    +0.174 C 
BRANCH   9  11
ATOM     10  O   UNL     1      37.689 -24.855 -11.301  0.00  0.00    -0.250 OA
ATOM     11  C   UNL     1      37.747 -23.762 -11.848  0.00  0.00    +0.321 C 
BRANCH  11  12
ATOM     12  O   UNL     1      38.764 -22.884 -11.659  0.00  0.00    -0.480 OA
ATOM     13  H   UNL     1      39.361 -23.004 -10.946  0.00  0.00    +0.295 HD
ENDBRANCH  11  12
ENDBRANCH   9  11
ENDBRANCH   2   9
TORSDOF 6
ENDMDL
MODEL 6
REMARK VINA RESULT:      -5.8      2.425      3.086
REMARK  Name = 446167
REMARK  6 active torsions:
REMARK  status: ('A' for Active; 'I' for Inactive)
REMARK    1  A    between atoms: C_2  and  C_3
REMARK    2  A    between atoms: C_2  and  C_9
REMARK    3  A    between atoms: C_3  and  P_4
REMARK    4  A    between atoms: P_4  and  O_7
REMARK    5  A    between atoms: C_9  and  C_11
REMARK    6  A    between atoms: C_11  and  O_12
REMARK                            x       y       z     vdW  Elec       q    Type
REMARK                         _______ _______ _______ _____ _____    ______ ____
ROOT
ATOM      1  O   UNL     1      38.348 -24.031 -15.138  0.00  0.00    -0.295 OA
ATOM      2  C   UNL     1      37.214 -24.163 -14.681  0.00  0.00    +0.172 C 
ENDROOT
BRANCH   2   3
ATOM      3  C   UNL     1      36.650 -23.194 -13.671  0.00  0.00    +0.152 C 
BRANCH   3   4
ATOM      4  P   UNL     1      37.032 -23.613 -11.959  0.00  0.00    +0.227 P 
ATOM      5  O   UNL     1      37.367 -22.425 -11.125  0.00  0.00    -0.289 OA
ATOM      6  C   UNL     1      35.667 -24.581 -11.378  0.00  0.00    +0.097 C 
BRANCH   4   7
ATOM      7  O   UNL     1      38.225 -24.683 -12.123  0.00  0.00    -0.342 OA
ATOM      8  H   UNL     1      39.001 -24.382 -11.626  0.00  0.00    +0.218 HD
ENDBRANCH   4   7
ENDBRANCH   3   4
ENDBRANCH   2   3
BRANCH   2   9
ATOM      9  C   UNL     1      36.297 -25.290 -15.106  0.00  0.00    +0.174 C 
BRANCH   9  11
ATOM     10  O   UNL     1      36.784 -27.392 -16.188  0.00  0.00    -0.250 OA
ATOM     11  C   UNL     1      36.962 -26.633 -15.245  0.00  0.00    +0.321 C 
BRANCH  11  12
ATOM     12  O   UNL     1      37.783 -26.916 -14.202  0.00  0.00    -0.480 OA
ATOM     13  H   UNL     1      38.481 -26.330 -13.983  0.00  0.00    +0.295 HD
ENDBRANCH  11  12
ENDBRANCH   9  11
ENDBRANCH   2   9
TORSDOF 6
ENDMDL
MODEL 7
REMARK VINA RESULT:      -5.8      7.461      9.839
REMARK  Name = 446167
REMARK  6 active torsions:
REMARK  status: ('A' for Active; 'I' for Inactive)
REMARK    1  A    between atoms: C_2  and  C_3
REMARK    2  A    between atoms: C_2  and  C_9
REMARK    3  A    between atoms: C_3  and  P_4
REMARK    4  A    between atoms: P_4  and  O_7
REMARK    5  A    between atoms: C_9  and  C_11
REMARK    6  A    between atoms: C_11  and  O_12
REMARK                            x       y       z     vdW  Elec       q    Type
REMARK                         _______ _______ _______ _____ _____    ______ ____
ROOT
ATOM      1  O   UNL     1      30.302 -22.771 -16.892  0.00  0.00    -0.295 OA
ATOM      2  C   UNL     1      29.705 -22.761 -15.817  0.00  0.00    +0.172 C 
ENDROOT
BRANCH   2   3
ATOM      3  C   UNL     1      30.432 -22.931 -14.507  0.00  0.00    +0.152 C 
BRANCH   3   4
ATOM      4  P   UNL     1      30.831 -24.643 -14.104  0.00  0.00    +0.227 P 
ATOM      5  O   UNL     1      30.184 -25.627 -15.017  0.00  0.00    -0.289 OA
ATOM      6  C   UNL     1      32.599 -24.728 -14.037  0.00  0.00    +0.097 C 
BRANCH   4   7
ATOM      7  O   UNL     1      30.378 -24.750 -12.561  0.00  0.00    -0.342 OA
ATOM      8  H   UNL     1      29.412 -24.814 -12.512  0.00  0.00    +0.218 HD
ENDBRANCH   4   7
ENDBRANCH   3   4
ENDBRANCH   2   3
BRANCH   2   9
ATOM      9  C   UNL     1      28.207 -22.561 -15.727  0.00  0.00    +0.174 C 
BRANCH   9  11
ATOM     10  O   UNL     1      26.962 -21.349 -17.401  0.00  0.00    -0.250 OA
ATOM     11  C   UNL     1      27.508 -22.386 -17.048  0.00  0.00    +0.321 C 
BRANCH  11  12
ATOM     12  O   UNL     1      27.544 -23.509 -17.807  0.00  0.00    -0.480 OA
ATOM     13  H   UNL     1      26.842 -23.697 -18.400  0.00  0.00    +0.295 HD
ENDBRANCH  11  12
ENDBRANCH   9  11
ENDBRANCH   2   9
TORSDOF 6
ENDMDL
MODEL 8
REMARK VINA RESULT:      -5.8      2.151      2.819
REMARK  Name = 446167
REMARK  6 active torsions:
REMARK  status: ('A' for Active; 'I' for Inactive)
REMARK    1  A    between atoms: C_2  and  C_3
REMARK    2  A    between atoms: C_2  and  C_9
REMARK    3  A    between atoms: C_3  and  P_4
REMARK    4  A    between atoms: P_4  and  O_7
REMARK    5  A    between atoms: C_9  and  C_11
REMARK    6  A    between atoms: C_11  and  O_12
REMARK                            x       y       z     vdW  Elec       q    Type
REMARK                         _______ _______ _______ _____ _____    ______ ____
ROOT
ATOM      1  O   UNL     1      38.156 -23.335 -13.015  0.00  0.00    -0.295 OA
ATOM      2  C   UNL     1      37.998 -24.543 -13.184  0.00  0.00    +0.172 C 
ENDROOT
BRANCH   2   3
ATOM      3  C   UNL     1      36.624 -25.147 -13.333  0.00  0.00    +0.152 C 
BRANCH   3   4
ATOM      4  P   UNL     1      36.011 -25.169 -15.029  0.00  0.00    +0.227 P 
ATOM      5  O   UNL     1      36.077 -26.517 -15.660  0.00  0.00    -0.289 OA
ATOM      6  C   UNL     1      34.397 -24.442 -14.974  0.00  0.00    +0.097 C 
BRANCH   4   7
ATOM      7  O   UNL     1      36.921 -24.043 -15.739  0.00  0.00    -0.342 OA
ATOM      8  H   UNL     1      36.384 -23.254 -15.908  0.00  0.00    +0.218 HD
ENDBRANCH   4   7
ENDBRANCH   3   4
ENDBRANCH   2   3
BRANCH   2   9
ATOM      9  C   UNL     1      39.162 -25.506 -13.272  0.00  0.00    +0.174 C 
BRANCH   9  11
ATOM     10  O   UNL     1      41.062 -24.917 -14.639  0.00  0.00    -0.250 OA
ATOM     11  C   UNL     1      39.955 -25.430 -14.549  0.00  0.00    +0.321 C 
BRANCH  11  12
ATOM     12  O   UNL     1      39.303 -25.992 -15.598  0.00  0.00    -0.480 OA
ATOM     13  H   UNL     1      38.714 -25.477 -16.114  0.00  0.00    +0.295 HD
ENDBRANCH  11  12
ENDBRANCH   9  11
ENDBRANCH   2   9
TORSDOF 6
ENDMDL
MODEL 9
REMARK VINA RESULT:      -5.5      2.083      4.793
REMARK  Name = 446167
REMARK  6 active torsions:
REMARK  status: ('A' for Active; 'I' for Inactive)
REMARK    1  A    between atoms: C_2  and  C_3
REMARK    2  A    between atoms: C_2  and  C_9
REMARK    3  A    between atoms: C_3  and  P_4
REMARK    4  A    between atoms: P_4  and  O_7
REMARK    5  A    between atoms: C_9  and  C_11
REMARK    6  A    between atoms: C_11  and  O_12
REMARK                            x       y       z     vdW  Elec       q    Type
REMARK                         _______ _______ _______ _____ _____    ______ ____
ROOT
ATOM      1  O   UNL     1      38.955 -23.394 -11.740  0.00  0.00    -0.295 OA
ATOM      2  C   UNL     1      37.969 -24.095 -11.959  0.00  0.00    +0.172 C 
ENDROOT
BRANCH   2   3
ATOM      3  C   UNL     1      38.061 -25.354 -12.786  0.00  0.00    +0.152 C 
BRANCH   3   4
ATOM      4  P   UNL     1      38.609 -25.079 -14.482  0.00  0.00    +0.227 P 
ATOM      5  O   UNL     1      38.251 -23.730 -15.004  0.00  0.00    -0.289 OA
ATOM      6  C   UNL     1      40.339 -25.459 -14.503  0.00  0.00    +0.097 C 
BRANCH   4   7
ATOM      7  O   UNL     1      37.931 -26.312 -15.268  0.00  0.00    -0.342 OA
ATOM      8  H   UNL     1      37.887 -27.083 -14.683  0.00  0.00    +0.218 HD
ENDBRANCH   4   7
ENDBRANCH   3   4
ENDBRANCH   2   3
BRANCH   2   9
ATOM      9  C   UNL     1      36.600 -23.761 -11.405  0.00  0.00    +0.174 C 
BRANCH   9  11
ATOM     10  O   UNL     1      34.499 -24.587 -12.258  0.00  0.00    -0.250 OA
ATOM     11  C   UNL     1      35.472 -23.859 -12.397  0.00  0.00    +0.321 C 
BRANCH  11  12
ATOM     12  O   UNL     1      35.655 -23.050 -13.471  0.00  0.00    -0.480 OA
ATOM     13  H   UNL     1      36.411 -22.499 -13.519  0.00  0.00    +0.295 HD
ENDBRANCH  11  12
ENDBRANCH   9  11
ENDBRANCH   2   9
TORSDOF 6
ENDMDL
