MODEL 1
REMARK VINA RESULT:     -10.7      0.000      0.000
REMARK  Name = 214351
REMARK  5 active torsions:
REMARK  status: ('A' for Active; 'I' for Inactive)
REMARK    1  A    between atoms: C_5  and  S_17
REMARK    2  A    between atoms: C_6  and  N_12
REMARK    3  A    between atoms: S_17  and  C_19
REMARK    4  A    between atoms: C_19  and  C_21
REMARK    5  A    between atoms: C_23  and  O_27
REMARK                            x       y       z     vdW  Elec       q    Type
REMARK                         _______ _______ _______ _____ _____    ______ ____
ROOT
ATOM      1  N   UNL     1      33.573 -21.505 -19.503  0.00  0.00    -0.307 N 
ATOM      2  N   UNL     1      35.606 -21.850 -18.673  0.00  0.00    -0.307 N 
ATOM      3  C   UNL     1      34.401 -20.663 -20.200  0.00  0.00    +0.061 C 
ATOM      4  C   UNL     1      35.664 -20.898 -19.664  0.00  0.00    +0.060 C 
ATOM      5  C   UNL     1      34.340 -22.192 -18.603  0.00  0.00    +0.226 C 
ATOM      6  C   UNL     1      35.267 -19.042 -21.710  0.00  0.00    +0.057 C 
ATOM      7  C   UNL     1      34.160 -19.746 -21.223  0.00  0.00    +0.031 C 
ATOM      8  C   UNL     1      36.765 -20.182 -20.166  0.00  0.00    +0.017 C 
ATOM      9  C   UNL     1      36.546 -19.255 -21.194  0.00  0.00    +0.016 C 
ATOM     10  H   UNL     1      32.601 -21.598 -19.627  0.00  0.00    +0.149 HD
ATOM     11  H   UNL     1      36.352 -22.199 -18.134  0.00  0.00    +0.149 HD
ENDROOT
BRANCH   6  12
ATOM     12  N   UNL     1      35.089 -18.118 -22.727  0.00  0.00    -0.263 N 
ATOM     13  C   UNL     1      35.078 -16.751 -22.572  0.00  0.00    +0.070 C 
ATOM     14  C   UNL     1      34.895 -18.418 -24.057  0.00  0.00    +0.070 C 
ATOM     15  C   UNL     1      34.876 -16.180 -23.810  0.00  0.00    +0.018 C 
ATOM     16  C   UNL     1      34.760 -17.235 -24.748  0.00  0.00    +0.018 C 
ENDBRANCH   6  12
BRANCH   5  17
ATOM     17  S   UNL     1      33.698 -23.411 -17.462  0.00  0.00    +0.085 S 
ATOM     18  O   UNL     1      32.257 -23.058 -17.211  0.00  0.00    -0.252 OA
BRANCH  17  19
ATOM     19  C   UNL     1      34.633 -22.890 -15.999  0.00  0.00    +0.140 C 
BRANCH  19  21
ATOM     20  N   UNL     1      35.194 -25.153 -15.391  0.00  0.00    -0.247 NA
ATOM     21  C   UNL     1      35.665 -23.908 -15.608  0.00  0.00    +0.072 C 
ATOM     22  C   UNL     1      36.991 -23.541 -15.495  0.00  0.00    +0.027 C 
ATOM     23  C   UNL     1      37.905 -24.524 -15.130  0.00  0.00    +0.137 C 
ATOM     24  C   UNL     1      37.442 -22.142 -15.750  0.00  0.00    +0.035 C 
ATOM     25  C   UNL     1      37.463 -25.822 -14.896  0.00  0.00    +0.057 C 
ATOM     26  C   UNL     1      36.110 -26.083 -15.039  0.00  0.00    +0.102 C 
BRANCH  23  27
ATOM     27  O   UNL     1      39.228 -24.236 -14.999  0.00  0.00    -0.472 OA
ATOM     28  C   UNL     1      40.139 -25.333 -15.044  0.00  0.00    +0.252 C 
ENDBRANCH  23  27
ENDBRANCH  19  21
ENDBRANCH  17  19
ENDBRANCH   5  17
TORSDOF 5
ENDMDL
MODEL 2
REMARK VINA RESULT:     -10.6      4.081      7.278
REMARK  Name = 214351
REMARK  5 active torsions:
REMARK  status: ('A' for Active; 'I' for Inactive)
REMARK    1  A    between atoms: C_5  and  S_17
REMARK    2  A    between atoms: C_6  and  N_12
REMARK    3  A    between atoms: S_17  and  C_19
REMARK    4  A    between atoms: C_19  and  C_21
REMARK    5  A    between atoms: C_23  and  O_27
REMARK                            x       y       z     vdW  Elec       q    Type
REMARK                         _______ _______ _______ _____ _____    ______ ____
ROOT
ATOM      1  N   UNL     1      34.834 -15.786 -22.659  0.00  0.00    -0.307 N 
ATOM      2  N   UNL     1      34.245 -16.615 -24.636  0.00  0.00    -0.307 N 
ATOM      3  C   UNL     1      34.318 -14.727 -23.362  0.00  0.00    +0.061 C 
ATOM      4  C   UNL     1      33.957 -15.270 -24.591  0.00  0.00    +0.060 C 
ATOM      5  C   UNL     1      34.769 -16.890 -23.463  0.00  0.00    +0.226 C 
ATOM      6  C   UNL     1      33.569 -12.566 -24.018  0.00  0.00    +0.057 C 
ATOM      7  C   UNL     1      34.140 -13.382 -23.035  0.00  0.00    +0.031 C 
ATOM      8  C   UNL     1      33.385 -14.436 -25.567  0.00  0.00    +0.017 C 
ATOM      9  C   UNL     1      33.197 -13.082 -25.261  0.00  0.00    +0.016 C 
ATOM     10  H   UNL     1      35.188 -15.756 -21.741  0.00  0.00    +0.149 HD
ATOM     11  H   UNL     1      34.092 -17.235 -25.385  0.00  0.00    +0.149 HD
ENDROOT
BRANCH   6  12
ATOM     12  N   UNL     1      33.368 -11.222 -23.750  0.00  0.00    -0.263 N 
ATOM     13  C   UNL     1      32.357 -10.704 -22.974  0.00  0.00    +0.070 C 
ATOM     14  C   UNL     1      34.148 -10.188 -24.216  0.00  0.00    +0.070 C 
ATOM     15  C   UNL     1      32.495  -9.334 -22.947  0.00  0.00    +0.018 C 
ATOM     16  C   UNL     1      33.628  -9.007 -23.733  0.00  0.00    +0.018 C 
ENDBRANCH   6  12
BRANCH   5  17
ATOM     17  S   UNL     1      35.330 -18.518 -22.980  0.00  0.00    +0.085 S 
ATOM     18  O   UNL     1      34.346 -19.505 -23.547  0.00  0.00    -0.252 OA
BRANCH  17  19
ATOM     19  C   UNL     1      34.977 -18.379 -21.207  0.00  0.00    +0.140 C 
BRANCH  19  21
ATOM     20  N   UNL     1      36.373 -20.088 -20.239  0.00  0.00    -0.247 NA
ATOM     21  C   UNL     1      35.109 -19.703 -20.510  0.00  0.00    +0.072 C 
ATOM     22  C   UNL     1      33.981 -20.433 -20.192  0.00  0.00    +0.027 C 
ATOM     23  C   UNL     1      34.161 -21.652 -19.547  0.00  0.00    +0.137 C 
ATOM     24  C   UNL     1      32.611 -19.944 -20.525  0.00  0.00    +0.035 C 
ATOM     25  C   UNL     1      35.447 -22.089 -19.248  0.00  0.00    +0.057 C 
ATOM     26  C   UNL     1      36.509 -21.278 -19.610  0.00  0.00    +0.102 C 
BRANCH  23  27
ATOM     27  O   UNL     1      33.096 -22.426 -19.203  0.00  0.00    -0.472 OA
ATOM     28  C   UNL     1      33.068 -22.938 -17.872  0.00  0.00    +0.252 C 
ENDBRANCH  23  27
ENDBRANCH  19  21
ENDBRANCH  17  19
ENDBRANCH   5  17
TORSDOF 5
ENDMDL
MODEL 3
REMARK VINA RESULT:     -10.4      4.133      7.095
REMARK  Name = 214351
REMARK  5 active torsions:
REMARK  status: ('A' for Active; 'I' for Inactive)
REMARK    1  A    between atoms: C_5  and  S_17
REMARK    2  A    between atoms: C_6  and  N_12
REMARK    3  A    between atoms: S_17  and  C_19
REMARK    4  A    between atoms: C_19  and  C_21
REMARK    5  A    between atoms: C_23  and  O_27
REMARK                            x       y       z     vdW  Elec       q    Type
REMARK                         _______ _______ _______ _____ _____    ______ ____
ROOT
ATOM      1  N   UNL     1      34.565 -16.411 -21.894  0.00  0.00    -0.307 N 
ATOM      2  N   UNL     1      34.538 -16.398 -24.116  0.00  0.00    -0.307 N 
ATOM      3  C   UNL     1      33.866 -15.285 -22.245  0.00  0.00    +0.061 C 
ATOM      4  C   UNL     1      33.863 -15.299 -23.636  0.00  0.00    +0.060 C 
ATOM      5  C   UNL     1      34.946 -17.041 -23.046  0.00  0.00    +0.226 C 
ATOM      6  C   UNL     1      32.615 -13.262 -22.194  0.00  0.00    +0.057 C 
ATOM      7  C   UNL     1      33.254 -14.286 -21.486  0.00  0.00    +0.031 C 
ATOM      8  C   UNL     1      33.216 -14.262 -24.331  0.00  0.00    +0.017 C 
ATOM      9  C   UNL     1      32.595 -13.249 -23.590  0.00  0.00    +0.016 C 
ATOM     10  H   UNL     1      34.759 -16.712 -20.977  0.00  0.00    +0.149 HD
ATOM     11  H   UNL     1      34.685 -16.646 -25.057  0.00  0.00    +0.149 HD
ENDROOT
BRANCH   6  12
ATOM     12  N   UNL     1      31.990 -12.243 -21.494  0.00  0.00    -0.263 N 
ATOM     13  C   UNL     1      31.838 -12.187 -20.127  0.00  0.00    +0.070 C 
ATOM     14  C   UNL     1      31.420 -11.121 -22.053  0.00  0.00    +0.070 C 
ATOM     15  C   UNL     1      31.169 -11.024 -19.817  0.00  0.00    +0.018 C 
ATOM     16  C   UNL     1      30.904 -10.350 -21.035  0.00  0.00    +0.018 C 
ENDBRANCH   6  12
BRANCH   5  17
ATOM     17  S   UNL     1      35.887 -18.561 -23.095  0.00  0.00    +0.085 S 
ATOM     18  O   UNL     1      34.953 -19.637 -23.580  0.00  0.00    -0.252 OA
BRANCH  17  19
ATOM     19  C   UNL     1      36.072 -18.790 -21.306  0.00  0.00    +0.140 C 
BRANCH  19  21
ATOM     20  N   UNL     1      33.730 -19.234 -20.955  0.00  0.00    -0.247 NA
ATOM     21  C   UNL     1      34.990 -19.666 -20.744  0.00  0.00    +0.072 C 
ATOM     22  C   UNL     1      35.319 -20.824 -20.067  0.00  0.00    +0.027 C 
ATOM     23  C   UNL     1      34.278 -21.597 -19.567  0.00  0.00    +0.137 C 
ATOM     24  C   UNL     1      36.738 -21.240 -19.869  0.00  0.00    +0.035 C 
ATOM     25  C   UNL     1      32.962 -21.190 -19.761  0.00  0.00    +0.057 C 
ATOM     26  C   UNL     1      32.743 -20.012 -20.455  0.00  0.00    +0.102 C 
BRANCH  23  27
ATOM     27  O   UNL     1      34.525 -22.751 -18.889  0.00  0.00    -0.472 OA
ATOM     28  C   UNL     1      33.694 -23.035 -17.764  0.00  0.00    +0.252 C 
ENDBRANCH  23  27
ENDBRANCH  19  21
ENDBRANCH  17  19
ENDBRANCH   5  17
TORSDOF 5
ENDMDL
MODEL 4
REMARK VINA RESULT:     -10.2      6.414     11.685
REMARK  Name = 214351
REMARK  5 active torsions:
REMARK  status: ('A' for Active; 'I' for Inactive)
REMARK    1  A    between atoms: C_5  and  S_17
REMARK    2  A    between atoms: C_6  and  N_12
REMARK    3  A    between atoms: S_17  and  C_19
REMARK    4  A    between atoms: C_19  and  C_21
REMARK    5  A    between atoms: C_23  and  O_27
REMARK                            x       y       z     vdW  Elec       q    Type
REMARK                         _______ _______ _______ _____ _____    ______ ____
ROOT
ATOM      1  N   UNL     1      33.795 -15.145 -23.502  0.00  0.00    -0.307 N 
ATOM      2  N   UNL     1      33.801 -15.945 -25.576  0.00  0.00    -0.307 N 
ATOM      3  C   UNL     1      34.228 -16.442 -23.394  0.00  0.00    +0.061 C 
ATOM      4  C   UNL     1      34.223 -16.919 -24.701  0.00  0.00    +0.060 C 
ATOM      5  C   UNL     1      33.552 -14.896 -24.825  0.00  0.00    +0.226 C 
ATOM      6  C   UNL     1      35.006 -18.530 -22.561  0.00  0.00    +0.057 C 
ATOM      7  C   UNL     1      34.613 -17.214 -22.296  0.00  0.00    +0.031 C 
ATOM      8  C   UNL     1      34.622 -18.244 -24.948  0.00  0.00    +0.017 C 
ATOM      9  C   UNL     1      35.012 -19.037 -23.862  0.00  0.00    +0.016 C 
ATOM     10  H   UNL     1      33.679 -14.508 -22.761  0.00  0.00    +0.149 HD
ATOM     11  H   UNL     1      33.705 -16.019 -26.553  0.00  0.00    +0.149 HD
ENDROOT
BRANCH   6  12
ATOM     12  N   UNL     1      35.399 -19.343 -21.511  0.00  0.00    -0.263 N 
ATOM     13  C   UNL     1      36.655 -19.374 -20.949  0.00  0.00    +0.070 C 
ATOM     14  C   UNL     1      34.596 -20.252 -20.859  0.00  0.00    +0.070 C 
ATOM     15  C   UNL     1      36.649 -20.306 -19.935  0.00  0.00    +0.018 C 
ATOM     16  C   UNL     1      35.347 -20.862 -19.878  0.00  0.00    +0.018 C 
ENDBRANCH   6  12
BRANCH   5  17
ATOM     17  S   UNL     1      32.966 -13.331 -25.460  0.00  0.00    +0.085 S 
ATOM     18  O   UNL     1      33.563 -13.166 -26.832  0.00  0.00    -0.252 OA
BRANCH  17  19
ATOM     19  C   UNL     1      33.900 -12.251 -24.344  0.00  0.00    +0.140 C 
BRANCH  19  21
ATOM     20  N   UNL     1      32.256 -12.488 -22.599  0.00  0.00    -0.247 NA
ATOM     21  C   UNL     1      33.013 -11.625 -23.307  0.00  0.00    +0.072 C 
ATOM     22  C   UNL     1      33.013 -10.255 -23.131  0.00  0.00    +0.027 C 
ATOM     23  C   UNL     1      32.172  -9.730 -22.156  0.00  0.00    +0.137 C 
ATOM     24  C   UNL     1      33.878  -9.360 -23.952  0.00  0.00    +0.035 C 
ATOM     25  C   UNL     1      31.373 -10.583 -21.402  0.00  0.00    +0.057 C 
ATOM     26  C   UNL     1      31.452 -11.941 -21.659  0.00  0.00    +0.102 C 
BRANCH  23  27
ATOM     27  O   UNL     1      32.118  -8.389 -21.926  0.00  0.00    -0.472 OA
ATOM     28  C   UNL     1      32.570  -7.929 -20.654  0.00  0.00    +0.252 C 
ENDBRANCH  23  27
ENDBRANCH  19  21
ENDBRANCH  17  19
ENDBRANCH   5  17
TORSDOF 5
ENDMDL
MODEL 5
REMARK VINA RESULT:     -10.1      7.163     11.001
REMARK  Name = 214351
REMARK  5 active torsions:
REMARK  status: ('A' for Active; 'I' for Inactive)
REMARK    1  A    between atoms: C_5  and  S_17
REMARK    2  A    between atoms: C_6  and  N_12
REMARK    3  A    between atoms: S_17  and  C_19
REMARK    4  A    between atoms: C_19  and  C_21
REMARK    5  A    between atoms: C_23  and  O_27
REMARK                            x       y       z     vdW  Elec       q    Type
REMARK                         _______ _______ _______ _____ _____    ______ ____
ROOT
ATOM      1  N   UNL     1      32.093 -11.598 -23.046  0.00  0.00    -0.307 N 
ATOM      2  N   UNL     1      34.118 -11.944 -23.893  0.00  0.00    -0.307 N 
ATOM      3  C   UNL     1      32.599 -10.350 -23.308  0.00  0.00    +0.061 C 
ATOM      4  C   UNL     1      33.863 -10.593 -23.836  0.00  0.00    +0.060 C 
ATOM      5  C   UNL     1      33.038 -12.516 -23.413  0.00  0.00    +0.226 C 
ATOM      6  C   UNL     1      32.886  -7.999 -23.518  0.00  0.00    +0.057 C 
ATOM      7  C   UNL     1      32.073  -9.070 -23.133  0.00  0.00    +0.031 C 
ATOM      8  C   UNL     1      34.666  -9.505 -24.218  0.00  0.00    +0.017 C 
ATOM      9  C   UNL     1      34.159  -8.210 -24.052  0.00  0.00    +0.016 C 
ATOM     10  H   UNL     1      31.208 -11.797 -22.663  0.00  0.00    +0.149 HD
ATOM     11  H   UNL     1      34.934 -12.386 -24.223  0.00  0.00    +0.149 HD
ENDROOT
BRANCH   6  12
ATOM     12  N   UNL     1      32.417  -6.704 -23.369  0.00  0.00    -0.263 N 
ATOM     13  C   UNL     1      32.279  -5.781 -24.381  0.00  0.00    +0.070 C 
ATOM     14  C   UNL     1      32.012  -6.131 -22.185  0.00  0.00    +0.070 C 
ATOM     15  C   UNL     1      31.783  -4.617 -23.836  0.00  0.00    +0.018 C 
ATOM     16  C   UNL     1      31.615  -4.838 -22.447  0.00  0.00    +0.018 C 
ENDBRANCH   6  12
BRANCH   5  17
ATOM     17  S   UNL     1      32.832 -14.285 -23.257  0.00  0.00    +0.085 S 
ATOM     18  O   UNL     1      32.164 -14.532 -21.931  0.00  0.00    -0.252 OA
BRANCH  17  19
ATOM     19  C   UNL     1      34.581 -14.717 -23.056  0.00  0.00    +0.140 C 
BRANCH  19  21
ATOM     20  N   UNL     1      34.852 -16.806 -24.225  0.00  0.00    -0.247 NA
ATOM     21  C   UNL     1      34.785 -16.204 -23.020  0.00  0.00    +0.072 C 
ATOM     22  C   UNL     1      34.890 -16.859 -21.809  0.00  0.00    +0.027 C 
ATOM     23  C   UNL     1      35.079 -18.237 -21.835  0.00  0.00    +0.137 C 
ATOM     24  C   UNL     1      34.805 -16.128 -20.512  0.00  0.00    +0.035 C 
ATOM     25  C   UNL     1      35.154 -18.899 -23.055  0.00  0.00    +0.057 C 
ATOM     26  C   UNL     1      35.037 -18.145 -24.211  0.00  0.00    +0.102 C 
BRANCH  23  27
ATOM     27  O   UNL     1      35.191 -18.950 -20.681  0.00  0.00    -0.472 OA
ATOM     28  C   UNL     1      34.432 -20.154 -20.585  0.00  0.00    +0.252 C 
ENDBRANCH  23  27
ENDBRANCH  19  21
ENDBRANCH  17  19
ENDBRANCH   5  17
TORSDOF 5
ENDMDL
MODEL 6
REMARK VINA RESULT:     -10.1      3.415      9.255
REMARK  Name = 214351
REMARK  5 active torsions:
REMARK  status: ('A' for Active; 'I' for Inactive)
REMARK    1  A    between atoms: C_5  and  S_17
REMARK    2  A    between atoms: C_6  and  N_12
REMARK    3  A    between atoms: S_17  and  C_19
REMARK    4  A    between atoms: C_19  and  C_21
REMARK    5  A    between atoms: C_23  and  O_27
REMARK                            x       y       z     vdW  Elec       q    Type
REMARK                         _______ _______ _______ _____ _____    ______ ____
ROOT
ATOM      1  N   UNL     1      33.782 -21.750 -19.136  0.00  0.00    -0.307 N 
ATOM      2  N   UNL     1      35.830 -21.876 -18.281  0.00  0.00    -0.307 N 
ATOM      3  C   UNL     1      33.642 -22.420 -17.948  0.00  0.00    +0.061 C 
ATOM      4  C   UNL     1      34.934 -22.485 -17.434  0.00  0.00    +0.060 C 
ATOM      5  C   UNL     1      35.106 -21.447 -19.291  0.00  0.00    +0.226 C 
ATOM      6  C   UNL     1      32.762 -23.587 -16.071  0.00  0.00    +0.057 C 
ATOM      7  C   UNL     1      32.530 -22.957 -17.298  0.00  0.00    +0.031 C 
ATOM      8  C   UNL     1      35.148 -23.121 -16.198  0.00  0.00    +0.017 C 
ATOM      9  C   UNL     1      34.046 -23.668 -15.529  0.00  0.00    +0.016 C 
ATOM     10  H   UNL     1      33.059 -21.528 -19.766  0.00  0.00    +0.149 HD
ATOM     11  H   UNL     1      36.802 -21.782 -18.158  0.00  0.00    +0.149 HD
ENDROOT
BRANCH   6  12
ATOM     12  N   UNL     1      31.696 -24.138 -15.380  0.00  0.00    -0.263 N 
ATOM     13  C   UNL     1      31.756 -24.685 -14.119  0.00  0.00    +0.070 C 
ATOM     14  C   UNL     1      30.402 -24.226 -15.843  0.00  0.00    +0.070 C 
ATOM     15  C   UNL     1      30.495 -25.123 -13.779  0.00  0.00    +0.018 C 
ATOM     16  C   UNL     1      29.638 -24.833 -14.870  0.00  0.00    +0.018 C 
ENDBRANCH   6  12
BRANCH   5  17
ATOM     17  S   UNL     1      35.778 -20.572 -20.698  0.00  0.00    +0.085 S 
ATOM     18  O   UNL     1      36.919 -19.734 -20.187  0.00  0.00    -0.252 OA
BRANCH  17  19
ATOM     19  C   UNL     1      34.381 -19.450 -20.975  0.00  0.00    +0.140 C 
BRANCH  19  21
ATOM     20  N   UNL     1      34.530 -19.347 -23.378  0.00  0.00    -0.247 NA
ATOM     21  C   UNL     1      34.559 -18.643 -22.229  0.00  0.00    +0.072 C 
ATOM     22  C   UNL     1      34.736 -17.275 -22.151  0.00  0.00    +0.027 C 
ATOM     23  C   UNL     1      34.896 -16.576 -23.343  0.00  0.00    +0.137 C 
ATOM     24  C   UNL     1      34.759 -16.560 -20.843  0.00  0.00    +0.035 C 
ATOM     25  C   UNL     1      34.873 -17.263 -24.553  0.00  0.00    +0.057 C 
ATOM     26  C   UNL     1      34.688 -18.635 -24.517  0.00  0.00    +0.102 C 
BRANCH  23  27
ATOM     27  O   UNL     1      35.075 -15.227 -23.346  0.00  0.00    -0.472 OA
ATOM     28  C   UNL     1      33.984 -14.428 -23.800  0.00  0.00    +0.252 C 
ENDBRANCH  23  27
ENDBRANCH  19  21
ENDBRANCH  17  19
ENDBRANCH   5  17
TORSDOF 5
ENDMDL
MODEL 7
REMARK VINA RESULT:     -10.0      1.275      1.737
REMARK  Name = 214351
REMARK  5 active torsions:
REMARK  status: ('A' for Active; 'I' for Inactive)
REMARK    1  A    between atoms: C_5  and  S_17
REMARK    2  A    between atoms: C_6  and  N_12
REMARK    3  A    between atoms: S_17  and  C_19
REMARK    4  A    between atoms: C_19  and  C_21
REMARK    5  A    between atoms: C_23  and  O_27
REMARK                            x       y       z     vdW  Elec       q    Type
REMARK                         _______ _______ _______ _____ _____    ______ ____
ROOT
ATOM      1  N   UNL     1      33.333 -21.433 -19.483  0.00  0.00    -0.307 N 
ATOM      2  N   UNL     1      35.357 -21.934 -18.711  0.00  0.00    -0.307 N 
ATOM      3  C   UNL     1      34.199 -20.619 -20.169  0.00  0.00    +0.061 C 
ATOM      4  C   UNL     1      35.454 -20.951 -19.670  0.00  0.00    +0.060 C 
ATOM      5  C   UNL     1      34.073 -22.198 -18.625  0.00  0.00    +0.226 C 
ATOM      6  C   UNL     1      35.135 -19.002 -21.641  0.00  0.00    +0.057 C 
ATOM      7  C   UNL     1      33.996 -19.653 -21.155  0.00  0.00    +0.031 C 
ATOM      8  C   UNL     1      36.588 -20.288 -20.171  0.00  0.00    +0.017 C 
ATOM      9  C   UNL     1      36.408 -19.313 -21.160  0.00  0.00    +0.016 C 
ATOM     10  H   UNL     1      32.355 -21.461 -19.590  0.00  0.00    +0.149 HD
ATOM     11  H   UNL     1      36.090 -22.347 -18.201  0.00  0.00    +0.149 HD
ENDROOT
BRANCH   6  12
ATOM     12  N   UNL     1      34.995 -18.033 -22.621  0.00  0.00    -0.263 N 
ATOM     13  C   UNL     1      35.005 -16.673 -22.409  0.00  0.00    +0.070 C 
ATOM     14  C   UNL     1      34.824 -18.273 -23.966  0.00  0.00    +0.070 C 
ATOM     15  C   UNL     1      34.841 -16.047 -23.624  0.00  0.00    +0.018 C 
ATOM     16  C   UNL     1      34.725 -17.060 -24.609  0.00  0.00    +0.018 C 
ENDBRANCH   6  12
BRANCH   5  17
ATOM     17  S   UNL     1      33.379 -23.415 -17.513  0.00  0.00    +0.085 S 
ATOM     18  O   UNL     1      31.883 -23.260 -17.576  0.00  0.00    -0.252 OA
BRANCH  17  19
ATOM     19  C   UNL     1      33.924 -22.662 -15.957  0.00  0.00    +0.140 C 
BRANCH  19  21
ATOM     20  N   UNL     1      36.311 -22.943 -16.133  0.00  0.00    -0.247 NA
ATOM     21  C   UNL     1      35.195 -23.284 -15.456  0.00  0.00    +0.072 C 
ATOM     22  C   UNL     1      35.167 -24.138 -14.371  0.00  0.00    +0.027 C 
ATOM     23  C   UNL     1      36.374 -24.686 -13.949  0.00  0.00    +0.137 C 
ATOM     24  C   UNL     1      33.894 -24.472 -13.670  0.00  0.00    +0.035 C 
ATOM     25  C   UNL     1      37.549 -24.362 -14.619  0.00  0.00    +0.057 C 
ATOM     26  C   UNL     1      37.465 -23.494 -15.694  0.00  0.00    +0.102 C 
BRANCH  23  27
ATOM     27  O   UNL     1      36.423 -25.536 -12.888  0.00  0.00    -0.472 OA
ATOM     28  C   UNL     1      37.714 -25.858 -12.373  0.00  0.00    +0.252 C 
ENDBRANCH  23  27
ENDBRANCH  19  21
ENDBRANCH  17  19
ENDBRANCH   5  17
TORSDOF 5
ENDMDL
MODEL 8
REMARK VINA RESULT:     -10.0      3.086      9.467
REMARK  Name = 214351
REMARK  5 active torsions:
REMARK  status: ('A' for Active; 'I' for Inactive)
REMARK    1  A    between atoms: C_5  and  S_17
REMARK    2  A    between atoms: C_6  and  N_12
REMARK    3  A    between atoms: S_17  and  C_19
REMARK    4  A    between atoms: C_19  and  C_21
REMARK    5  A    between atoms: C_23  and  O_27
REMARK                            x       y       z     vdW  Elec       q    Type
REMARK                         _______ _______ _______ _____ _____    ______ ____
ROOT
ATOM      1  N   UNL     1      36.604 -21.314 -18.323  0.00  0.00    -0.307 N 
ATOM      2  N   UNL     1      34.650 -21.876 -19.221  0.00  0.00    -0.307 N 
ATOM      3  C   UNL     1      35.951 -22.035 -17.356  0.00  0.00    +0.061 C 
ATOM      4  C   UNL     1      34.734 -22.374 -17.941  0.00  0.00    +0.060 C 
ATOM      5  C   UNL     1      35.786 -21.247 -19.417  0.00  0.00    +0.226 C 
ATOM      6  C   UNL     1      35.376 -23.160 -15.341  0.00  0.00    +0.057 C 
ATOM      7  C   UNL     1      36.310 -22.408 -16.061  0.00  0.00    +0.031 C 
ATOM      8  C   UNL     1      33.807 -23.131 -17.203  0.00  0.00    +0.017 C 
ATOM      9  C   UNL     1      34.147 -23.516 -15.899  0.00  0.00    +0.016 C 
ATOM     10  H   UNL     1      37.501 -20.916 -18.244  0.00  0.00    +0.149 HD
ATOM     11  H   UNL     1      33.900 -21.971 -19.851  0.00  0.00    +0.149 HD
ENDROOT
BRANCH   6  12
ATOM     12  N   UNL     1      35.678 -23.559 -14.049  0.00  0.00    -0.263 N 
ATOM     13  C   UNL     1      36.843 -23.272 -13.375  0.00  0.00    +0.070 C 
ATOM     14  C   UNL     1      34.861 -24.307 -13.231  0.00  0.00    +0.070 C 
ATOM     15  C   UNL     1      36.765 -23.840 -12.122  0.00  0.00    +0.018 C 
ATOM     16  C   UNL     1      35.512 -24.495 -12.032  0.00  0.00    +0.018 C 
ENDBRANCH   6  12
BRANCH   5  17
ATOM     17  S   UNL     1      36.208 -20.403 -20.936  0.00  0.00    +0.085 S 
ATOM     18  O   UNL     1      37.248 -19.373 -20.588  0.00  0.00    -0.252 OA
BRANCH  17  19
ATOM     19  C   UNL     1      34.643 -19.518 -21.165  0.00  0.00    +0.140 C 
BRANCH  19  21
ATOM     20  N   UNL     1      34.593 -19.244 -23.558  0.00  0.00    -0.247 NA
ATOM     21  C   UNL     1      34.685 -18.619 -22.367  0.00  0.00    +0.072 C 
ATOM     22  C   UNL     1      34.809 -17.253 -22.205  0.00  0.00    +0.027 C 
ATOM     23  C   UNL     1      34.843 -16.468 -23.353  0.00  0.00    +0.137 C 
ATOM     24  C   UNL     1      34.907 -16.629 -20.854  0.00  0.00    +0.035 C 
ATOM     25  C   UNL     1      34.751 -17.070 -24.603  0.00  0.00    +0.057 C 
ATOM     26  C   UNL     1      34.628 -18.449 -24.651  0.00  0.00    +0.102 C 
BRANCH  23  27
ATOM     27  O   UNL     1      34.963 -15.115 -23.272  0.00  0.00    -0.472 OA
ATOM     28  C   UNL     1      33.816 -14.338 -23.614  0.00  0.00    +0.252 C 
ENDBRANCH  23  27
ENDBRANCH  19  21
ENDBRANCH  17  19
ENDBRANCH   5  17
TORSDOF 5
ENDMDL
MODEL 9
REMARK VINA RESULT:      -9.8      4.020      9.657
REMARK  Name = 214351
REMARK  5 active torsions:
REMARK  status: ('A' for Active; 'I' for Inactive)
REMARK    1  A    between atoms: C_5  and  S_17
REMARK    2  A    between atoms: C_6  and  N_12
REMARK    3  A    between atoms: S_17  and  C_19
REMARK    4  A    between atoms: C_19  and  C_21
REMARK    5  A    between atoms: C_23  and  O_27
REMARK                            x       y       z     vdW  Elec       q    Type
REMARK                         _______ _______ _______ _____ _____    ______ ____
ROOT
ATOM      1  N   UNL     1      33.608 -19.734 -21.471  0.00  0.00    -0.307 N 
ATOM      2  N   UNL     1      35.790 -19.461 -21.794  0.00  0.00    -0.307 N 
ATOM      3  C   UNL     1      34.218 -20.457 -20.478  0.00  0.00    +0.061 C 
ATOM      4  C   UNL     1      35.579 -20.271 -20.701  0.00  0.00    +0.060 C 
ATOM      5  C   UNL     1      34.589 -19.158 -22.230  0.00  0.00    +0.226 C 
ATOM      6  C   UNL     1      34.646 -21.842 -18.592  0.00  0.00    +0.057 C 
ATOM      7  C   UNL     1      33.710 -21.233 -19.436  0.00  0.00    +0.031 C 
ATOM      8  C   UNL     1      36.505 -20.889 -19.843  0.00  0.00    +0.017 C 
ATOM      9  C   UNL     1      36.018 -21.674 -18.790  0.00  0.00    +0.016 C 
ATOM     10  H   UNL     1      32.638 -19.645 -21.612  0.00  0.00    +0.149 HD
ATOM     11  H   UNL     1      36.654 -19.173 -22.167  0.00  0.00    +0.149 HD
ENDROOT
BRANCH   6  12
ATOM     12  N   UNL     1      34.201 -22.624 -17.540  0.00  0.00    -0.263 N 
ATOM     13  C   UNL     1      34.974 -23.073 -16.493  0.00  0.00    +0.070 C 
ATOM     14  C   UNL     1      32.912 -23.078 -17.369  0.00  0.00    +0.070 C 
ATOM     15  C   UNL     1      34.172 -23.815 -15.654  0.00  0.00    +0.018 C 
ATOM     16  C   UNL     1      32.868 -23.819 -16.208  0.00  0.00    +0.018 C 
ENDBRANCH   6  12
BRANCH   5  17
ATOM     17  S   UNL     1      34.277 -18.117 -23.650  0.00  0.00    +0.085 S 
ATOM     18  O   UNL     1      35.118 -18.653 -24.777  0.00  0.00    -0.252 OA
BRANCH  17  19
ATOM     19  C   UNL     1      35.102 -16.622 -23.040  0.00  0.00    +0.140 C 
BRANCH  19  21
ATOM     20  N   UNL     1      33.764 -14.984 -24.195  0.00  0.00    -0.247 NA
ATOM     21  C   UNL     1      34.163 -15.451 -22.995  0.00  0.00    +0.072 C 
ATOM     22  C   UNL     1      33.768 -14.928 -21.779  0.00  0.00    +0.027 C 
ATOM     23  C   UNL     1      32.898 -13.843 -21.795  0.00  0.00    +0.137 C 
ATOM     24  C   UNL     1      34.251 -15.495 -20.487  0.00  0.00    +0.035 C 
ATOM     25  C   UNL     1      32.460 -13.329 -23.011  0.00  0.00    +0.057 C 
ATOM     26  C   UNL     1      32.918 -13.930 -24.172  0.00  0.00    +0.102 C 
BRANCH  23  27
ATOM     27  O   UNL     1      32.465 -13.275 -20.637  0.00  0.00    -0.472 OA
ATOM     28  C   UNL     1      31.680 -12.089 -20.748  0.00  0.00    +0.252 C 
ENDBRANCH  23  27
ENDBRANCH  19  21
ENDBRANCH  17  19
ENDBRANCH   5  17
TORSDOF 5
ENDMDL
