MODEL 1
REMARK VINA RESULT:     -10.2      0.000      0.000
REMARK  Name = 131682
REMARK  7 active torsions:
REMARK  status: ('A' for Active; 'I' for Inactive)
REMARK    1  A    between atoms: C_1  and  C_16
REMARK    2  A    between atoms: C_4  and  O_7
REMARK    3  A    between atoms: O_7  and  C_8
REMARK    4  A    between atoms: C_8  and  C_10
REMARK    5  A    between atoms: C_16  and  N_17
REMARK    6  A    between atoms: N_17  and  C_20
REMARK    7  A    between atoms: C_20  and  C_24
REMARK                            x       y       z     vdW  Elec       q    Type
REMARK                         _______ _______ _______ _____ _____    ______ ____
ROOT
ATOM      1  C   UNL     1      34.963 -19.657 -20.985  0.00  0.00    -0.044 C 
ATOM      2  C   UNL     1      33.576 -19.583 -20.976  0.00  0.00    -0.003 C 
ATOM      3  C   UNL     1      35.627 -20.631 -20.248  0.00  0.00    -0.003 C 
ATOM      4  C   UNL     1      33.498 -21.477 -19.478  0.00  0.00    +0.139 C 
ATOM      5  C   UNL     1      32.840 -20.496 -20.220  0.00  0.00    +0.037 C 
ATOM      6  C   UNL     1      34.892 -21.544 -19.492  0.00  0.00    +0.037 C 
ENDROOT
BRANCH   4   7
ATOM      7  O   UNL     1      32.781 -22.367 -18.740  0.00  0.00    -0.471 OA
BRANCH   7   8
ATOM      8  C   UNL     1      33.498 -23.142 -17.781  0.00  0.00    +0.232 C 
BRANCH   8  10
ATOM      9  F   UNL     1      29.296 -22.721 -15.360  0.00  0.00    -0.204 F 
ATOM     10  C   UNL     1      32.707 -23.199 -16.507  0.00  0.00    +0.023 C 
ATOM     11  C   UNL     1      31.344 -22.928 -16.530  0.00  0.00    +0.029 C 
ATOM     12  C   UNL     1      33.346 -23.522 -15.315  0.00  0.00    -0.001 C 
ATOM     13  C   UNL     1      30.610 -22.981 -15.345  0.00  0.00    +0.140 C 
ATOM     14  C   UNL     1      32.612 -23.575 -14.131  0.00  0.00    +0.002 C 
ATOM     15  C   UNL     1      31.243 -23.304 -14.146  0.00  0.00    +0.030 C 
ENDBRANCH   8  10
ENDBRANCH   7   8
ENDBRANCH   4   7
BRANCH   1  16
ATOM     16  C   UNL     1      35.754 -18.674 -21.799  0.00  0.00    -0.054 C 
BRANCH  16  17
ATOM     17  N   UNL     1      34.895 -17.804 -22.588  0.00  0.00    +0.393 N 
ATOM     18  H   UNL     1      35.028 -16.839 -22.284  0.00  0.00    -0.083 HD
ATOM     19  H   UNL     1      33.925 -18.089 -22.450  0.00  0.00    -0.083 HD
BRANCH  17  20
ATOM     20  C   UNL     1      35.216 -17.907 -24.009  0.00  0.00    +0.017 C 
ATOM     21  C   UNL     1      34.538 -19.129 -24.615  0.00  0.00    -0.014 C 
BRANCH  20  24
ATOM     22  O   UNL     1      34.539 -16.549 -25.909  0.00  0.00    -0.278 OA
ATOM     23  N   UNL     1      34.528 -15.598 -23.819  0.00  0.00    -0.330 N 
ATOM     24  C   UNL     1      34.736 -16.640 -24.699  0.00  0.00    +0.199 C 
ATOM     25  H   UNL     1      34.216 -14.727 -24.153  0.00  0.00    +0.145 HD
ATOM     26  H   UNL     1      34.693 -15.727 -22.856  0.00  0.00    +0.145 HD
ENDBRANCH  20  24
ENDBRANCH  17  20
ENDBRANCH  16  17
ENDBRANCH   1  16
TORSDOF 7
ENDMDL
MODEL 2
REMARK VINA RESULT:     -10.0      1.086      1.816
REMARK  Name = 131682
REMARK  7 active torsions:
REMARK  status: ('A' for Active; 'I' for Inactive)
REMARK    1  A    between atoms: C_1  and  C_16
REMARK    2  A    between atoms: C_4  and  O_7
REMARK    3  A    between atoms: O_7  and  C_8
REMARK    4  A    between atoms: C_8  and  C_10
REMARK    5  A    between atoms: C_16  and  N_17
REMARK    6  A    between atoms: N_17  and  C_20
REMARK    7  A    between atoms: C_20  and  C_24
REMARK                            x       y       z     vdW  Elec       q    Type
REMARK                         _______ _______ _______ _____ _____    ______ ____
ROOT
ATOM      1  C   UNL     1      34.970 -19.585 -21.021  0.00  0.00    -0.044 C 
ATOM      2  C   UNL     1      35.630 -20.587 -20.320  0.00  0.00    -0.003 C 
ATOM      3  C   UNL     1      33.584 -19.486 -20.983  0.00  0.00    -0.003 C 
ATOM      4  C   UNL     1      33.502 -21.411 -19.525  0.00  0.00    +0.139 C 
ATOM      5  C   UNL     1      34.894 -21.503 -19.569  0.00  0.00    +0.037 C 
ATOM      6  C   UNL     1      32.848 -20.402 -20.231  0.00  0.00    +0.037 C 
ENDROOT
BRANCH   4   7
ATOM      7  O   UNL     1      32.785 -22.306 -18.792  0.00  0.00    -0.471 OA
BRANCH   7   8
ATOM      8  C   UNL     1      33.518 -23.172 -17.927  0.00  0.00    +0.232 C 
BRANCH   8  10
ATOM      9  F   UNL     1      33.627 -23.932 -13.120  0.00  0.00    -0.204 F 
ATOM     10  C   UNL     1      32.835 -23.224 -16.592  0.00  0.00    +0.023 C 
ATOM     11  C   UNL     1      33.565 -23.560 -15.458  0.00  0.00    +0.029 C 
ATOM     12  C   UNL     1      31.478 -22.937 -16.502  0.00  0.00    -0.001 C 
ATOM     13  C   UNL     1      32.930 -23.609 -14.217  0.00  0.00    +0.140 C 
ATOM     14  C   UNL     1      30.842 -22.986 -15.262  0.00  0.00    +0.002 C 
ATOM     15  C   UNL     1      31.569 -23.323 -14.119  0.00  0.00    +0.030 C 
ENDBRANCH   8  10
ENDBRANCH   7   8
ENDBRANCH   4   7
BRANCH   1  16
ATOM     16  C   UNL     1      35.763 -18.599 -21.829  0.00  0.00    -0.054 C 
BRANCH  16  17
ATOM     17  N   UNL     1      34.906 -17.703 -22.590  0.00  0.00    +0.393 N 
ATOM     18  H   UNL     1      35.077 -16.742 -22.292  0.00  0.00    -0.083 HD
ATOM     19  H   UNL     1      33.933 -17.958 -22.421  0.00  0.00    -0.083 HD
BRANCH  17  20
ATOM     20  C   UNL     1      35.177 -17.816 -24.021  0.00  0.00    +0.017 C 
ATOM     21  C   UNL     1      34.546 -19.086 -24.579  0.00  0.00    -0.014 C 
BRANCH  20  24
ATOM     22  O   UNL     1      34.549 -16.451 -25.933  0.00  0.00    -0.278 OA
ATOM     23  N   UNL     1      34.120 -15.652 -23.825  0.00  0.00    -0.330 N 
ATOM     24  C   UNL     1      34.600 -16.591 -24.714  0.00  0.00    +0.199 C 
ATOM     25  H   UNL     1      33.722 -14.816 -24.159  0.00  0.00    +0.145 HD
ATOM     26  H   UNL     1      34.177 -15.817 -22.855  0.00  0.00    +0.145 HD
ENDBRANCH  20  24
ENDBRANCH  17  20
ENDBRANCH  16  17
ENDBRANCH   1  16
TORSDOF 7
ENDMDL
MODEL 3
REMARK VINA RESULT:      -9.9      4.220      8.981
REMARK  Name = 131682
REMARK  7 active torsions:
REMARK  status: ('A' for Active; 'I' for Inactive)
REMARK    1  A    between atoms: C_1  and  C_16
REMARK    2  A    between atoms: C_4  and  O_7
REMARK    3  A    between atoms: O_7  and  C_8
REMARK    4  A    between atoms: C_8  and  C_10
REMARK    5  A    between atoms: C_16  and  N_17
REMARK    6  A    between atoms: N_17  and  C_20
REMARK    7  A    between atoms: C_20  and  C_24
REMARK                            x       y       z     vdW  Elec       q    Type
REMARK                         _______ _______ _______ _____ _____    ______ ____
ROOT
ATOM      1  C   UNL     1      34.086 -21.915 -19.050  0.00  0.00    -0.044 C 
ATOM      2  C   UNL     1      35.472 -21.867 -19.131  0.00  0.00    -0.003 C 
ATOM      3  C   UNL     1      33.300 -21.033 -19.783  0.00  0.00    -0.003 C 
ATOM      4  C   UNL     1      35.302 -20.038 -20.700  0.00  0.00    +0.139 C 
ATOM      5  C   UNL     1      36.083 -20.926 -19.960  0.00  0.00    +0.037 C 
ATOM      6  C   UNL     1      33.911 -20.092 -20.612  0.00  0.00    +0.037 C 
ENDROOT
BRANCH   4   7
ATOM      7  O   UNL     1      35.899 -19.119 -21.508  0.00  0.00    -0.471 OA
BRANCH   7   8
ATOM      8  C   UNL     1      35.455 -17.768 -21.392  0.00  0.00    +0.232 C 
BRANCH   8  10
ATOM      9  F   UNL     1      33.788 -14.242 -24.305  0.00  0.00    -0.204 F 
ATOM     10  C   UNL     1      35.011 -17.282 -22.741  0.00  0.00    +0.023 C 
ATOM     11  C   UNL     1      34.599 -15.963 -22.895  0.00  0.00    +0.029 C 
ATOM     12  C   UNL     1      35.016 -18.154 -23.823  0.00  0.00    -0.001 C 
ATOM     13  C   UNL     1      34.187 -15.511 -24.148  0.00  0.00    +0.140 C 
ATOM     14  C   UNL     1      34.603 -17.702 -25.076  0.00  0.00    +0.002 C 
ATOM     15  C   UNL     1      34.188 -16.380 -25.238  0.00  0.00    +0.030 C 
ENDBRANCH   8  10
ENDBRANCH   7   8
ENDBRANCH   4   7
BRANCH   1  16
ATOM     16  C   UNL     1      33.429 -22.929 -18.158  0.00  0.00    -0.054 C 
BRANCH  16  17
ATOM     17  N   UNL     1      32.083 -22.529 -17.776  0.00  0.00    +0.393 N 
ATOM     18  H   UNL     1      31.454 -22.677 -18.566  0.00  0.00    -0.083 HD
ATOM     19  H   UNL     1      32.096 -21.543 -17.513  0.00  0.00    -0.083 HD
BRANCH  17  20
ATOM     20  C   UNL     1      31.613 -23.311 -16.636  0.00  0.00    +0.017 C 
ATOM     21  C   UNL     1      32.575 -23.165 -15.463  0.00  0.00    -0.014 C 
BRANCH  20  24
ATOM     22  O   UNL     1      29.382 -22.439 -17.059  0.00  0.00    -0.278 OA
ATOM     23  N   UNL     1      30.019 -22.824 -14.887  0.00  0.00    -0.330 N 
ATOM     24  C   UNL     1      30.231 -22.808 -16.250  0.00  0.00    +0.199 C 
ATOM     25  H   UNL     1      29.157 -22.520 -14.519  0.00  0.00    +0.145 HD
ATOM     26  H   UNL     1      30.729 -23.139 -14.282  0.00  0.00    +0.145 HD
ENDBRANCH  20  24
ENDBRANCH  17  20
ENDBRANCH  16  17
ENDBRANCH   1  16
TORSDOF 7
ENDMDL
MODEL 4
REMARK VINA RESULT:      -9.8      4.270      6.406
REMARK  Name = 131682
REMARK  7 active torsions:
REMARK  status: ('A' for Active; 'I' for Inactive)
REMARK    1  A    between atoms: C_1  and  C_16
REMARK    2  A    between atoms: C_4  and  O_7
REMARK    3  A    between atoms: O_7  and  C_8
REMARK    4  A    between atoms: C_8  and  C_10
REMARK    5  A    between atoms: C_16  and  N_17
REMARK    6  A    between atoms: N_17  and  C_20
REMARK    7  A    between atoms: C_20  and  C_24
REMARK                            x       y       z     vdW  Elec       q    Type
REMARK                         _______ _______ _______ _____ _____    ______ ____
ROOT
ATOM      1  C   UNL     1      33.849 -14.266 -22.583  0.00  0.00    -0.044 C 
ATOM      2  C   UNL     1      34.398 -15.246 -23.401  0.00  0.00    -0.003 C 
ATOM      3  C   UNL     1      33.846 -14.414 -21.201  0.00  0.00    -0.003 C 
ATOM      4  C   UNL     1      34.955 -16.548 -21.443  0.00  0.00    +0.139 C 
ATOM      5  C   UNL     1      34.953 -16.391 -22.829  0.00  0.00    +0.037 C 
ATOM      6  C   UNL     1      34.401 -15.558 -20.629  0.00  0.00    +0.037 C 
ENDROOT
BRANCH   4   7
ATOM      7  O   UNL     1      35.496 -17.665 -20.886  0.00  0.00    -0.471 OA
BRANCH   7   8
ATOM      8  C   UNL     1      35.339 -18.888 -21.602  0.00  0.00    +0.232 C 
BRANCH   8  10
ATOM      9  F   UNL     1      37.019 -22.084 -18.338  0.00  0.00    -0.204 F 
ATOM     10  C   UNL     1      35.115 -20.004 -20.624  0.00  0.00    +0.023 C 
ATOM     11  C   UNL     1      36.194 -20.533 -19.924  0.00  0.00    +0.029 C 
ATOM     12  C   UNL     1      33.831 -20.499 -20.427  0.00  0.00    -0.001 C 
ATOM     13  C   UNL     1      35.985 -21.570 -19.015  0.00  0.00    +0.140 C 
ATOM     14  C   UNL     1      33.623 -21.536 -19.519  0.00  0.00    +0.002 C 
ATOM     15  C   UNL     1      34.700 -22.071 -18.813  0.00  0.00    +0.030 C 
ENDBRANCH   8  10
ENDBRANCH   7   8
ENDBRANCH   4   7
BRANCH   1  16
ATOM     16  C   UNL     1      33.252 -13.034 -23.199  0.00  0.00    -0.054 C 
BRANCH  16  17
ATOM     17  N   UNL     1      34.248 -12.234 -23.894  0.00  0.00    +0.393 N 
ATOM     18  H   UNL     1      34.536 -12.721 -24.744  0.00  0.00    -0.083 HD
ATOM     19  H   UNL     1      35.048 -12.098 -23.276  0.00  0.00    -0.083 HD
BRANCH  17  20
ATOM     20  C   UNL     1      33.706 -10.926 -24.253  0.00  0.00    +0.017 C 
ATOM     21  C   UNL     1      32.811 -10.402 -23.136  0.00  0.00    -0.014 C 
BRANCH  20  24
ATOM     22  O   UNL     1      35.087  -8.975 -23.806  0.00  0.00    -0.278 OA
ATOM     23  N   UNL     1      35.672 -10.362 -25.539  0.00  0.00    -0.330 N 
ATOM     24  C   UNL     1      34.869  -9.975 -24.486  0.00  0.00    +0.199 C 
ATOM     25  H   UNL     1      36.459  -9.822 -25.783  0.00  0.00    +0.145 HD
ATOM     26  H   UNL     1      35.459 -11.179 -26.046  0.00  0.00    +0.145 HD
ENDBRANCH  20  24
ENDBRANCH  17  20
ENDBRANCH  16  17
ENDBRANCH   1  16
TORSDOF 7
ENDMDL
MODEL 5
REMARK VINA RESULT:      -9.7      4.142      8.710
REMARK  Name = 131682
REMARK  7 active torsions:
REMARK  status: ('A' for Active; 'I' for Inactive)
REMARK    1  A    between atoms: C_1  and  C_16
REMARK    2  A    between atoms: C_4  and  O_7
REMARK    3  A    between atoms: O_7  and  C_8
REMARK    4  A    between atoms: C_8  and  C_10
REMARK    5  A    between atoms: C_16  and  N_17
REMARK    6  A    between atoms: N_17  and  C_20
REMARK    7  A    between atoms: C_20  and  C_24
REMARK                            x       y       z     vdW  Elec       q    Type
REMARK                         _______ _______ _______ _____ _____    ______ ____
ROOT
ATOM      1  C   UNL     1      34.007 -21.470 -19.492  0.00  0.00    -0.044 C 
ATOM      2  C   UNL     1      35.300 -21.115 -19.858  0.00  0.00    -0.003 C 
ATOM      3  C   UNL     1      32.914 -20.744 -19.950  0.00  0.00    -0.003 C 
ATOM      4  C   UNL     1      34.412 -19.285 -21.162  0.00  0.00    +0.139 C 
ATOM      5  C   UNL     1      35.503 -20.019 -20.696  0.00  0.00    +0.037 C 
ATOM      6  C   UNL     1      33.118 -19.648 -20.789  0.00  0.00    +0.037 C 
ENDROOT
BRANCH   4   7
ATOM      7  O   UNL     1      34.611 -18.216 -21.979  0.00  0.00    -0.471 OA
BRANCH   7   8
ATOM      8  C   UNL     1      35.137 -17.032 -21.381  0.00  0.00    +0.232 C 
BRANCH   8  10
ATOM      9  F   UNL     1      32.239 -13.367 -20.017  0.00  0.00    -0.204 F 
ATOM     10  C   UNL     1      34.241 -15.875 -21.714  0.00  0.00    +0.023 C 
ATOM     11  C   UNL     1      33.647 -15.147 -20.689  0.00  0.00    +0.029 C 
ATOM     12  C   UNL     1      34.013 -15.542 -23.044  0.00  0.00    -0.001 C 
ATOM     13  C   UNL     1      32.815 -14.072 -20.998  0.00  0.00    +0.140 C 
ATOM     14  C   UNL     1      33.180 -14.468 -23.354  0.00  0.00    +0.002 C 
ATOM     15  C   UNL     1      32.581 -13.733 -22.330  0.00  0.00    +0.030 C 
ENDBRANCH   8  10
ENDBRANCH   7   8
ENDBRANCH   4   7
BRANCH   1  16
ATOM     16  C   UNL     1      33.789 -22.650 -18.589  0.00  0.00    -0.054 C 
BRANCH  16  17
ATOM     17  N   UNL     1      32.451 -22.660 -18.017  0.00  0.00    +0.393 N 
ATOM     18  H   UNL     1      31.805 -23.078 -18.686  0.00  0.00    -0.083 HD
ATOM     19  H   UNL     1      32.177 -21.699 -17.812  0.00  0.00    -0.083 HD
BRANCH  17  20
ATOM     20  C   UNL     1      32.423 -23.430 -16.777  0.00  0.00    +0.017 C 
ATOM     21  C   UNL     1      33.707 -23.207 -15.987  0.00  0.00    -0.014 C 
BRANCH  20  24
ATOM     22  O   UNL     1      31.216 -22.876 -14.740  0.00  0.00    -0.278 OA
ATOM     23  N   UNL     1      30.125 -22.685 -16.751  0.00  0.00    -0.330 N 
ATOM     24  C   UNL     1      31.219 -22.981 -15.964  0.00  0.00    +0.199 C 
ATOM     25  H   UNL     1      29.286 -22.382 -16.333  0.00  0.00    +0.145 HD
ATOM     26  H   UNL     1      30.183 -22.776 -17.729  0.00  0.00    +0.145 HD
ENDBRANCH  20  24
ENDBRANCH  17  20
ENDBRANCH  16  17
ENDBRANCH   1  16
TORSDOF 7
ENDMDL
MODEL 6
REMARK VINA RESULT:      -9.5      5.349      7.451
REMARK  Name = 131682
REMARK  7 active torsions:
REMARK  status: ('A' for Active; 'I' for Inactive)
REMARK    1  A    between atoms: C_1  and  C_16
REMARK    2  A    between atoms: C_4  and  O_7
REMARK    3  A    between atoms: O_7  and  C_8
REMARK    4  A    between atoms: C_8  and  C_10
REMARK    5  A    between atoms: C_16  and  N_17
REMARK    6  A    between atoms: N_17  and  C_20
REMARK    7  A    between atoms: C_20  and  C_24
REMARK                            x       y       z     vdW  Elec       q    Type
REMARK                         _______ _______ _______ _____ _____    ______ ____
ROOT
ATOM      1  C   UNL     1      32.730 -13.530 -22.066  0.00  0.00    -0.044 C 
ATOM      2  C   UNL     1      33.670 -13.920 -23.012  0.00  0.00    -0.003 C 
ATOM      3  C   UNL     1      32.585 -14.234 -20.877  0.00  0.00    -0.003 C 
ATOM      4  C   UNL     1      34.339 -15.742 -21.574  0.00  0.00    +0.139 C 
ATOM      5  C   UNL     1      34.478 -15.030 -22.765  0.00  0.00    +0.037 C 
ATOM      6  C   UNL     1      33.393 -15.343 -20.630  0.00  0.00    +0.037 C 
ENDROOT
BRANCH   4   7
ATOM      7  O   UNL     1      35.127 -16.825 -21.334  0.00  0.00    -0.471 OA
BRANCH   7   8
ATOM      8  C   UNL     1      34.903 -17.981 -22.139  0.00  0.00    +0.232 C 
BRANCH   8  10
ATOM      9  F   UNL     1      36.696 -21.623 -19.452  0.00  0.00    -0.204 F 
ATOM     10  C   UNL     1      34.708 -19.171 -21.245  0.00  0.00    +0.023 C 
ATOM     11  C   UNL     1      35.816 -19.854 -20.756  0.00  0.00    +0.029 C 
ATOM     12  C   UNL     1      33.421 -19.578 -20.913  0.00  0.00    -0.001 C 
ATOM     13  C   UNL     1      35.634 -20.959 -19.926  0.00  0.00    +0.140 C 
ATOM     14  C   UNL     1      33.239 -20.684 -20.083  0.00  0.00    +0.002 C 
ATOM     15  C   UNL     1      34.346 -21.374 -19.589  0.00  0.00    +0.030 C 
ENDBRANCH   8  10
ENDBRANCH   7   8
ENDBRANCH   4   7
BRANCH   1  16
ATOM     16  C   UNL     1      31.861 -12.335 -22.333  0.00  0.00    -0.054 C 
BRANCH  16  17
ATOM     17  N   UNL     1      32.448 -11.107 -21.818  0.00  0.00    +0.393 N 
ATOM     18  H   UNL     1      32.728 -10.516 -22.601  0.00  0.00    -0.083 HD
ATOM     19  H   UNL     1      33.259 -11.347 -21.247  0.00  0.00    -0.083 HD
BRANCH  17  20
ATOM     20  C   UNL     1      31.490 -10.381 -20.989  0.00  0.00    +0.017 C 
ATOM     21  C   UNL     1      31.374 -11.038 -19.618  0.00  0.00    -0.014 C 
BRANCH  20  24
ATOM     22  O   UNL     1      31.777  -8.069 -21.686  0.00  0.00    -0.278 OA
ATOM     23  N   UNL     1      32.645  -8.724 -19.663  0.00  0.00    -0.330 N 
ATOM     24  C   UNL     1      31.972  -8.946 -20.848  0.00  0.00    +0.199 C 
ATOM     25  H   UNL     1      33.003  -7.829 -19.462  0.00  0.00    +0.145 HD
ATOM     26  H   UNL     1      32.766  -9.459 -19.020  0.00  0.00    +0.145 HD
ENDBRANCH  20  24
ENDBRANCH  17  20
ENDBRANCH  16  17
ENDBRANCH   1  16
TORSDOF 7
ENDMDL
MODEL 7
REMARK VINA RESULT:      -9.4      4.264      6.467
REMARK  Name = 131682
REMARK  7 active torsions:
REMARK  status: ('A' for Active; 'I' for Inactive)
REMARK    1  A    between atoms: C_1  and  C_16
REMARK    2  A    between atoms: C_4  and  O_7
REMARK    3  A    between atoms: O_7  and  C_8
REMARK    4  A    between atoms: C_8  and  C_10
REMARK    5  A    between atoms: C_16  and  N_17
REMARK    6  A    between atoms: N_17  and  C_20
REMARK    7  A    between atoms: C_20  and  C_24
REMARK                            x       y       z     vdW  Elec       q    Type
REMARK                         _______ _______ _______ _____ _____    ______ ____
ROOT
ATOM      1  C   UNL     1      33.278 -13.828 -22.462  0.00  0.00    -0.044 C 
ATOM      2  C   UNL     1      34.311 -14.469 -23.135  0.00  0.00    -0.003 C 
ATOM      3  C   UNL     1      32.727 -14.383 -21.312  0.00  0.00    -0.003 C 
ATOM      4  C   UNL     1      34.256 -16.245 -21.498  0.00  0.00    +0.139 C 
ATOM      5  C   UNL     1      34.802 -15.681 -22.651  0.00  0.00    +0.037 C 
ATOM      6  C   UNL     1      33.219 -15.595 -20.829  0.00  0.00    +0.037 C 
ENDROOT
BRANCH   4   7
ATOM      7  O   UNL     1      34.735 -17.429 -21.027  0.00  0.00    -0.471 OA
BRANCH   7   8
ATOM      8  C   UNL     1      34.216 -18.619 -21.616  0.00  0.00    +0.232 C 
BRANCH   8  10
ATOM      9  F   UNL     1      32.921 -22.340 -18.758  0.00  0.00    -0.204 F 
ATOM     10  C   UNL     1      34.570 -19.791 -20.748  0.00  0.00    +0.023 C 
ATOM     11  C   UNL     1      33.559 -20.533 -20.147  0.00  0.00    +0.029 C 
ATOM     12  C   UNL     1      35.905 -20.123 -20.552  0.00  0.00    -0.001 C 
ATOM     13  C   UNL     1      33.889 -21.621 -19.340  0.00  0.00    +0.140 C 
ATOM     14  C   UNL     1      36.235 -21.211 -19.744  0.00  0.00    +0.002 C 
ATOM     15  C   UNL     1      35.226 -21.960 -19.138  0.00  0.00    +0.030 C 
ENDBRANCH   8  10
ENDBRANCH   7   8
ENDBRANCH   4   7
BRANCH   1  16
ATOM     16  C   UNL     1      32.750 -12.523 -22.983  0.00  0.00    -0.054 C 
BRANCH  16  17
ATOM     17  N   UNL     1      33.643 -11.926 -23.964  0.00  0.00    +0.393 N 
ATOM     18  H   UNL     1      33.511 -12.390 -24.863  0.00  0.00    -0.083 HD
ATOM     19  H   UNL     1      34.605 -12.041 -23.643  0.00  0.00    -0.083 HD
BRANCH  17  20
ATOM     20  C   UNL     1      33.367 -10.500 -24.117  0.00  0.00    +0.017 C 
ATOM     21  C   UNL     1      32.608  -9.976 -22.903  0.00  0.00    -0.014 C 
BRANCH  20  24
ATOM     22  O   UNL     1      34.987  -8.746 -23.652  0.00  0.00    -0.278 OA
ATOM     23  N   UNL     1      35.549 -10.392 -25.149  0.00  0.00    -0.330 N 
ATOM     24  C   UNL     1      34.694  -9.771 -24.263  0.00  0.00    +0.199 C 
ATOM     25  H   UNL     1      36.440 -10.010 -25.324  0.00  0.00    +0.145 HD
ATOM     26  H   UNL     1      35.269 -11.218 -25.607  0.00  0.00    +0.145 HD
ENDBRANCH  20  24
ENDBRANCH  17  20
ENDBRANCH  16  17
ENDBRANCH   1  16
TORSDOF 7
ENDMDL
MODEL 8
REMARK VINA RESULT:      -9.4      4.921      9.238
REMARK  Name = 131682
REMARK  7 active torsions:
REMARK  status: ('A' for Active; 'I' for Inactive)
REMARK    1  A    between atoms: C_1  and  C_16
REMARK    2  A    between atoms: C_4  and  O_7
REMARK    3  A    between atoms: O_7  and  C_8
REMARK    4  A    between atoms: C_8  and  C_10
REMARK    5  A    between atoms: C_16  and  N_17
REMARK    6  A    between atoms: N_17  and  C_20
REMARK    7  A    between atoms: C_20  and  C_24
REMARK                            x       y       z     vdW  Elec       q    Type
REMARK                         _______ _______ _______ _____ _____    ______ ____
ROOT
ATOM      1  C   UNL     1      35.967 -22.511 -16.785  0.00  0.00    -0.044 C 
ATOM      2  C   UNL     1      34.705 -22.800 -17.288  0.00  0.00    -0.003 C 
ATOM      3  C   UNL     1      36.876 -21.770 -17.529  0.00  0.00    -0.003 C 
ATOM      4  C   UNL     1      35.251 -21.594 -19.309  0.00  0.00    +0.139 C 
ATOM      5  C   UNL     1      34.345 -22.339 -18.555  0.00  0.00    +0.037 C 
ATOM      6  C   UNL     1      36.517 -21.309 -18.796  0.00  0.00    +0.037 C 
ENDROOT
BRANCH   4   7
ATOM      7  O   UNL     1      34.900 -21.145 -20.545  0.00  0.00    -0.471 OA
BRANCH   7   8
ATOM      8  C   UNL     1      33.908 -20.121 -20.606  0.00  0.00    +0.232 C 
BRANCH   8  10
ATOM      9  F   UNL     1      34.909 -15.431 -21.439  0.00  0.00    -0.204 F 
ATOM     10  C   UNL     1      34.392 -19.024 -21.508  0.00  0.00    +0.023 C 
ATOM     11  C   UNL     1      34.425 -17.714 -21.042  0.00  0.00    +0.029 C 
ATOM     12  C   UNL     1      34.801 -19.327 -22.801  0.00  0.00    -0.001 C 
ATOM     13  C   UNL     1      34.874 -16.695 -21.881  0.00  0.00    +0.140 C 
ATOM     14  C   UNL     1      35.249 -18.307 -23.640  0.00  0.00    +0.002 C 
ATOM     15  C   UNL     1      35.286 -16.991 -23.179  0.00  0.00    +0.030 C 
ENDBRANCH   8  10
ENDBRANCH   7   8
ENDBRANCH   4   7
BRANCH   1  16
ATOM     16  C   UNL     1      36.353 -23.007 -15.421  0.00  0.00    -0.054 C 
BRANCH  16  17
ATOM     17  N   UNL     1      37.317 -24.095 -15.489  0.00  0.00    +0.393 N 
ATOM     18  H   UNL     1      38.260 -23.705 -15.518  0.00  0.00    -0.083 HD
ATOM     19  H   UNL     1      37.134 -24.642 -16.330  0.00  0.00    -0.083 HD
BRANCH  17  20
ATOM     20  C   UNL     1      37.197 -24.968 -14.325  0.00  0.00    +0.017 C 
ATOM     21  C   UNL     1      35.850 -24.756 -13.643  0.00  0.00    -0.014 C 
BRANCH  20  24
ATOM     22  O   UNL     1      38.376 -27.050 -14.759  0.00  0.00    -0.278 OA
ATOM     23  N   UNL     1      36.137 -26.932 -15.254  0.00  0.00    -0.330 N 
ATOM     24  C   UNL     1      37.329 -26.409 -14.794  0.00  0.00    +0.199 C 
ATOM     25  H   UNL     1      36.101 -27.859 -15.583  0.00  0.00    +0.145 HD
ATOM     26  H   UNL     1      35.323 -26.377 -15.252  0.00  0.00    +0.145 HD
ENDBRANCH  20  24
ENDBRANCH  17  20
ENDBRANCH  16  17
ENDBRANCH   1  16
TORSDOF 7
ENDMDL
MODEL 9
REMARK VINA RESULT:      -9.4      4.291      8.910
REMARK  Name = 131682
REMARK  7 active torsions:
REMARK  status: ('A' for Active; 'I' for Inactive)
REMARK    1  A    between atoms: C_1  and  C_16
REMARK    2  A    between atoms: C_4  and  O_7
REMARK    3  A    between atoms: O_7  and  C_8
REMARK    4  A    between atoms: C_8  and  C_10
REMARK    5  A    between atoms: C_16  and  N_17
REMARK    6  A    between atoms: N_17  and  C_20
REMARK    7  A    between atoms: C_20  and  C_24
REMARK                            x       y       z     vdW  Elec       q    Type
REMARK                         _______ _______ _______ _____ _____    ______ ____
ROOT
ATOM      1  C   UNL     1      33.776 -21.771 -19.072  0.00  0.00    -0.044 C 
ATOM      2  C   UNL     1      35.125 -21.654 -19.382  0.00  0.00    -0.003 C 
ATOM      3  C   UNL     1      32.834 -20.949 -19.679  0.00  0.00    -0.003 C 
ATOM      4  C   UNL     1      34.601 -19.873 -20.928  0.00  0.00    +0.139 C 
ATOM      5  C   UNL     1      35.540 -20.702 -20.313  0.00  0.00    +0.037 C 
ATOM      6  C   UNL     1      33.248 -19.997 -20.611  0.00  0.00    +0.037 C 
ENDROOT
BRANCH   4   7
ATOM      7  O   UNL     1      35.006 -18.944 -21.836  0.00  0.00    -0.471 OA
BRANCH   7   8
ATOM      8  C   UNL     1      35.640 -17.772 -21.326  0.00  0.00    +0.232 C 
BRANCH   8  10
ATOM      9  F   UNL     1      32.832 -13.910 -20.382  0.00  0.00    -0.204 F 
ATOM     10  C   UNL     1      34.876 -16.563 -21.782  0.00  0.00    +0.023 C 
ATOM     11  C   UNL     1      34.197 -15.786 -20.850  0.00  0.00    +0.029 C 
ATOM     12  C   UNL     1      34.853 -16.233 -23.132  0.00  0.00    -0.001 C 
ATOM     13  C   UNL     1      33.488 -14.663 -21.274  0.00  0.00    +0.140 C 
ATOM     14  C   UNL     1      34.142 -15.111 -23.556  0.00  0.00    +0.002 C 
ATOM     15  C   UNL     1      33.460 -14.326 -22.627  0.00  0.00    +0.030 C 
ENDBRANCH   8  10
ENDBRANCH   7   8
ENDBRANCH   4   7
BRANCH   1  16
ATOM     16  C   UNL     1      33.331 -22.796 -18.069  0.00  0.00    -0.054 C 
BRANCH  16  17
ATOM     17  N   UNL     1      34.414 -23.202 -17.187  0.00  0.00    +0.393 N 
ATOM     18  H   UNL     1      35.182 -22.536 -17.272  0.00  0.00    -0.083 HD
ATOM     19  H   UNL     1      34.723 -24.137 -17.456  0.00  0.00    -0.083 HD
BRANCH  17  20
ATOM     20  C   UNL     1      33.965 -23.240 -15.797  0.00  0.00    +0.017 C 
ATOM     21  C   UNL     1      32.454 -23.431 -15.737  0.00  0.00    -0.014 C 
BRANCH  20  24
ATOM     22  O   UNL     1      35.711 -24.906 -15.502  0.00  0.00    -0.278 OA
ATOM     23  N   UNL     1      34.026 -24.793 -13.947  0.00  0.00    -0.330 N 
ATOM     24  C   UNL     1      34.671 -24.391 -15.099  0.00  0.00    +0.199 C 
ATOM     25  H   UNL     1      34.393 -25.532 -13.410  0.00  0.00    +0.145 HD
ATOM     26  H   UNL     1      33.199 -24.340 -13.663  0.00  0.00    +0.145 HD
ENDBRANCH  20  24
ENDBRANCH  17  20
ENDBRANCH  16  17
ENDBRANCH   1  16
TORSDOF 7
ENDMDL
