MODEL 1
REMARK VINA RESULT:      -7.8      0.000      0.000
REMARK  Name = 34154
REMARK  4 active torsions:
REMARK  status: ('A' for Active; 'I' for Inactive)
REMARK    1  A    between atoms: C_1  and  C_8
REMARK    2  A    between atoms: C_2  and  O_11
REMARK    3  A    between atoms: O_11  and  C_12
REMARK    4  A    between atoms: C_12  and  C_15
REMARK                            x       y       z     vdW  Elec       q    Type
REMARK                         _______ _______ _______ _____ _____    ______ ____
ROOT
ATOM      1  C   UNL     1      32.834  -8.490 -22.539  0.00  0.00    +0.011 C 
ATOM      2  C   UNL     1      32.508  -9.831 -22.695  0.00  0.00    +0.135 C 
ATOM      3  C   UNL     1      32.630  -7.873 -21.305  0.00  0.00    -0.002 C 
ATOM      4  C   UNL     1      31.982 -10.565 -21.640  0.00  0.00    +0.032 C 
ATOM      5  C   UNL     1      31.778  -9.948 -20.407  0.00  0.00    -0.019 C 
ATOM      6  C   UNL     1      32.102  -8.602 -20.238  0.00  0.00    -0.004 C 
ATOM      7  C   UNL     1      31.214 -10.727 -19.267  0.00  0.00    +0.031 C 
ENDROOT
BRANCH   1   8
ATOM      8  C   UNL     1      33.399  -7.695 -23.669  0.00  0.00    +0.025 C 
ATOM      9  C   UNL     1      34.910  -7.444 -23.512  0.00  0.00    +0.005 C 
ATOM     10  C   UNL     1      32.664  -6.357 -23.871  0.00  0.00    +0.005 C 
ENDBRANCH   1   8
BRANCH   2  11
ATOM     11  O   UNL     1      32.702 -10.456 -23.905  0.00  0.00    -0.468 OA
BRANCH  11  12
ATOM     12  C   UNL     1      33.972 -11.023 -24.141  0.00  0.00    +0.266 C 
BRANCH  12  15
ATOM     13  N   UNL     1      34.091 -13.332 -23.223  0.00  0.00    -0.296 N 
ATOM     14  N   UNL     1      33.290 -13.054 -25.335  0.00  0.00    -0.228 NA
ATOM     15  C   UNL     1      33.782 -12.500 -24.256  0.00  0.00    +0.154 C 
ATOM     16  C   UNL     1      33.780 -14.685 -23.572  0.00  0.00    +0.084 C 
ATOM     17  C   UNL     1      33.275 -14.515 -25.013  0.00  0.00    +0.116 C 
ATOM     18  H   UNL     1      34.474 -13.045 -22.362  0.00  0.00    +0.153 HD
ENDBRANCH  12  15
ENDBRANCH  11  12
ENDBRANCH   2  11
TORSDOF 4
ENDMDL
MODEL 2
REMARK VINA RESULT:      -7.6      2.504      5.360
REMARK  Name = 34154
REMARK  4 active torsions:
REMARK  status: ('A' for Active; 'I' for Inactive)
REMARK    1  A    between atoms: C_1  and  C_8
REMARK    2  A    between atoms: C_2  and  O_11
REMARK    3  A    between atoms: O_11  and  C_12
REMARK    4  A    between atoms: C_12  and  C_15
REMARK                            x       y       z     vdW  Elec       q    Type
REMARK                         _______ _______ _______ _____ _____    ______ ____
ROOT
ATOM      1  C   UNL     1      33.264 -12.384 -23.573  0.00  0.00    +0.011 C 
ATOM      2  C   UNL     1      32.371 -12.238 -22.519  0.00  0.00    +0.135 C 
ATOM      3  C   UNL     1      33.973 -13.576 -23.712  0.00  0.00    -0.002 C 
ATOM      4  C   UNL     1      32.174 -13.263 -21.604  0.00  0.00    +0.032 C 
ATOM      5  C   UNL     1      32.883 -14.455 -21.744  0.00  0.00    -0.019 C 
ATOM      6  C   UNL     1      33.782 -14.613 -22.798  0.00  0.00    -0.004 C 
ATOM      7  C   UNL     1      32.679 -15.564 -20.766  0.00  0.00    +0.031 C 
ENDROOT
BRANCH   1   8
ATOM      8  C   UNL     1      33.481 -11.285 -24.560  0.00  0.00    +0.025 C 
ATOM      9  C   UNL     1      33.928 -11.812 -25.936  0.00  0.00    +0.005 C 
ATOM     10  C   UNL     1      34.481 -10.229 -24.053  0.00  0.00    +0.005 C 
ENDBRANCH   1   8
BRANCH   2  11
ATOM     11  O   UNL     1      31.664 -11.068 -22.366  0.00  0.00    -0.468 OA
BRANCH  11  12
ATOM     12  C   UNL     1      31.414 -10.632 -21.048  0.00  0.00    +0.266 C 
BRANCH  12  15
ATOM     13  N   UNL     1      32.011  -8.436 -22.051  0.00  0.00    -0.296 N 
ATOM     14  N   UNL     1      32.232  -8.687 -19.799  0.00  0.00    -0.228 NA
ATOM     15  C   UNL     1      31.905  -9.226 -20.947  0.00  0.00    +0.154 C 
ATOM     16  C   UNL     1      32.465  -7.130 -21.678  0.00  0.00    +0.084 C 
ATOM     17  C   UNL     1      32.656  -7.299 -20.163  0.00  0.00    +0.116 C 
ATOM     18  H   UNL     1      31.805  -8.721 -22.970  0.00  0.00    +0.153 HD
ENDBRANCH  12  15
ENDBRANCH  11  12
ENDBRANCH   2  11
TORSDOF 4
ENDMDL
MODEL 3
REMARK VINA RESULT:      -7.6     13.017     15.632
REMARK  Name = 34154
REMARK  4 active torsions:
REMARK  status: ('A' for Active; 'I' for Inactive)
REMARK    1  A    between atoms: C_1  and  C_8
REMARK    2  A    between atoms: C_2  and  O_11
REMARK    3  A    between atoms: O_11  and  C_12
REMARK    4  A    between atoms: C_12  and  C_15
REMARK                            x       y       z     vdW  Elec       q    Type
REMARK                         _______ _______ _______ _____ _____    ______ ____
ROOT
ATOM      1  C   UNL     1      34.492 -22.898 -16.544  0.00  0.00    +0.011 C 
ATOM      2  C   UNL     1      35.800 -22.439 -16.628  0.00  0.00    +0.135 C 
ATOM      3  C   UNL     1      33.676 -22.856 -17.674  0.00  0.00    -0.002 C 
ATOM      4  C   UNL     1      36.306 -21.939 -17.821  0.00  0.00    +0.032 C 
ATOM      5  C   UNL     1      35.489 -21.897 -18.950  0.00  0.00    -0.019 C 
ATOM      6  C   UNL     1      34.174 -22.355 -18.878  0.00  0.00    -0.004 C 
ATOM      7  C   UNL     1      36.022 -21.363 -20.237  0.00  0.00    +0.031 C 
ENDROOT
BRANCH   1   8
ATOM      8  C   UNL     1      33.942 -23.436 -15.265  0.00  0.00    +0.025 C 
ATOM      9  C   UNL     1      34.398 -24.881 -14.992  0.00  0.00    +0.005 C 
ATOM     10  C   UNL     1      32.406 -23.351 -15.204  0.00  0.00    +0.005 C 
ENDBRANCH   1   8
BRANCH   2  11
ATOM     11  O   UNL     1      36.619 -22.473 -15.524  0.00  0.00    -0.468 OA
BRANCH  11  12
ATOM     12  C   UNL     1      37.902 -23.039 -15.689  0.00  0.00    +0.266 C 
BRANCH  12  15
ATOM     13  N   UNL     1      37.796 -25.497 -15.320  0.00  0.00    -0.296 N 
ATOM     14  N   UNL     1      38.216 -24.157 -13.529  0.00  0.00    -0.228 NA
ATOM     15  C   UNL     1      37.968 -24.245 -14.811  0.00  0.00    +0.154 C 
ATOM     16  C   UNL     1      37.946 -26.473 -14.283  0.00  0.00    +0.084 C 
ATOM     17  C   UNL     1      38.191 -25.577 -13.060  0.00  0.00    +0.116 C 
ATOM     18  H   UNL     1      37.597 -25.700 -16.262  0.00  0.00    +0.153 HD
ENDBRANCH  12  15
ENDBRANCH  11  12
ENDBRANCH   2  11
TORSDOF 4
ENDMDL
MODEL 4
REMARK VINA RESULT:      -7.5      6.585      9.490
REMARK  Name = 34154
REMARK  4 active torsions:
REMARK  status: ('A' for Active; 'I' for Inactive)
REMARK    1  A    between atoms: C_1  and  C_8
REMARK    2  A    between atoms: C_2  and  O_11
REMARK    3  A    between atoms: O_11  and  C_12
REMARK    4  A    between atoms: C_12  and  C_15
REMARK                            x       y       z     vdW  Elec       q    Type
REMARK                         _______ _______ _______ _____ _____    ______ ____
ROOT
ATOM      1  C   UNL     1      34.311 -16.972 -22.242  0.00  0.00    +0.011 C 
ATOM      2  C   UNL     1      34.278 -18.331 -21.961  0.00  0.00    +0.135 C 
ATOM      3  C   UNL     1      34.573 -16.545 -23.543  0.00  0.00    -0.002 C 
ATOM      4  C   UNL     1      34.501 -19.271 -22.958  0.00  0.00    +0.032 C 
ATOM      5  C   UNL     1      34.763 -18.845 -24.260  0.00  0.00    -0.019 C 
ATOM      6  C   UNL     1      34.799 -17.481 -24.553  0.00  0.00    -0.004 C 
ATOM      7  C   UNL     1      35.004 -19.846 -25.339  0.00  0.00    +0.031 C 
ENDROOT
BRANCH   1   8
ATOM      8  C   UNL     1      34.073 -15.956 -21.174  0.00  0.00    +0.025 C 
ATOM      9  C   UNL     1      32.574 -15.736 -20.898  0.00  0.00    +0.005 C 
ATOM     10  C   UNL     1      34.751 -14.608 -21.484  0.00  0.00    +0.005 C 
ENDBRANCH   1   8
BRANCH   2  11
ATOM     11  O   UNL     1      34.021 -18.769 -20.683  0.00  0.00    -0.468 OA
BRANCH  11  12
ATOM     12  C   UNL     1      33.006 -19.737 -20.524  0.00  0.00    +0.266 C 
BRANCH  12  15
ATOM     13  N   UNL     1      34.943 -20.941 -19.530  0.00  0.00    -0.296 N 
ATOM     14  N   UNL     1      32.880 -21.886 -19.350  0.00  0.00    -0.228 NA
ATOM     15  C   UNL     1      33.607 -20.891 -19.792  0.00  0.00    +0.154 C 
ATOM     16  C   UNL     1      35.254 -22.123 -18.786  0.00  0.00    +0.084 C 
ATOM     17  C   UNL     1      33.874 -22.791 -18.693  0.00  0.00    +0.116 C 
ATOM     18  H   UNL     1      35.599 -20.262 -19.812  0.00  0.00    +0.153 HD
ENDBRANCH  12  15
ENDBRANCH  11  12
ENDBRANCH   2  11
TORSDOF 4
ENDMDL
MODEL 5
REMARK VINA RESULT:      -7.5      2.440      3.554
REMARK  Name = 34154
REMARK  4 active torsions:
REMARK  status: ('A' for Active; 'I' for Inactive)
REMARK    1  A    between atoms: C_1  and  C_8
REMARK    2  A    between atoms: C_2  and  O_11
REMARK    3  A    between atoms: O_11  and  C_12
REMARK    4  A    between atoms: C_12  and  C_15
REMARK                            x       y       z     vdW  Elec       q    Type
REMARK                         _______ _______ _______ _____ _____    ______ ____
ROOT
ATOM      1  C   UNL     1      33.411 -11.604 -23.935  0.00  0.00    +0.011 C 
ATOM      2  C   UNL     1      32.956 -12.721 -23.247  0.00  0.00    +0.135 C 
ATOM      3  C   UNL     1      33.011 -10.333 -23.525  0.00  0.00    -0.002 C 
ATOM      4  C   UNL     1      32.107 -12.589 -22.156  0.00  0.00    +0.032 C 
ATOM      5  C   UNL     1      31.707 -11.318 -21.746  0.00  0.00    -0.019 C 
ATOM      6  C   UNL     1      32.159 -10.189 -22.430  0.00  0.00    -0.004 C 
ATOM      7  C   UNL     1      30.796 -11.164 -20.574  0.00  0.00    +0.031 C 
ENDROOT
BRANCH   1   8
ATOM      8  C   UNL     1      34.323 -11.740 -25.110  0.00  0.00    +0.025 C 
ATOM      9  C   UNL     1      35.118 -10.450 -25.387  0.00  0.00    +0.005 C 
ATOM     10  C   UNL     1      33.579 -12.180 -26.384  0.00  0.00    +0.005 C 
ENDBRANCH   1   8
BRANCH   2  11
ATOM     11  O   UNL     1      33.341 -13.982 -23.638  0.00  0.00    -0.468 OA
BRANCH  11  12
ATOM     12  C   UNL     1      34.329 -14.625 -22.863  0.00  0.00    +0.266 C 
BRANCH  12  15
ATOM     13  N   UNL     1      35.220 -16.947 -22.813  0.00  0.00    -0.296 N 
ATOM     14  N   UNL     1      34.228 -16.215 -24.727  0.00  0.00    -0.228 NA
ATOM     15  C   UNL     1      34.597 -15.948 -23.499  0.00  0.00    +0.154 C 
ATOM     16  C   UNL     1      35.319 -18.118 -23.631  0.00  0.00    +0.084 C 
ATOM     17  C   UNL     1      34.688 -17.622 -24.941  0.00  0.00    +0.116 C 
ATOM     18  H   UNL     1      35.553 -16.874 -21.889  0.00  0.00    +0.153 HD
ENDBRANCH  12  15
ENDBRANCH  11  12
ENDBRANCH   2  11
TORSDOF 4
ENDMDL
MODEL 6
REMARK VINA RESULT:      -7.5      3.107      6.752
REMARK  Name = 34154
REMARK  4 active torsions:
REMARK  status: ('A' for Active; 'I' for Inactive)
REMARK    1  A    between atoms: C_1  and  C_8
REMARK    2  A    between atoms: C_2  and  O_11
REMARK    3  A    between atoms: O_11  and  C_12
REMARK    4  A    between atoms: C_12  and  C_15
REMARK                            x       y       z     vdW  Elec       q    Type
REMARK                         _______ _______ _______ _____ _____    ______ ____
ROOT
ATOM      1  C   UNL     1      33.832 -15.207 -24.292  0.00  0.00    +0.011 C 
ATOM      2  C   UNL     1      34.156 -15.143 -22.943  0.00  0.00    +0.135 C 
ATOM      3  C   UNL     1      34.218 -16.319 -25.040  0.00  0.00    -0.002 C 
ATOM      4  C   UNL     1      34.859 -16.171 -22.329  0.00  0.00    +0.032 C 
ATOM      5  C   UNL     1      35.245 -17.283 -23.077  0.00  0.00    -0.019 C 
ATOM      6  C   UNL     1      34.925 -17.357 -24.433  0.00  0.00    -0.004 C 
ATOM      7  C   UNL     1      36.000 -18.394 -22.427  0.00  0.00    +0.031 C 
ENDROOT
BRANCH   1   8
ATOM      8  C   UNL     1      33.077 -14.104 -24.959  0.00  0.00    +0.025 C 
ATOM      9  C   UNL     1      32.697 -14.448 -26.410  0.00  0.00    +0.005 C 
ATOM     10  C   UNL     1      33.837 -12.765 -24.919  0.00  0.00    +0.005 C 
ENDBRANCH   1   8
BRANCH   2  11
ATOM     11  O   UNL     1      33.783 -14.054 -22.191  0.00  0.00    -0.468 OA
BRANCH  11  12
ATOM     12  C   UNL     1      32.680 -14.214 -21.326  0.00  0.00    +0.266 C 
BRANCH  12  15
ATOM     13  N   UNL     1      31.474 -12.263 -22.289  0.00  0.00    -0.296 N 
ATOM     14  N   UNL     1      31.910 -12.263 -20.055  0.00  0.00    -0.228 NA
ATOM     15  C   UNL     1      32.018 -12.881 -21.204  0.00  0.00    +0.154 C 
ATOM     16  C   UNL     1      30.870 -11.025 -21.897  0.00  0.00    +0.084 C 
ATOM     17  C   UNL     1      31.194 -10.995 -20.396  0.00  0.00    +0.116 C 
ATOM     18  H   UNL     1      31.494 -12.615 -23.208  0.00  0.00    +0.153 HD
ENDBRANCH  12  15
ENDBRANCH  11  12
ENDBRANCH   2  11
TORSDOF 4
ENDMDL
MODEL 7
REMARK VINA RESULT:      -7.5     11.179     14.358
REMARK  Name = 34154
REMARK  4 active torsions:
REMARK  status: ('A' for Active; 'I' for Inactive)
REMARK    1  A    between atoms: C_1  and  C_8
REMARK    2  A    between atoms: C_2  and  O_11
REMARK    3  A    between atoms: O_11  and  C_12
REMARK    4  A    between atoms: C_12  and  C_15
REMARK                            x       y       z     vdW  Elec       q    Type
REMARK                         _______ _______ _______ _____ _____    ______ ____
ROOT
ATOM      1  C   UNL     1      32.182 -23.562 -15.511  0.00  0.00    +0.011 C 
ATOM      2  C   UNL     1      33.164 -23.184 -16.418  0.00  0.00    +0.135 C 
ATOM      3  C   UNL     1      32.548 -23.936 -14.218  0.00  0.00    -0.002 C 
ATOM      4  C   UNL     1      34.504 -23.174 -16.055  0.00  0.00    +0.032 C 
ATOM      5  C   UNL     1      34.870 -23.548 -14.762  0.00  0.00    -0.019 C 
ATOM      6  C   UNL     1      33.892 -23.929 -13.843  0.00  0.00    -0.004 C 
ATOM      7  C   UNL     1      36.307 -23.540 -14.361  0.00  0.00    +0.031 C 
ENDROOT
BRANCH   1   8
ATOM      8  C   UNL     1      30.740 -23.576 -15.895  0.00  0.00    +0.025 C 
ATOM      9  C   UNL     1      29.901 -22.589 -15.062  0.00  0.00    +0.005 C 
ATOM     10  C   UNL     1      30.124 -24.985 -15.813  0.00  0.00    +0.005 C 
ENDBRANCH   1   8
BRANCH   2  11
ATOM     11  O   UNL     1      32.821 -22.813 -17.696  0.00  0.00    -0.468 OA
BRANCH  11  12
ATOM     12  C   UNL     1      33.814 -22.934 -18.692  0.00  0.00    +0.266 C 
BRANCH  12  15
ATOM     13  N   UNL     1      34.955 -21.079 -19.895  0.00  0.00    -0.296 N 
ATOM     14  N   UNL     1      32.679 -21.092 -19.847  0.00  0.00    -0.228 NA
ATOM     15  C   UNL     1      33.797 -21.671 -19.487  0.00  0.00    +0.154 C 
ATOM     16  C   UNL     1      34.664 -19.911 -20.670  0.00  0.00    +0.084 C 
ATOM     17  C   UNL     1      33.128 -19.887 -20.610  0.00  0.00    +0.116 C 
ATOM     18  H   UNL     1      35.860 -21.407 -19.686  0.00  0.00    +0.153 HD
ENDBRANCH  12  15
ENDBRANCH  11  12
ENDBRANCH   2  11
TORSDOF 4
ENDMDL
MODEL 8
REMARK VINA RESULT:      -7.5     11.356     14.494
REMARK  Name = 34154
REMARK  4 active torsions:
REMARK  status: ('A' for Active; 'I' for Inactive)
REMARK    1  A    between atoms: C_1  and  C_8
REMARK    2  A    between atoms: C_2  and  O_11
REMARK    3  A    between atoms: O_11  and  C_12
REMARK    4  A    between atoms: C_12  and  C_15
REMARK                            x       y       z     vdW  Elec       q    Type
REMARK                         _______ _______ _______ _____ _____    ______ ____
ROOT
ATOM      1  C   UNL     1      34.438 -23.903 -15.293  0.00  0.00    +0.011 C 
ATOM      2  C   UNL     1      33.753 -23.318 -16.351  0.00  0.00    +0.135 C 
ATOM      3  C   UNL     1      33.741 -24.271 -14.143  0.00  0.00    -0.002 C 
ATOM      4  C   UNL     1      32.385 -23.095 -16.278  0.00  0.00    +0.032 C 
ATOM      5  C   UNL     1      31.688 -23.463 -15.128  0.00  0.00    -0.019 C 
ATOM      6  C   UNL     1      32.365 -24.051 -14.060  0.00  0.00    -0.004 C 
ATOM      7  C   UNL     1      30.217 -23.228 -15.040  0.00  0.00    +0.031 C 
ENDROOT
BRANCH   1   8
ATOM      8  C   UNL     1      35.909 -24.145 -15.365  0.00  0.00    +0.025 C 
ATOM      9  C   UNL     1      36.283 -25.597 -15.014  0.00  0.00    +0.005 C 
ATOM     10  C   UNL     1      36.708 -23.171 -14.479  0.00  0.00    +0.005 C 
ENDBRANCH   1   8
BRANCH   2  11
ATOM     11  O   UNL     1      34.425 -22.949 -17.492  0.00  0.00    -0.468 OA
BRANCH  11  12
ATOM     12  C   UNL     1      33.754 -23.124 -18.722  0.00  0.00    +0.266 C 
BRANCH  12  15
ATOM     13  N   UNL     1      35.066 -21.330 -19.840  0.00  0.00    -0.296 N 
ATOM     14  N   UNL     1      32.797 -21.148 -19.815  0.00  0.00    -0.228 NA
ATOM     15  C   UNL     1      33.856 -21.834 -19.467  0.00  0.00    +0.154 C 
ATOM     16  C   UNL     1      34.886 -20.113 -20.572  0.00  0.00    +0.084 C 
ATOM     17  C   UNL     1      33.358 -19.958 -20.526  0.00  0.00    +0.116 C 
ATOM     18  H   UNL     1      35.936 -21.742 -19.635  0.00  0.00    +0.153 HD
ENDBRANCH  12  15
ENDBRANCH  11  12
ENDBRANCH   2  11
TORSDOF 4
ENDMDL
MODEL 9
REMARK VINA RESULT:      -7.4      2.940      5.447
REMARK  Name = 34154
REMARK  4 active torsions:
REMARK  status: ('A' for Active; 'I' for Inactive)
REMARK    1  A    between atoms: C_1  and  C_8
REMARK    2  A    between atoms: C_2  and  O_11
REMARK    3  A    between atoms: O_11  and  C_12
REMARK    4  A    between atoms: C_12  and  C_15
REMARK                            x       y       z     vdW  Elec       q    Type
REMARK                         _______ _______ _______ _____ _____    ______ ____
ROOT
ATOM      1  C   UNL     1      33.001 -14.016 -21.872  0.00  0.00    +0.011 C 
ATOM      2  C   UNL     1      33.643 -13.630 -23.041  0.00  0.00    +0.135 C 
ATOM      3  C   UNL     1      32.149 -13.120 -21.228  0.00  0.00    -0.002 C 
ATOM      4  C   UNL     1      33.447 -12.364 -23.578  0.00  0.00    +0.032 C 
ATOM      5  C   UNL     1      32.595 -11.468 -22.934  0.00  0.00    -0.019 C 
ATOM      6  C   UNL     1      31.944 -11.846 -21.759  0.00  0.00    -0.004 C 
ATOM      7  C   UNL     1      32.376 -10.106 -23.502  0.00  0.00    +0.031 C 
ENDROOT
BRANCH   1   8
ATOM      8  C   UNL     1      33.208 -15.375 -21.289  0.00  0.00    +0.025 C 
ATOM      9  C   UNL     1      32.002 -15.846 -20.456  0.00  0.00    +0.005 C 
ATOM     10  C   UNL     1      34.494 -15.463 -20.446  0.00  0.00    +0.005 C 
ENDBRANCH   1   8
BRANCH   2  11
ATOM     11  O   UNL     1      34.487 -14.500 -23.689  0.00  0.00    -0.468 OA
BRANCH  11  12
ATOM     12  C   UNL     1      33.967 -15.198 -24.800  0.00  0.00    +0.266 C 
BRANCH  12  15
ATOM     13  N   UNL     1      35.218 -17.022 -23.661  0.00  0.00    -0.296 N 
ATOM     14  N   UNL     1      33.922 -17.561 -25.453  0.00  0.00    -0.228 NA
ATOM     15  C   UNL     1      34.374 -16.627 -24.655  0.00  0.00    +0.154 C 
ATOM     16  C   UNL     1      35.414 -18.439 -23.717  0.00  0.00    +0.084 C 
ATOM     17  C   UNL     1      34.575 -18.809 -24.950  0.00  0.00    +0.116 C 
ATOM     18  H   UNL     1      35.632 -16.420 -23.001  0.00  0.00    +0.153 HD
ENDBRANCH  12  15
ENDBRANCH  11  12
ENDBRANCH   2  11
TORSDOF 4
ENDMDL
