MODEL 1
REMARK VINA RESULT:     -10.0      0.000      0.000
REMARK  Name = 42690
REMARK  9 active torsions:
REMARK  status: ('A' for Active; 'I' for Inactive)
REMARK    1  A    between atoms: C_1  and  N_22
REMARK    2  A    between atoms: C_2  and  N_8
REMARK    3  A    between atoms: C_4  and  S_28
REMARK    4  A    between atoms: N_10  and  C_18
REMARK    5  A    between atoms: C_12  and  O_15
REMARK    6  A    between atoms: C_18  and  O_19
REMARK    7  A    between atoms: C_23  and  C_25
REMARK    8  A    between atoms: C_25  and  O_26
REMARK    9  A    between atoms: S_28  and  C_29
REMARK                            x       y       z     vdW  Elec       q    Type
REMARK                         _______ _______ _______ _____ _____    ______ ____
ROOT
ATOM      1  C   UNL     1      33.944 -15.608 -23.102  0.00  0.00    +0.067 C 
ATOM      2  C   UNL     1      33.801 -14.767 -21.999  0.00  0.00    +0.072 C 
ATOM      3  C   UNL     1      34.671 -16.793 -22.987  0.00  0.00    +0.023 C 
ATOM      4  C   UNL     1      35.256 -17.136 -21.769  0.00  0.00    +0.031 C 
ATOM      5  C   UNL     1      34.387 -15.111 -20.780  0.00  0.00    +0.019 C 
ATOM      6  C   UNL     1      35.114 -16.296 -20.665  0.00  0.00    +0.008 C 
ENDROOT
BRANCH   2   8
ATOM      7  O   UNL     1      30.873 -12.128 -21.103  0.00  0.00    -0.226 OA
ATOM      8  N   UNL     1      33.070 -13.563 -22.092  0.00  0.00    -0.327 N 
ATOM      9  N   UNL     1      32.328 -11.412 -22.789  0.00  0.00    -0.223 N 
ATOM     10  N   UNL     1      34.235 -12.376 -23.785  0.00  0.00    -0.111 NA
ATOM     11  C   UNL     1      33.266 -12.462 -22.911  0.00  0.00    +0.197 C 
ATOM     12  C   UNL     1      31.231 -11.301 -21.934  0.00  0.00    +0.407 C 
ATOM     13  H   UNL     1      32.302 -13.495 -21.480  0.00  0.00    +0.168 HD
ATOM     14  H   UNL     1      32.468 -10.649 -23.396  0.00  0.00    +0.161 HD
BRANCH  12  15
ATOM     15  O   UNL     1      30.601 -10.109 -22.159  0.00  0.00    -0.430 OA
ATOM     16  C   UNL     1      31.337  -9.149 -22.927  0.00  0.00    +0.257 C 
ENDBRANCH  12  15
BRANCH  10  18
ATOM     17  O   UNL     1      34.339 -11.214 -25.786  0.00  0.00    -0.224 OA
ATOM     18  C   UNL     1      34.406 -11.259 -24.562  0.00  0.00    +0.428 C 
BRANCH  18  19
ATOM     19  O   UNL     1      34.629 -10.177 -23.758  0.00  0.00    -0.429 OA
ATOM     20  C   UNL     1      34.940  -8.953 -24.433  0.00  0.00    +0.257 C 
ENDBRANCH  18  19
ENDBRANCH  10  18
ENDBRANCH   2   8
BRANCH   1  22
ATOM     21  O   UNL     1      34.599 -16.564 -25.879  0.00  0.00    -0.272 OA
ATOM     22  N   UNL     1      33.365 -15.284 -24.333  0.00  0.00    -0.281 N 
ATOM     23  C   UNL     1      33.710 -15.765 -25.602  0.00  0.00    +0.256 C 
ATOM     24  H   UNL     1      32.623 -14.638 -24.304  0.00  0.00    +0.155 HD
BRANCH  23  25
ATOM     25  C   UNL     1      32.843 -15.171 -26.691  0.00  0.00    +0.227 C 
BRANCH  25  26
ATOM     26  O   UNL     1      33.559 -14.131 -27.326  0.00  0.00    -0.342 OA
ATOM     27  C   UNL     1      32.757 -12.968 -27.506  0.00  0.00    +0.175 C 
ENDBRANCH  25  26
ENDBRANCH  23  25
ENDBRANCH   1  22
BRANCH   4  28
ATOM     28  S   UNL     1      36.184 -18.650 -21.621  0.00  0.00    -0.087 S 
BRANCH  28  29
ATOM     29  C   UNL     1      34.999 -19.709 -20.804  0.00  0.00    +0.029 C 
ATOM     30  C   UNL     1      33.634 -19.453 -20.928  0.00  0.00    +0.006 C 
ATOM     31  C   UNL     1      35.439 -20.791 -20.042  0.00  0.00    +0.006 C 
ATOM     32  C   UNL     1      32.708 -20.279 -20.291  0.00  0.00    +0.001 C 
ATOM     33  C   UNL     1      34.514 -21.617 -19.404  0.00  0.00    +0.001 C 
ATOM     34  C   UNL     1      33.149 -21.362 -19.528  0.00  0.00    +0.000 C 
ENDBRANCH  28  29
ENDBRANCH   4  28
TORSDOF 9
ENDMDL
MODEL 2
REMARK VINA RESULT:      -9.4      8.276     12.343
REMARK  Name = 42690
REMARK  9 active torsions:
REMARK  status: ('A' for Active; 'I' for Inactive)
REMARK    1  A    between atoms: C_1  and  N_22
REMARK    2  A    between atoms: C_2  and  N_8
REMARK    3  A    between atoms: C_4  and  S_28
REMARK    4  A    between atoms: N_10  and  C_18
REMARK    5  A    between atoms: C_12  and  O_15
REMARK    6  A    between atoms: C_18  and  O_19
REMARK    7  A    between atoms: C_23  and  C_25
REMARK    8  A    between atoms: C_25  and  O_26
REMARK    9  A    between atoms: S_28  and  C_29
REMARK                            x       y       z     vdW  Elec       q    Type
REMARK                         _______ _______ _______ _____ _____    ______ ____
ROOT
ATOM      1  C   UNL     1      35.440 -22.418 -17.029  0.00  0.00    +0.067 C 
ATOM      2  C   UNL     1      34.132 -22.862 -17.218  0.00  0.00    +0.072 C 
ATOM      3  C   UNL     1      36.153 -21.874 -18.098  0.00  0.00    +0.023 C 
ATOM      4  C   UNL     1      35.557 -21.774 -19.355  0.00  0.00    +0.031 C 
ATOM      5  C   UNL     1      33.536 -22.761 -18.475  0.00  0.00    +0.019 C 
ATOM      6  C   UNL     1      34.249 -22.217 -19.544  0.00  0.00    +0.008 C 
ENDROOT
BRANCH   2   8
ATOM      7  O   UNL     1      33.537 -24.946 -13.806  0.00  0.00    -0.226 OA
ATOM      8  N   UNL     1      33.391 -23.417 -16.151  0.00  0.00    -0.327 N 
ATOM      9  N   UNL     1      31.585 -24.061 -14.742  0.00  0.00    -0.223 N 
ATOM     10  N   UNL     1      31.172 -22.743 -16.653  0.00  0.00    -0.111 NA
ATOM     11  C   UNL     1      32.031 -23.365 -15.888  0.00  0.00    +0.197 C 
ATOM     12  C   UNL     1      32.323 -24.783 -13.803  0.00  0.00    +0.407 C 
ATOM     13  H   UNL     1      33.923 -23.919 -15.494  0.00  0.00    +0.168 HD
ATOM     14  H   UNL     1      30.614 -24.034 -14.585  0.00  0.00    +0.161 HD
BRANCH  12  15
ATOM     15  O   UNL     1      31.476 -25.290 -12.857  0.00  0.00    -0.430 OA
ATOM     16  C   UNL     1      30.108 -24.878 -12.958  0.00  0.00    +0.257 C 
ENDBRANCH  12  15
BRANCH  10  18
ATOM     17  O   UNL     1      29.354 -22.362 -15.269  0.00  0.00    -0.224 OA
ATOM     18  C   UNL     1      29.836 -22.698 -16.345  0.00  0.00    +0.428 C 
BRANCH  18  19
ATOM     19  O   UNL     1      29.105 -23.051 -17.445  0.00  0.00    -0.429 OA
ATOM     20  C   UNL     1      27.696 -22.812 -17.360  0.00  0.00    +0.257 C 
ENDBRANCH  18  19
ENDBRANCH  10  18
ENDBRANCH   2   8
BRANCH   1  22
ATOM     21  O   UNL     1      36.443 -24.818 -15.516  0.00  0.00    -0.272 OA
ATOM     22  N   UNL     1      36.057 -22.508 -15.778  0.00  0.00    -0.281 N 
ATOM     23  C   UNL     1      36.509 -23.658 -15.120  0.00  0.00    +0.256 C 
ATOM     24  H   UNL     1      36.191 -21.657 -15.301  0.00  0.00    +0.155 HD
BRANCH  23  25
ATOM     25  C   UNL     1      37.124 -23.339 -13.775  0.00  0.00    +0.227 C 
BRANCH  25  26
ATOM     26  O   UNL     1      38.350 -24.033 -13.658  0.00  0.00    -0.342 OA
ATOM     27  C   UNL     1      38.360 -24.906 -12.533  0.00  0.00    +0.175 C 
ENDBRANCH  25  26
ENDBRANCH  23  25
ENDBRANCH   1  22
BRANCH   4  28
ATOM     28  S   UNL     1      36.467 -21.078 -20.720  0.00  0.00    -0.087 S 
BRANCH  28  29
ATOM     29  C   UNL     1      35.537 -19.585 -21.035  0.00  0.00    +0.029 C 
ATOM     30  C   UNL     1      36.192 -18.435 -21.474  0.00  0.00    +0.006 C 
ATOM     31  C   UNL     1      34.156 -19.569 -20.840  0.00  0.00    +0.006 C 
ATOM     32  C   UNL     1      35.465 -17.269 -21.720  0.00  0.00    +0.001 C 
ATOM     33  C   UNL     1      33.430 -18.404 -21.085  0.00  0.00    +0.001 C 
ATOM     34  C   UNL     1      34.084 -17.254 -21.525  0.00  0.00    +0.000 C 
ENDBRANCH  28  29
ENDBRANCH   4  28
TORSDOF 9
ENDMDL
MODEL 3
REMARK VINA RESULT:      -9.3      9.180     13.345
REMARK  Name = 42690
REMARK  9 active torsions:
REMARK  status: ('A' for Active; 'I' for Inactive)
REMARK    1  A    between atoms: C_1  and  N_22
REMARK    2  A    between atoms: C_2  and  N_8
REMARK    3  A    between atoms: C_4  and  S_28
REMARK    4  A    between atoms: N_10  and  C_18
REMARK    5  A    between atoms: C_12  and  O_15
REMARK    6  A    between atoms: C_18  and  O_19
REMARK    7  A    between atoms: C_23  and  C_25
REMARK    8  A    between atoms: C_25  and  O_26
REMARK    9  A    between atoms: S_28  and  C_29
REMARK                            x       y       z     vdW  Elec       q    Type
REMARK                         _______ _______ _______ _____ _____    ______ ____
ROOT
ATOM      1  C   UNL     1      33.137 -23.398 -16.483  0.00  0.00    +0.067 C 
ATOM      2  C   UNL     1      34.466 -23.308 -16.068  0.00  0.00    +0.072 C 
ATOM      3  C   UNL     1      32.755 -22.870 -17.715  0.00  0.00    +0.023 C 
ATOM      4  C   UNL     1      33.700 -22.251 -18.533  0.00  0.00    +0.031 C 
ATOM      5  C   UNL     1      35.412 -22.690 -16.885  0.00  0.00    +0.019 C 
ATOM      6  C   UNL     1      35.029 -22.161 -18.118  0.00  0.00    +0.008 C 
ENDROOT
BRANCH   2   8
ATOM      7  O   UNL     1      34.307 -23.956 -12.080  0.00  0.00    -0.226 OA
ATOM      8  N   UNL     1      34.877 -23.836 -14.823  0.00  0.00    -0.327 N 
ATOM      9  N   UNL     1      36.121 -24.978 -13.147  0.00  0.00    -0.223 N 
ATOM     10  N   UNL     1      36.822 -25.067 -15.396  0.00  0.00    -0.111 NA
ATOM     11  C   UNL     1      35.959 -24.644 -14.510  0.00  0.00    +0.197 C 
ATOM     12  C   UNL     1      35.327 -24.634 -12.052  0.00  0.00    +0.407 C 
ATOM     13  H   UNL     1      34.306 -23.590 -14.060  0.00  0.00    +0.168 HD
ATOM     14  H   UNL     1      36.908 -25.532 -12.940  0.00  0.00    +0.161 HD
BRANCH  12  15
ATOM     15  O   UNL     1      35.862 -25.180 -10.918  0.00  0.00    -0.430 OA
ATOM     16  C   UNL     1      35.669 -24.429  -9.713  0.00  0.00    +0.257 C 
ENDBRANCH  12  15
BRANCH  10  18
ATOM     17  O   UNL     1      37.839 -27.108 -14.987  0.00  0.00    -0.224 OA
ATOM     18  C   UNL     1      37.868 -25.884 -15.048  0.00  0.00    +0.428 C 
BRANCH  18  19
ATOM     19  O   UNL     1      38.978 -25.122 -14.812  0.00  0.00    -0.429 OA
ATOM     20  C   UNL     1      40.153 -25.839 -14.416  0.00  0.00    +0.257 C 
ENDBRANCH  18  19
ENDBRANCH  10  18
ENDBRANCH   2   8
BRANCH   1  22
ATOM     21  O   UNL     1      31.422 -22.274 -14.281  0.00  0.00    -0.272 OA
ATOM     22  N   UNL     1      32.173 -24.015 -15.680  0.00  0.00    -0.281 N 
ATOM     23  C   UNL     1      31.398 -23.439 -14.667  0.00  0.00    +0.256 C 
ATOM     24  H   UNL     1      32.020 -24.973 -15.848  0.00  0.00    +0.155 HD
BRANCH  23  25
ATOM     25  C   UNL     1      30.462 -24.441 -14.027  0.00  0.00    +0.227 C 
BRANCH  25  26
ATOM     26  O   UNL     1      29.715 -25.080 -15.042  0.00  0.00    -0.342 OA
ATOM     27  C   UNL     1      28.707 -24.226 -15.575  0.00  0.00    +0.175 C 
ENDBRANCH  25  26
ENDBRANCH  23  25
ENDBRANCH   1  22
BRANCH   4  28
ATOM     28  S   UNL     1      33.213 -21.576 -20.108  0.00  0.00    -0.087 S 
BRANCH  28  29
ATOM     29  C   UNL     1      34.577 -20.475 -20.454  0.00  0.00    +0.029 C 
ATOM     30  C   UNL     1      34.331 -19.194 -20.948  0.00  0.00    +0.006 C 
ATOM     31  C   UNL     1      35.887 -20.897 -20.232  0.00  0.00    +0.006 C 
ATOM     32  C   UNL     1      35.396 -18.335 -21.219  0.00  0.00    +0.001 C 
ATOM     33  C   UNL     1      36.952 -20.038 -20.503  0.00  0.00    +0.001 C 
ATOM     34  C   UNL     1      36.707 -18.757 -20.996  0.00  0.00    +0.000 C 
ENDBRANCH  28  29
ENDBRANCH   4  28
TORSDOF 9
ENDMDL
MODEL 4
REMARK VINA RESULT:      -9.1      3.212      9.021
REMARK  Name = 42690
REMARK  9 active torsions:
REMARK  status: ('A' for Active; 'I' for Inactive)
REMARK    1  A    between atoms: C_1  and  N_22
REMARK    2  A    between atoms: C_2  and  N_8
REMARK    3  A    between atoms: C_4  and  S_28
REMARK    4  A    between atoms: N_10  and  C_18
REMARK    5  A    between atoms: C_12  and  O_15
REMARK    6  A    between atoms: C_18  and  O_19
REMARK    7  A    between atoms: C_23  and  C_25
REMARK    8  A    between atoms: C_25  and  O_26
REMARK    9  A    between atoms: S_28  and  C_29
REMARK                            x       y       z     vdW  Elec       q    Type
REMARK                         _______ _______ _______ _____ _____    ______ ____
ROOT
ATOM      1  C   UNL     1      33.479 -10.811 -23.767  0.00  0.00    +0.067 C 
ATOM      2  C   UNL     1      34.143 -11.503 -24.780  0.00  0.00    +0.072 C 
ATOM      3  C   UNL     1      33.672  -9.438 -23.618  0.00  0.00    +0.023 C 
ATOM      4  C   UNL     1      34.529  -8.756 -24.482  0.00  0.00    +0.031 C 
ATOM      5  C   UNL     1      35.000 -10.821 -25.644  0.00  0.00    +0.019 C 
ATOM      6  C   UNL     1      35.193  -9.447 -25.495  0.00  0.00    +0.008 C 
ENDROOT
BRANCH   2   8
ATOM      7  O   UNL     1      33.473 -14.936 -26.806  0.00  0.00    -0.226 OA
ATOM      8  N   UNL     1      33.964 -12.893 -24.949  0.00  0.00    -0.327 N 
ATOM      9  N   UNL     1      33.723 -15.217 -24.497  0.00  0.00    -0.223 N 
ATOM     10  N   UNL     1      34.158 -13.717 -22.732  0.00  0.00    -0.111 NA
ATOM     11  C   UNL     1      33.970 -13.914 -24.011  0.00  0.00    +0.197 C 
ATOM     12  C   UNL     1      33.497 -15.644 -25.806  0.00  0.00    +0.407 C 
ATOM     13  H   UNL     1      33.810 -13.182 -25.877  0.00  0.00    +0.168 HD
ATOM     14  H   UNL     1      33.706 -15.926 -23.814  0.00  0.00    +0.161 HD
BRANCH  12  15
ATOM     15  O   UNL     1      33.305 -16.998 -25.813  0.00  0.00    -0.430 OA
ATOM     16  C   UNL     1      34.298 -17.773 -25.129  0.00  0.00    +0.257 C 
ENDBRANCH  12  15
BRANCH  10  18
ATOM     17  O   UNL     1      33.392 -14.930 -20.913  0.00  0.00    -0.224 OA
ATOM     18  C   UNL     1      34.178 -14.757 -21.838  0.00  0.00    +0.428 C 
BRANCH  18  19
ATOM     19  O   UNL     1      35.196 -15.610 -22.159  0.00  0.00    -0.429 OA
ATOM     20  C   UNL     1      35.129 -16.912 -21.565  0.00  0.00    +0.257 C 
ENDBRANCH  18  19
ENDBRANCH  10  18
ENDBRANCH   2   8
BRANCH   1  22
ATOM     21  O   UNL     1      31.136  -9.781 -22.184  0.00  0.00    -0.272 OA
ATOM     22  N   UNL     1      32.616 -11.474 -22.890  0.00  0.00    -0.281 N 
ATOM     23  C   UNL     1      31.533 -10.942 -22.179  0.00  0.00    +0.256 C 
ATOM     24  H   UNL     1      32.790 -12.434 -22.755  0.00  0.00    +0.155 HD
BRANCH  23  25
ATOM     25  C   UNL     1      30.841 -11.987 -21.330  0.00  0.00    +0.227 C 
BRANCH  25  26
ATOM     26  O   UNL     1      31.599 -12.194 -20.156  0.00  0.00    -0.342 OA
ATOM     27  C   UNL     1      31.481 -11.101 -19.249  0.00  0.00    +0.175 C 
ENDBRANCH  25  26
ENDBRANCH  23  25
ENDBRANCH   1  22
BRANCH   4  28
ATOM     28  S   UNL     1      34.775  -7.001 -24.294  0.00  0.00    -0.087 S 
BRANCH  28  29
ATOM     29  C   UNL     1      33.172  -6.486 -23.694  0.00  0.00    +0.029 C 
ATOM     30  C   UNL     1      32.243  -5.933 -24.575  0.00  0.00    +0.006 C 
ATOM     31  C   UNL     1      32.851  -6.636 -22.345  0.00  0.00    +0.006 C 
ATOM     32  C   UNL     1      30.992  -5.531 -24.106  0.00  0.00    +0.001 C 
ATOM     33  C   UNL     1      31.600  -6.234 -21.877  0.00  0.00    +0.001 C 
ATOM     34  C   UNL     1      30.671  -5.681 -22.757  0.00  0.00    +0.000 C 
ENDBRANCH  28  29
ENDBRANCH   4  28
TORSDOF 9
ENDMDL
MODEL 5
REMARK VINA RESULT:      -8.7      2.822      8.047
REMARK  Name = 42690
REMARK  9 active torsions:
REMARK  status: ('A' for Active; 'I' for Inactive)
REMARK    1  A    between atoms: C_1  and  N_22
REMARK    2  A    between atoms: C_2  and  N_8
REMARK    3  A    between atoms: C_4  and  S_28
REMARK    4  A    between atoms: N_10  and  C_18
REMARK    5  A    between atoms: C_12  and  O_15
REMARK    6  A    between atoms: C_18  and  O_19
REMARK    7  A    between atoms: C_23  and  C_25
REMARK    8  A    between atoms: C_25  and  O_26
REMARK    9  A    between atoms: S_28  and  C_29
REMARK                            x       y       z     vdW  Elec       q    Type
REMARK                         _______ _______ _______ _____ _____    ______ ____
ROOT
ATOM      1  C   UNL     1      32.767 -12.980 -22.995  0.00  0.00    +0.067 C 
ATOM      2  C   UNL     1      32.940 -14.229 -22.400  0.00  0.00    +0.072 C 
ATOM      3  C   UNL     1      32.244 -11.921 -22.254  0.00  0.00    +0.023 C 
ATOM      4  C   UNL     1      31.893 -12.111 -20.918  0.00  0.00    +0.031 C 
ATOM      5  C   UNL     1      32.589 -14.419 -21.064  0.00  0.00    +0.019 C 
ATOM      6  C   UNL     1      32.065 -13.360 -20.322  0.00  0.00    +0.008 C 
ENDROOT
BRANCH   2   8
ATOM      7  O   UNL     1      33.952 -16.339 -25.697  0.00  0.00    -0.226 OA
ATOM      8  N   UNL     1      33.467 -15.317 -23.131  0.00  0.00    -0.327 N 
ATOM      9  N   UNL     1      34.440 -17.418 -23.679  0.00  0.00    -0.223 N 
ATOM     10  N   UNL     1      34.171 -16.802 -21.420  0.00  0.00    -0.111 NA
ATOM     11  C   UNL     1      34.033 -16.501 -22.685  0.00  0.00    +0.197 C 
ATOM     12  C   UNL     1      34.382 -17.299 -25.068  0.00  0.00    +0.407 C 
ATOM     13  H   UNL     1      33.424 -15.219 -24.109  0.00  0.00    +0.168 HD
ATOM     14  H   UNL     1      34.817 -18.263 -23.344  0.00  0.00    +0.161 HD
BRANCH  12  15
ATOM     15  O   UNL     1      34.889 -18.433 -25.640  0.00  0.00    -0.430 OA
ATOM     16  C   UNL     1      34.879 -19.606 -24.816  0.00  0.00    +0.257 C 
ENDBRANCH  12  15
BRANCH  10  18
ATOM     17  O   UNL     1      35.937 -18.130 -20.724  0.00  0.00    -0.224 OA
ATOM     18  C   UNL     1      34.757 -17.976 -21.019  0.00  0.00    +0.428 C 
BRANCH  18  19
ATOM     19  O   UNL     1      33.809 -18.957 -20.959  0.00  0.00    -0.429 OA
ATOM     20  C   UNL     1      34.273 -20.248 -20.545  0.00  0.00    +0.257 C 
ENDBRANCH  18  19
ENDBRANCH  10  18
ENDBRANCH   2   8
BRANCH   1  22
ATOM     21  O   UNL     1      34.378 -10.780 -24.268  0.00  0.00    -0.272 OA
ATOM     22  N   UNL     1      33.113 -12.766 -24.333  0.00  0.00    -0.281 N 
ATOM     23  C   UNL     1      33.872 -11.721 -24.872  0.00  0.00    +0.256 C 
ATOM     24  H   UNL     1      32.781 -13.434 -24.976  0.00  0.00    +0.155 HD
BRANCH  23  25
ATOM     25  C   UNL     1      34.025 -11.844 -26.372  0.00  0.00    +0.227 C 
BRANCH  25  26
ATOM     26  O   UNL     1      33.762 -13.180 -26.749  0.00  0.00    -0.342 OA
ATOM     27  C   UNL     1      32.568 -13.288 -27.518  0.00  0.00    +0.175 C 
ENDBRANCH  25  26
ENDBRANCH  23  25
ENDBRANCH   1  22
BRANCH   4  28
ATOM     28  S   UNL     1      31.225 -10.758 -19.970  0.00  0.00    -0.087 S 
BRANCH  28  29
ATOM     29  C   UNL     1      31.817  -9.353 -20.902  0.00  0.00    +0.029 C 
ATOM     30  C   UNL     1      31.532  -9.249 -22.263  0.00  0.00    +0.006 C 
ATOM     31  C   UNL     1      32.564  -8.361 -20.268  0.00  0.00    +0.006 C 
ATOM     32  C   UNL     1      31.994  -8.152 -22.990  0.00  0.00    +0.001 C 
ATOM     33  C   UNL     1      33.027  -7.264 -20.995  0.00  0.00    +0.001 C 
ATOM     34  C   UNL     1      32.742  -7.159 -22.356  0.00  0.00    +0.000 C 
ENDBRANCH  28  29
ENDBRANCH   4  28
TORSDOF 9
ENDMDL
MODEL 6
REMARK VINA RESULT:      -8.5      9.496     13.695
REMARK  Name = 42690
REMARK  9 active torsions:
REMARK  status: ('A' for Active; 'I' for Inactive)
REMARK    1  A    between atoms: C_1  and  N_22
REMARK    2  A    between atoms: C_2  and  N_8
REMARK    3  A    between atoms: C_4  and  S_28
REMARK    4  A    between atoms: N_10  and  C_18
REMARK    5  A    between atoms: C_12  and  O_15
REMARK    6  A    between atoms: C_18  and  O_19
REMARK    7  A    between atoms: C_23  and  C_25
REMARK    8  A    between atoms: C_25  and  O_26
REMARK    9  A    between atoms: S_28  and  C_29
REMARK                            x       y       z     vdW  Elec       q    Type
REMARK                         _______ _______ _______ _____ _____    ______ ____
ROOT
ATOM      1  C   UNL     1      33.185 -23.241 -15.176  0.00  0.00    +0.067 C 
ATOM      2  C   UNL     1      33.542 -24.304 -14.346  0.00  0.00    +0.072 C 
ATOM      3  C   UNL     1      31.920 -22.664 -15.065  0.00  0.00    +0.023 C 
ATOM      4  C   UNL     1      31.012 -23.150 -14.125  0.00  0.00    +0.031 C 
ATOM      5  C   UNL     1      32.634 -24.789 -13.405  0.00  0.00    +0.019 C 
ATOM      6  C   UNL     1      31.369 -24.212 -13.295  0.00  0.00    +0.008 C 
ENDROOT
BRANCH   2   8
ATOM      7  O   UNL     1      36.350 -26.841 -15.769  0.00  0.00    -0.226 OA
ATOM      8  N   UNL     1      34.817 -24.905 -14.441  0.00  0.00    -0.327 N 
ATOM      9  N   UNL     1      37.093 -25.464 -14.030  0.00  0.00    -0.223 N 
ATOM     10  N   UNL     1      36.055 -23.765 -12.768  0.00  0.00    -0.111 NA
ATOM     11  C   UNL     1      35.974 -24.660 -13.718  0.00  0.00    +0.197 C 
ATOM     12  C   UNL     1      37.220 -26.467 -14.993  0.00  0.00    +0.407 C 
ATOM     13  H   UNL     1      34.895 -25.607 -15.126  0.00  0.00    +0.168 HD
ATOM     14  H   UNL     1      37.898 -25.294 -13.490  0.00  0.00    +0.161 HD
BRANCH  12  15
ATOM     15  O   UNL     1      38.487 -26.980 -14.945  0.00  0.00    -0.430 OA
ATOM     16  C   UNL     1      39.521 -26.057 -14.582  0.00  0.00    +0.257 C 
ENDBRANCH  12  15
BRANCH  10  18
ATOM     17  O   UNL     1      38.151 -22.826 -12.465  0.00  0.00    -0.224 OA
ATOM     18  C   UNL     1      37.226 -23.539 -12.090  0.00  0.00    +0.428 C 
BRANCH  18  19
ATOM     19  O   UNL     1      37.195 -24.206 -10.898  0.00  0.00    -0.429 OA
ATOM     20  C   UNL     1      35.910 -24.304 -10.273  0.00  0.00    +0.257 C 
ENDBRANCH  18  19
ENDBRANCH  10  18
ENDBRANCH   2   8
BRANCH   1  22
ATOM     21  O   UNL     1      33.442 -23.825 -18.117  0.00  0.00    -0.272 OA
ATOM     22  N   UNL     1      34.080 -22.738 -16.126  0.00  0.00    -0.281 N 
ATOM     23  C   UNL     1      34.152 -23.044 -17.490  0.00  0.00    +0.256 C 
ATOM     24  H   UNL     1      34.741 -22.088 -15.794  0.00  0.00    +0.155 HD
BRANCH  23  25
ATOM     25  C   UNL     1      35.264 -22.288 -18.184  0.00  0.00    +0.227 C 
BRANCH  25  26
ATOM     26  O   UNL     1      34.965 -22.204 -19.563  0.00  0.00    -0.342 OA
ATOM     27  C   UNL     1      34.379 -20.951 -19.903  0.00  0.00    +0.175 C 
ENDBRANCH  25  26
ENDBRANCH  23  25
ENDBRANCH   1  22
BRANCH   4  28
ATOM     28  S   UNL     1      29.397 -22.412 -13.981  0.00  0.00    -0.087 S 
BRANCH  28  29
ATOM     29  C   UNL     1      28.643 -22.919 -15.521  0.00  0.00    +0.029 C 
ATOM     30  C   UNL     1      27.889 -22.009 -16.260  0.00  0.00    +0.006 C 
ATOM     31  C   UNL     1      28.809 -24.225 -15.982  0.00  0.00    +0.006 C 
ATOM     32  C   UNL     1      27.301 -22.404 -17.462  0.00  0.00    +0.001 C 
ATOM     33  C   UNL     1      28.221 -24.620 -17.183  0.00  0.00    +0.001 C 
ATOM     34  C   UNL     1      27.467 -23.711 -17.924  0.00  0.00    +0.000 C 
ENDBRANCH  28  29
ENDBRANCH   4  28
TORSDOF 9
ENDMDL
MODEL 7
REMARK VINA RESULT:      -8.2     10.329     14.261
REMARK  Name = 42690
REMARK  9 active torsions:
REMARK  status: ('A' for Active; 'I' for Inactive)
REMARK    1  A    between atoms: C_1  and  N_22
REMARK    2  A    between atoms: C_2  and  N_8
REMARK    3  A    between atoms: C_4  and  S_28
REMARK    4  A    between atoms: N_10  and  C_18
REMARK    5  A    between atoms: C_12  and  O_15
REMARK    6  A    between atoms: C_18  and  O_19
REMARK    7  A    between atoms: C_23  and  C_25
REMARK    8  A    between atoms: C_25  and  O_26
REMARK    9  A    between atoms: S_28  and  C_29
REMARK                            x       y       z     vdW  Elec       q    Type
REMARK                         _______ _______ _______ _____ _____    ______ ____
ROOT
ATOM      1  C   UNL     1      34.117 -23.951 -13.043  0.00  0.00    +0.067 C 
ATOM      2  C   UNL     1      34.456 -24.590 -14.236  0.00  0.00    +0.072 C 
ATOM      3  C   UNL     1      32.776 -23.749 -12.718  0.00  0.00    +0.023 C 
ATOM      4  C   UNL     1      31.774 -24.186 -13.584  0.00  0.00    +0.031 C 
ATOM      5  C   UNL     1      33.454 -25.027 -15.102  0.00  0.00    +0.019 C 
ATOM      6  C   UNL     1      32.113 -24.825 -14.777  0.00  0.00    +0.008 C 
ENDROOT
BRANCH   2   8
ATOM      7  O   UNL     1      37.985 -26.558 -14.374  0.00  0.00    -0.226 OA
ATOM      8  N   UNL     1      35.807 -24.804 -14.587  0.00  0.00    -0.327 N 
ATOM      9  N   UNL     1      37.996 -24.490 -15.468  0.00  0.00    -0.223 N 
ATOM     10  N   UNL     1      36.341 -22.849 -15.821  0.00  0.00    -0.111 NA
ATOM     11  C   UNL     1      36.677 -24.007 -15.315  0.00  0.00    +0.197 C 
ATOM     12  C   UNL     1      38.558 -25.683 -15.012  0.00  0.00    +0.407 C 
ATOM     13  H   UNL     1      36.191 -25.651 -14.264  0.00  0.00    +0.168 HD
ATOM     14  H   UNL     1      38.606 -23.900 -15.966  0.00  0.00    +0.161 HD
BRANCH  12  15
ATOM     15  O   UNL     1      39.871 -25.737 -15.391  0.00  0.00    -0.430 OA
ATOM     16  C   UNL     1      40.795 -26.166 -14.384  0.00  0.00    +0.257 C 
ENDBRANCH  12  15
BRANCH  10  18
ATOM     17  O   UNL     1      38.062 -21.324 -16.102  0.00  0.00    -0.224 OA
ATOM     18  C   UNL     1      37.226 -22.099 -16.554  0.00  0.00    +0.428 C 
BRANCH  18  19
ATOM     19  O   UNL     1      37.063 -22.376 -17.882  0.00  0.00    -0.429 OA
ATOM     20  C   UNL     1      36.077 -21.593 -18.565  0.00  0.00    +0.257 C 
ENDBRANCH  18  19
ENDBRANCH  10  18
ENDBRANCH   2   8
BRANCH   1  22
ATOM     21  O   UNL     1      35.321 -25.283 -10.629  0.00  0.00    -0.272 OA
ATOM     22  N   UNL     1      35.104 -23.505 -12.160  0.00  0.00    -0.281 N 
ATOM     23  C   UNL     1      35.632 -24.172 -11.048  0.00  0.00    +0.256 C 
ATOM     24  H   UNL     1      35.474 -22.611 -12.342  0.00  0.00    +0.155 HD
BRANCH  23  25
ATOM     25  C   UNL     1      36.690 -23.353 -10.342  0.00  0.00    +0.227 C 
BRANCH  25  26
ATOM     26  O   UNL     1      37.608 -22.870 -11.302  0.00  0.00    -0.342 OA
ATOM     27  C   UNL     1      38.372 -23.924 -11.881  0.00  0.00    +0.175 C 
ENDBRANCH  25  26
ENDBRANCH  23  25
ENDBRANCH   1  22
BRANCH   4  28
ATOM     28  S   UNL     1      30.060 -23.930 -13.168  0.00  0.00    -0.087 S 
BRANCH  28  29
ATOM     29  C   UNL     1      29.337 -23.707 -14.787  0.00  0.00    +0.029 C 
ATOM     30  C   UNL     1      29.244 -22.430 -15.339  0.00  0.00    +0.006 C 
ATOM     31  C   UNL     1      28.864 -24.810 -15.498  0.00  0.00    +0.006 C 
ATOM     32  C   UNL     1      28.679 -22.255 -16.602  0.00  0.00    +0.001 C 
ATOM     33  C   UNL     1      28.299 -24.635 -16.761  0.00  0.00    +0.001 C 
ATOM     34  C   UNL     1      28.206 -23.358 -17.314  0.00  0.00    +0.000 C 
ENDBRANCH  28  29
ENDBRANCH   4  28
TORSDOF 9
ENDMDL
MODEL 8
REMARK VINA RESULT:      -8.0      3.351      7.818
REMARK  Name = 42690
REMARK  9 active torsions:
REMARK  status: ('A' for Active; 'I' for Inactive)
REMARK    1  A    between atoms: C_1  and  N_22
REMARK    2  A    between atoms: C_2  and  N_8
REMARK    3  A    between atoms: C_4  and  S_28
REMARK    4  A    between atoms: N_10  and  C_18
REMARK    5  A    between atoms: C_12  and  O_15
REMARK    6  A    between atoms: C_18  and  O_19
REMARK    7  A    between atoms: C_23  and  C_25
REMARK    8  A    between atoms: C_25  and  O_26
REMARK    9  A    between atoms: S_28  and  C_29
REMARK                            x       y       z     vdW  Elec       q    Type
REMARK                         _______ _______ _______ _____ _____    ______ ____
ROOT
ATOM      1  C   UNL     1      33.444 -15.136 -22.686  0.00  0.00    +0.067 C 
ATOM      2  C   UNL     1      32.931 -15.661 -21.501  0.00  0.00    +0.072 C 
ATOM      3  C   UNL     1      33.329 -13.772 -22.952  0.00  0.00    +0.023 C 
ATOM      4  C   UNL     1      32.701 -12.933 -22.032  0.00  0.00    +0.031 C 
ATOM      5  C   UNL     1      32.303 -14.822 -20.581  0.00  0.00    +0.019 C 
ATOM      6  C   UNL     1      32.188 -13.458 -20.846  0.00  0.00    +0.008 C 
ENDROOT
BRANCH   2   8
ATOM      7  O   UNL     1      31.622 -19.339 -20.448  0.00  0.00    -0.226 OA
ATOM      8  N   UNL     1      33.035 -17.040 -21.211  0.00  0.00    -0.327 N 
ATOM      9  N   UNL     1      33.925 -19.214 -20.834  0.00  0.00    -0.223 N 
ATOM     10  N   UNL     1      35.353 -17.459 -21.496  0.00  0.00    -0.111 NA
ATOM     11  C   UNL     1      34.145 -17.869 -21.207  0.00  0.00    +0.197 C 
ATOM     12  C   UNL     1      32.733 -19.852 -20.489  0.00  0.00    +0.407 C 
ATOM     13  H   UNL     1      32.187 -17.479 -20.973  0.00  0.00    +0.168 HD
ATOM     14  H   UNL     1      34.729 -19.783 -20.813  0.00  0.00    +0.161 HD
BRANCH  12  15
ATOM     15  O   UNL     1      32.990 -21.164 -20.200  0.00  0.00    -0.430 OA
ATOM     16  C   UNL     1      34.178 -21.414 -19.438  0.00  0.00    +0.257 C 
ENDBRANCH  12  15
BRANCH  10  18
ATOM     17  O   UNL     1      37.161 -18.544 -22.454  0.00  0.00    -0.224 OA
ATOM     18  C   UNL     1      36.423 -18.317 -21.502  0.00  0.00    +0.428 C 
BRANCH  18  19
ATOM     19  O   UNL     1      36.572 -18.863 -20.258  0.00  0.00    -0.429 OA
ATOM     20  C   UNL     1      37.233 -20.133 -20.211  0.00  0.00    +0.257 C 
ENDBRANCH  18  19
ENDBRANCH  10  18
ENDBRANCH   2   8
BRANCH   1  22
ATOM     21  O   UNL     1      33.089 -15.335 -25.668  0.00  0.00    -0.272 OA
ATOM     22  N   UNL     1      34.079 -15.958 -23.622  0.00  0.00    -0.281 N 
ATOM     23  C   UNL     1      33.875 -16.006 -25.006  0.00  0.00    +0.256 C 
ATOM     24  H   UNL     1      34.752 -16.581 -23.264  0.00  0.00    +0.155 HD
BRANCH  23  25
ATOM     25  C   UNL     1      34.760 -17.035 -25.676  0.00  0.00    +0.227 C 
BRANCH  25  26
ATOM     26  O   UNL     1      34.089 -18.279 -25.680  0.00  0.00    -0.342 OA
ATOM     27  C   UNL     1      34.612 -19.166 -24.696  0.00  0.00    +0.175 C 
ENDBRANCH  25  26
ENDBRANCH  23  25
ENDBRANCH   1  22
BRANCH   4  28
ATOM     28  S   UNL     1      32.555 -11.189 -22.370  0.00  0.00    -0.087 S 
BRANCH  28  29
ATOM     29  C   UNL     1      33.570 -11.030 -23.832  0.00  0.00    +0.029 C 
ATOM     30  C   UNL     1      34.518 -10.012 -23.915  0.00  0.00    +0.006 C 
ATOM     31  C   UNL     1      33.412 -11.925 -24.891  0.00  0.00    +0.006 C 
ATOM     32  C   UNL     1      35.310  -9.887 -25.057  0.00  0.00    +0.001 C 
ATOM     33  C   UNL     1      34.204 -11.800 -26.032  0.00  0.00    +0.001 C 
ATOM     34  C   UNL     1      35.153 -10.782 -26.116  0.00  0.00    +0.000 C 
ENDBRANCH  28  29
ENDBRANCH   4  28
TORSDOF 9
ENDMDL
MODEL 9
REMARK VINA RESULT:      -7.8      1.336      2.724
REMARK  Name = 42690
REMARK  9 active torsions:
REMARK  status: ('A' for Active; 'I' for Inactive)
REMARK    1  A    between atoms: C_1  and  N_22
REMARK    2  A    between atoms: C_2  and  N_8
REMARK    3  A    between atoms: C_4  and  S_28
REMARK    4  A    between atoms: N_10  and  C_18
REMARK    5  A    between atoms: C_12  and  O_15
REMARK    6  A    between atoms: C_18  and  O_19
REMARK    7  A    between atoms: C_23  and  C_25
REMARK    8  A    between atoms: C_25  and  O_26
REMARK    9  A    between atoms: S_28  and  C_29
REMARK                            x       y       z     vdW  Elec       q    Type
REMARK                         _______ _______ _______ _____ _____    ______ ____
ROOT
ATOM      1  C   UNL     1      34.437 -15.326 -24.096  0.00  0.00    +0.067 C 
ATOM      2  C   UNL     1      34.343 -14.441 -23.022  0.00  0.00    +0.072 C 
ATOM      3  C   UNL     1      34.934 -16.614 -23.896  0.00  0.00    +0.023 C 
ATOM      4  C   UNL     1      35.337 -17.017 -22.623  0.00  0.00    +0.031 C 
ATOM      5  C   UNL     1      34.746 -14.844 -21.749  0.00  0.00    +0.019 C 
ATOM      6  C   UNL     1      35.243 -16.131 -21.549  0.00  0.00    +0.008 C 
ENDROOT
BRANCH   2   8
ATOM      7  O   UNL     1      33.987 -10.814 -24.771  0.00  0.00    -0.226 OA
ATOM      8  N   UNL     1      33.844 -13.132 -23.200  0.00  0.00    -0.327 N 
ATOM      9  N   UNL     1      32.643 -11.102 -22.879  0.00  0.00    -0.223 N 
ATOM     10  N   UNL     1      32.305 -12.913 -21.407  0.00  0.00    -0.111 NA
ATOM     11  C   UNL     1      32.908 -12.426 -22.460  0.00  0.00    +0.197 C 
ATOM     12  C   UNL     1      33.170 -10.395 -23.960  0.00  0.00    +0.407 C 
ATOM     13  H   UNL     1      34.220 -12.645 -23.969  0.00  0.00    +0.168 HD
ATOM     14  H   UNL     1      31.995 -10.608 -22.328  0.00  0.00    +0.161 HD
BRANCH  12  15
ATOM     15  O   UNL     1      32.628  -9.140 -23.986  0.00  0.00    -0.430 OA
ATOM     16  C   UNL     1      31.537  -8.913 -23.086  0.00  0.00    +0.257 C 
ENDBRANCH  12  15
BRANCH  10  18
ATOM     17  O   UNL     1      30.308 -11.766 -21.161  0.00  0.00    -0.224 OA
ATOM     18  C   UNL     1      31.369 -12.188 -20.714  0.00  0.00    +0.428 C 
BRANCH  18  19
ATOM     19  O   UNL     1      31.780 -12.036 -19.420  0.00  0.00    -0.429 OA
ATOM     20  C   UNL     1      31.476 -10.774 -18.814  0.00  0.00    +0.257 C 
ENDBRANCH  18  19
ENDBRANCH  10  18
ENDBRANCH   2   8
BRANCH   1  22
ATOM     21  O   UNL     1      31.909 -13.995 -25.039  0.00  0.00    -0.272 OA
ATOM     22  N   UNL     1      34.038 -14.944 -25.380  0.00  0.00    -0.281 N 
ATOM     23  C   UNL     1      32.845 -14.321 -25.763  0.00  0.00    +0.256 C 
ATOM     24  H   UNL     1      34.676 -15.138 -26.105  0.00  0.00    +0.155 HD
BRANCH  23  25
ATOM     25  C   UNL     1      32.787 -14.070 -27.255  0.00  0.00    +0.227 C 
BRANCH  25  26
ATOM     26  O   UNL     1      34.082 -13.739 -27.711  0.00  0.00    -0.342 OA
ATOM     27  C   UNL     1      34.397 -12.372 -27.467  0.00  0.00    +0.175 C 
ENDBRANCH  25  26
ENDBRANCH  23  25
ENDBRANCH   1  22
BRANCH   4  28
ATOM     28  S   UNL     1      35.971 -18.662 -22.367  0.00  0.00    -0.087 S 
BRANCH  28  29
ATOM     29  C   UNL     1      34.679 -19.383 -21.365  0.00  0.00    +0.029 C 
ATOM     30  C   UNL     1      33.378 -18.887 -21.444  0.00  0.00    +0.006 C 
ATOM     31  C   UNL     1      34.972 -20.440 -20.504  0.00  0.00    +0.006 C 
ATOM     32  C   UNL     1      32.369 -19.450 -20.662  0.00  0.00    +0.001 C 
ATOM     33  C   UNL     1      33.963 -21.003 -19.722  0.00  0.00    +0.001 C 
ATOM     34  C   UNL     1      32.662 -20.508 -19.800  0.00  0.00    +0.000 C 
ENDBRANCH  28  29
ENDBRANCH   4  28
TORSDOF 9
ENDMDL
