MODEL 1
REMARK VINA RESULT:      -7.9      0.000      0.000
REMARK  Name = 1750
REMARK  1 active torsions:
REMARK  status: ('A' for Active; 'I' for Inactive)
REMARK    1  A    between atoms: C_4  and  N_13
REMARK                            x       y       z     vdW  Elec       q    Type
REMARK                         _______ _______ _______ _____ _____    ______ ____
ROOT
ATOM      1  O   UNL     1      34.145 -16.034 -26.006  0.00  0.00    -0.287 OA
ATOM      2  C   UNL     1      34.736 -17.638 -22.996  0.00  0.00    +0.026 C 
ATOM      3  C   UNL     1      34.491 -16.452 -23.678  0.00  0.00    +0.041 C 
ATOM      4  C   UNL     1      34.906 -17.628 -21.624  0.00  0.00    +0.143 C 
ATOM      5  C   UNL     1      34.765 -18.733 -23.944  0.00  0.00    +0.005 C 
ATOM      6  C   UNL     1      34.361 -16.797 -25.088  0.00  0.00    +0.196 C 
ATOM      7  C   UNL     1      34.404 -15.225 -23.052  0.00  0.00    +0.003 C 
ATOM      8  C   UNL     1      34.547 -18.264 -25.182  0.00  0.00    +0.042 C 
ATOM      9  C   UNL     1      34.824 -16.399 -20.959  0.00  0.00    +0.024 C 
ATOM     10  C   UNL     1      34.575 -15.208 -21.668  0.00  0.00    +0.002 C 
ENDROOT
BRANCH   4  13
ATOM     11  O   UNL     1      36.328 -19.061 -20.511  0.00  0.00    -0.126 OA
ATOM     12  O   UNL     1      34.203 -19.593 -20.643  0.00  0.00    -0.126 OA
ATOM     13  N   UNL     1      35.158 -18.817 -20.891  0.00  0.00    +0.058 N 
ENDBRANCH   4  13
TORSDOF 1
ENDMDL
MODEL 2
REMARK VINA RESULT:      -7.7      1.070      2.894
REMARK  Name = 1750
REMARK  1 active torsions:
REMARK  status: ('A' for Active; 'I' for Inactive)
REMARK    1  A    between atoms: C_4  and  N_13
REMARK                            x       y       z     vdW  Elec       q    Type
REMARK                         _______ _______ _______ _____ _____    ______ ____
ROOT
ATOM      1  O   UNL     1      34.260 -13.881 -23.534  0.00  0.00    -0.287 OA
ATOM      2  C   UNL     1      34.770 -16.977 -22.073  0.00  0.00    +0.026 C 
ATOM      3  C   UNL     1      34.600 -16.228 -23.230  0.00  0.00    +0.041 C 
ATOM      4  C   UNL     1      34.953 -18.345 -22.151  0.00  0.00    +0.143 C 
ATOM      5  C   UNL     1      34.716 -16.095 -20.924  0.00  0.00    +0.005 C 
ATOM      6  C   UNL     1      34.434 -14.841 -22.813  0.00  0.00    +0.196 C 
ATOM      7  C   UNL     1      34.603 -16.781 -24.495  0.00  0.00    +0.003 C 
ATOM      8  C   UNL     1      34.519 -14.833 -21.334  0.00  0.00    +0.042 C 
ATOM      9  C   UNL     1      34.961 -18.938 -23.419  0.00  0.00    +0.024 C 
ATOM     10  C   UNL     1      34.787 -18.161 -24.581  0.00  0.00    +0.002 C 
ENDROOT
BRANCH   4  13
ATOM     11  O   UNL     1      34.158 -19.810 -20.558  0.00  0.00    -0.126 OA
ATOM     12  O   UNL     1      36.253 -19.168 -20.433  0.00  0.00    -0.126 OA
ATOM     13  N   UNL     1      35.130 -19.146 -20.992  0.00  0.00    +0.058 N 
ENDBRANCH   4  13
TORSDOF 1
ENDMDL
MODEL 3
REMARK VINA RESULT:      -7.7      3.765      4.916
REMARK  Name = 1750
REMARK  1 active torsions:
REMARK  status: ('A' for Active; 'I' for Inactive)
REMARK    1  A    between atoms: C_4  and  N_13
REMARK                            x       y       z     vdW  Elec       q    Type
REMARK                         _______ _______ _______ _____ _____    ______ ____
ROOT
ATOM      1  O   UNL     1      36.447 -18.125 -21.743  0.00  0.00    -0.287 OA
ATOM      2  C   UNL     1      35.145 -20.824 -20.012  0.00  0.00    +0.026 C 
ATOM      3  C   UNL     1      34.917 -19.670 -20.751  0.00  0.00    +0.041 C 
ATOM      4  C   UNL     1      34.080 -21.565 -19.534  0.00  0.00    +0.143 C 
ATOM      5  C   UNL     1      36.574 -21.030 -19.883  0.00  0.00    +0.005 C 
ATOM      6  C   UNL     1      36.225 -19.129 -21.100  0.00  0.00    +0.196 C 
ATOM      7  C   UNL     1      33.653 -19.201 -21.048  0.00  0.00    +0.003 C 
ATOM      8  C   UNL     1      37.230 -20.046 -20.515  0.00  0.00    +0.042 C 
ATOM      9  C   UNL     1      32.785 -21.117 -19.818  0.00  0.00    +0.024 C 
ATOM     10  C   UNL     1      32.575 -19.944 -20.569  0.00  0.00    +0.002 C 
ENDROOT
BRANCH   4  13
ATOM     11  O   UNL     1      33.954 -23.854 -19.281  0.00  0.00    -0.126 OA
ATOM     12  O   UNL     1      34.753 -22.662 -17.620  0.00  0.00    -0.126 OA
ATOM     13  N   UNL     1      34.272 -22.750 -18.775  0.00  0.00    +0.058 N 
ENDBRANCH   4  13
TORSDOF 1
ENDMDL
MODEL 4
REMARK VINA RESULT:      -7.6      3.699      4.906
REMARK  Name = 1750
REMARK  1 active torsions:
REMARK  status: ('A' for Active; 'I' for Inactive)
REMARK    1  A    between atoms: C_4  and  N_13
REMARK                            x       y       z     vdW  Elec       q    Type
REMARK                         _______ _______ _______ _____ _____    ______ ____
ROOT
ATOM      1  O   UNL     1      34.191 -17.844 -21.892  0.00  0.00    -0.287 OA
ATOM      2  C   UNL     1      34.375 -20.756 -20.030  0.00  0.00    +0.026 C 
ATOM      3  C   UNL     1      35.036 -19.697 -20.641  0.00  0.00    +0.041 C 
ATOM      4  C   UNL     1      35.091 -21.725 -19.353  0.00  0.00    +0.143 C 
ATOM      5  C   UNL     1      32.949 -20.613 -20.248  0.00  0.00    +0.005 C 
ATOM      6  C   UNL     1      34.013 -18.864 -21.261  0.00  0.00    +0.196 C 
ATOM      7  C   UNL     1      36.408 -19.547 -20.614  0.00  0.00    +0.003 C 
ATOM      8  C   UNL     1      32.711 -19.508 -20.969  0.00  0.00    +0.042 C 
ATOM      9  C   UNL     1      36.484 -21.602 -19.306  0.00  0.00    +0.024 C 
ATOM     10  C   UNL     1      37.136 -20.521 -19.932  0.00  0.00    +0.002 C 
ENDROOT
BRANCH   4  13
ATOM     11  O   UNL     1      33.904 -23.700 -19.423  0.00  0.00    -0.126 OA
ATOM     12  O   UNL     1      34.455 -22.882 -17.462  0.00  0.00    -0.126 OA
ATOM     13  N   UNL     1      34.453 -22.821 -18.716  0.00  0.00    +0.058 N 
ENDBRANCH   4  13
TORSDOF 1
ENDMDL
MODEL 5
REMARK VINA RESULT:      -7.5      3.346      5.358
REMARK  Name = 1750
REMARK  1 active torsions:
REMARK  status: ('A' for Active; 'I' for Inactive)
REMARK    1  A    between atoms: C_4  and  N_13
REMARK                            x       y       z     vdW  Elec       q    Type
REMARK                         _______ _______ _______ _____ _____    ______ ____
ROOT
ATOM      1  O   UNL     1      34.332 -22.868 -18.748  0.00  0.00    -0.287 OA
ATOM      2  C   UNL     1      34.429 -19.926 -20.570  0.00  0.00    +0.026 C 
ATOM      3  C   UNL     1      35.122 -20.933 -19.908  0.00  0.00    +0.041 C 
ATOM      4  C   UNL     1      35.118 -18.891 -21.175  0.00  0.00    +0.143 C 
ATOM      5  C   UNL     1      33.007 -20.191 -20.481  0.00  0.00    +0.005 C 
ATOM      6  C   UNL     1      34.123 -21.858 -19.387  0.00  0.00    +0.196 C 
ATOM      7  C   UNL     1      36.499 -20.966 -19.814  0.00  0.00    +0.003 C 
ATOM      8  C   UNL     1      32.802 -21.322 -19.790  0.00  0.00    +0.042 C 
ATOM      9  C   UNL     1      36.515 -18.895 -21.098  0.00  0.00    +0.024 C 
ATOM     10  C   UNL     1      37.199 -19.925 -20.423  0.00  0.00    +0.002 C 
ENDROOT
BRANCH   4  13
ATOM     11  O   UNL     1      34.456 -17.835 -23.115  0.00  0.00    -0.126 OA
ATOM     12  O   UNL     1      33.863 -16.956 -21.193  0.00  0.00    -0.126 OA
ATOM     13  N   UNL     1      34.447 -17.844 -21.860  0.00  0.00    +0.058 N 
ENDBRANCH   4  13
TORSDOF 1
ENDMDL
MODEL 6
REMARK VINA RESULT:      -7.5      3.350      5.410
REMARK  Name = 1750
REMARK  1 active torsions:
REMARK  status: ('A' for Active; 'I' for Inactive)
REMARK    1  A    between atoms: C_4  and  N_13
REMARK                            x       y       z     vdW  Elec       q    Type
REMARK                         _______ _______ _______ _____ _____    ______ ____
ROOT
ATOM      1  O   UNL     1      35.201 -22.740 -18.440  0.00  0.00    -0.287 OA
ATOM      2  C   UNL     1      35.286 -19.976 -20.522  0.00  0.00    +0.026 C 
ATOM      3  C   UNL     1      34.530 -20.913 -19.828  0.00  0.00    +0.041 C 
ATOM      4  C   UNL     1      34.662 -18.997 -21.272  0.00  0.00    +0.143 C 
ATOM      5  C   UNL     1      36.693 -20.241 -20.296  0.00  0.00    +0.005 C 
ATOM      6  C   UNL     1      35.473 -21.793 -19.148  0.00  0.00    +0.196 C 
ATOM      7  C   UNL     1      33.150 -20.929 -19.841  0.00  0.00    +0.003 C 
ATOM      8  C   UNL     1      36.829 -21.305 -19.491  0.00  0.00    +0.042 C 
ATOM      9  C   UNL     1      33.263 -18.985 -21.306  0.00  0.00    +0.024 C 
ATOM     10  C   UNL     1      32.514 -19.944 -20.596  0.00  0.00    +0.002 C 
ENDROOT
BRANCH   4  13
ATOM     11  O   UNL     1      35.386 -16.832 -21.595  0.00  0.00    -0.126 OA
ATOM     12  O   UNL     1      36.042 -18.375 -23.012  0.00  0.00    -0.126 OA
ATOM     13  N   UNL     1      35.398 -18.021 -21.994  0.00  0.00    +0.058 N 
ENDBRANCH   4  13
TORSDOF 1
ENDMDL
MODEL 7
REMARK VINA RESULT:      -7.4      2.299      4.266
REMARK  Name = 1750
REMARK  1 active torsions:
REMARK  status: ('A' for Active; 'I' for Inactive)
REMARK    1  A    between atoms: C_4  and  N_13
REMARK                            x       y       z     vdW  Elec       q    Type
REMARK                         _______ _______ _______ _____ _____    ______ ____
ROOT
ATOM      1  O   UNL     1      34.877 -15.168 -19.885  0.00  0.00    -0.287 OA
ATOM      2  C   UNL     1      34.608 -16.627 -23.012  0.00  0.00    +0.026 C 
ATOM      3  C   UNL     1      34.903 -16.768 -21.661  0.00  0.00    +0.041 C 
ATOM      4  C   UNL     1      34.697 -17.716 -23.859  0.00  0.00    +0.143 C 
ATOM      5  C   UNL     1      34.237 -15.252 -23.276  0.00  0.00    +0.005 C 
ATOM      6  C   UNL     1      34.716 -15.457 -21.052  0.00  0.00    +0.196 C 
ATOM      7  C   UNL     1      35.292 -17.964 -21.093  0.00  0.00    +0.003 C 
ATOM      8  C   UNL     1      34.293 -14.543 -22.139  0.00  0.00    +0.042 C 
ATOM      9  C   UNL     1      35.089 -18.945 -23.315  0.00  0.00    +0.024 C 
ATOM     10  C   UNL     1      35.384 -19.066 -21.942  0.00  0.00    +0.002 C 
ENDROOT
BRANCH   4  13
ATOM     11  O   UNL     1      33.501 -18.337 -25.730  0.00  0.00    -0.126 OA
ATOM     12  O   UNL     1      35.057 -16.804 -25.946  0.00  0.00    -0.126 OA
ATOM     13  N   UNL     1      34.405 -17.614 -25.244  0.00  0.00    +0.058 N 
ENDBRANCH   4  13
TORSDOF 1
ENDMDL
MODEL 8
REMARK VINA RESULT:      -7.3      1.669      3.994
REMARK  Name = 1750
REMARK  1 active torsions:
REMARK  status: ('A' for Active; 'I' for Inactive)
REMARK    1  A    between atoms: C_4  and  N_13
REMARK                            x       y       z     vdW  Elec       q    Type
REMARK                         _______ _______ _______ _____ _____    ______ ____
ROOT
ATOM      1  O   UNL     1      35.407 -19.229 -20.420  0.00  0.00    -0.287 OA
ATOM      2  C   UNL     1      34.625 -17.251 -23.150  0.00  0.00    +0.026 C 
ATOM      3  C   UNL     1      34.861 -17.343 -21.784  0.00  0.00    +0.041 C 
ATOM      4  C   UNL     1      34.320 -16.029 -23.722  0.00  0.00    +0.143 C 
ATOM      5  C   UNL     1      34.758 -18.566 -23.745  0.00  0.00    +0.005 C 
ATOM      6  C   UNL     1      35.150 -18.744 -21.502  0.00  0.00    +0.196 C 
ATOM      7  C   UNL     1      34.809 -16.258 -20.933  0.00  0.00    +0.003 C 
ATOM      8  C   UNL     1      35.066 -19.461 -22.796  0.00  0.00    +0.042 C 
ATOM      9  C   UNL     1      34.260 -14.908 -22.886  0.00  0.00    +0.024 C 
ATOM     10  C   UNL     1      34.503 -15.023 -21.503  0.00  0.00    +0.002 C 
ENDROOT
BRANCH   4  13
ATOM     11  O   UNL     1      33.126 -15.161 -25.493  0.00  0.00    -0.126 OA
ATOM     12  O   UNL     1      34.807 -16.506 -25.925  0.00  0.00    -0.126 OA
ATOM     13  N   UNL     1      34.073 -15.892 -25.113  0.00  0.00    +0.058 N 
ENDBRANCH   4  13
TORSDOF 1
ENDMDL
MODEL 9
REMARK VINA RESULT:      -7.3      2.452      4.958
REMARK  Name = 1750
REMARK  1 active torsions:
REMARK  status: ('A' for Active; 'I' for Inactive)
REMARK    1  A    between atoms: C_4  and  N_13
REMARK                            x       y       z     vdW  Elec       q    Type
REMARK                         _______ _______ _______ _____ _____    ______ ____
ROOT
ATOM      1  O   UNL     1      35.570 -17.960 -20.743  0.00  0.00    -0.287 OA
ATOM      2  C   UNL     1      34.196 -15.446 -22.685  0.00  0.00    +0.026 C 
ATOM      3  C   UNL     1      34.740 -16.722 -22.612  0.00  0.00    +0.041 C 
ATOM      4  C   UNL     1      33.780 -14.936 -23.901  0.00  0.00    +0.143 C 
ATOM      5  C   UNL     1      34.176 -14.862 -21.358  0.00  0.00    +0.005 C 
ATOM      6  C   UNL     1      35.073 -16.958 -21.213  0.00  0.00    +0.196 C 
ATOM      7  C   UNL     1      34.897 -17.540 -23.713  0.00  0.00    +0.003 C 
ATOM      8  C   UNL     1      34.686 -15.733 -20.475  0.00  0.00    +0.042 C 
ATOM      9  C   UNL     1      33.925 -15.740 -25.037  0.00  0.00    +0.024 C 
ATOM     10  C   UNL     1      34.479 -17.032 -24.942  0.00  0.00    +0.002 C 
ENDROOT
BRANCH   4  13
ATOM     11  O   UNL     1      32.125 -13.394 -23.455  0.00  0.00    -0.126 OA
ATOM     12  O   UNL     1      33.834 -12.766 -24.679  0.00  0.00    -0.126 OA
ATOM     13  N   UNL     1      33.220 -13.637 -24.017  0.00  0.00    +0.058 N 
ENDBRANCH   4  13
TORSDOF 1
ENDMDL
