MODEL 1
REMARK VINA RESULT:     -11.7      0.000      0.000
REMARK  Name = 24779724
REMARK  3 active torsions:
REMARK  status: ('A' for Active; 'I' for Inactive)
REMARK    1  A    between atoms: C_5  and  C_12
REMARK    2  A    between atoms: C_7  and  S_16
REMARK    3  A    between atoms: S_16  and  C_19
REMARK                            x       y       z     vdW  Elec       q    Type
REMARK                         _______ _______ _______ _____ _____    ______ ____
ROOT
ATOM      1  N   UNL     1      34.270 -16.146 -24.190  0.00  0.00    -0.186 N 
ATOM      2  N   UNL     1      34.114 -14.932 -23.606  0.00  0.00    -0.162 NA
ATOM      3  N   UNL     1      34.174 -17.796 -25.636  0.00  0.00    -0.126 NA
ATOM      4  N   UNL     1      34.867 -18.228 -24.523  0.00  0.00    -0.120 NA
ATOM      5  C   UNL     1      33.460 -14.076 -24.340  0.00  0.00    +0.104 C 
ATOM      6  C   UNL     1      33.821 -16.546 -25.427  0.00  0.00    +0.187 A 
ATOM      7  C   UNL     1      34.914 -17.231 -23.669  0.00  0.00    +0.217 A 
ATOM      8  C   UNL     1      32.897 -14.377 -25.696  0.00  0.00    +0.024 C 
ATOM      9  C   UNL     1      33.102 -15.605 -26.190  0.00  0.00    +0.042 C 
ENDROOT
BRANCH   5  12
ATOM     10  N   UNL     1      32.484 -11.017 -22.644  0.00  0.00    -0.208 N 
ATOM     11  N   UNL     1      33.341 -10.445 -23.508  0.00  0.00    -0.176 NA
ATOM     12  C   UNL     1      33.228 -12.707 -23.812  0.00  0.00    +0.056 C 
ATOM     13  C   UNL     1      32.380 -12.370 -22.786  0.00  0.00    +0.087 C 
ATOM     14  C   UNL     1      33.792 -11.482 -24.218  0.00  0.00    +0.121 C 
ATOM     15  C   UNL     1      31.778 -10.199 -21.687  0.00  0.00    +0.140 C 
ENDBRANCH   5  12
BRANCH   7  16
ATOM     16  S   UNL     1      35.689 -17.240 -22.060  0.00  0.00    -0.051 S 
BRANCH  16  19
ATOM     17  N   UNL     1      32.806 -21.728 -19.428  0.00  0.00    -0.248 NA
ATOM     18  C   UNL     1      34.886 -20.647 -19.986  0.00  0.00    -0.003 C 
ATOM     19  C   UNL     1      34.836 -18.587 -21.268  0.00  0.00    +0.011 C 
ATOM     20  C   UNL     1      33.478 -20.721 -20.016  0.00  0.00    +0.060 C 
ATOM     21  C   UNL     1      35.555 -19.582 -20.612  0.00  0.00    +0.060 C 
ATOM     22  C   UNL     1      33.449 -18.654 -21.302  0.00  0.00    -0.017 C 
ATOM     23  C   UNL     1      32.784 -19.713 -20.681  0.00  0.00    +0.072 C 
ATOM     24  C   UNL     1      35.584 -21.662 -19.318  0.00  0.00    -0.001 C 
ATOM     25  C   UNL     1      34.895 -22.701 -18.710  0.00  0.00    +0.020 C 
ATOM     26  C   UNL     1      33.518 -22.687 -18.793  0.00  0.00    +0.098 C 
ENDBRANCH  16  19
ENDBRANCH   7  16
TORSDOF 3
ENDMDL
MODEL 2
REMARK VINA RESULT:     -11.6      3.142      9.976
REMARK  Name = 24779724
REMARK  3 active torsions:
REMARK  status: ('A' for Active; 'I' for Inactive)
REMARK    1  A    between atoms: C_5  and  C_12
REMARK    2  A    between atoms: C_7  and  S_16
REMARK    3  A    between atoms: S_16  and  C_19
REMARK                            x       y       z     vdW  Elec       q    Type
REMARK                         _______ _______ _______ _____ _____    ______ ____
ROOT
ATOM      1  N   UNL     1      34.677 -21.696 -18.820  0.00  0.00    -0.186 N 
ATOM      2  N   UNL     1      35.671 -22.061 -17.973  0.00  0.00    -0.162 NA
ATOM      3  N   UNL     1      32.703 -21.496 -19.763  0.00  0.00    -0.126 NA
ATOM      4  N   UNL     1      33.612 -20.754 -20.489  0.00  0.00    -0.120 NA
ATOM      5  C   UNL     1      35.277 -22.840 -17.006  0.00  0.00    +0.104 C 
ATOM      6  C   UNL     1      33.352 -22.058 -18.764  0.00  0.00    +0.187 A 
ATOM      7  C   UNL     1      34.786 -20.885 -19.913  0.00  0.00    +0.217 A 
ATOM      8  C   UNL     1      33.871 -23.330 -16.830  0.00  0.00    +0.024 C 
ATOM      9  C   UNL     1      32.959 -22.915 -17.718  0.00  0.00    +0.042 C 
ENDROOT
BRANCH   5  12
ATOM     10  N   UNL     1      37.254 -24.396 -14.386  0.00  0.00    -0.208 N 
ATOM     11  N   UNL     1      38.187 -23.510 -14.775  0.00  0.00    -0.176 NA
ATOM     12  C   UNL     1      36.273 -23.306 -16.006  0.00  0.00    +0.056 C 
ATOM     13  C   UNL     1      36.089 -24.314 -15.092  0.00  0.00    +0.087 C 
ATOM     14  C   UNL     1      37.582 -22.848 -15.765  0.00  0.00    +0.121 C 
ATOM     15  C   UNL     1      37.541 -25.314 -13.310  0.00  0.00    +0.140 C 
ENDBRANCH   5  12
BRANCH   7  16
ATOM     16  S   UNL     1      36.321 -20.137 -20.437  0.00  0.00    -0.051 S 
BRANCH  16  19
ATOM     17  N   UNL     1      34.351 -15.814 -24.017  0.00  0.00    -0.248 NA
ATOM     18  C   UNL     1      34.880 -16.582 -21.796  0.00  0.00    -0.003 C 
ATOM     19  C   UNL     1      35.731 -18.836 -21.500  0.00  0.00    +0.011 C 
ATOM     20  C   UNL     1      34.795 -16.779 -23.190  0.00  0.00    +0.060 C 
ATOM     21  C   UNL     1      35.347 -17.612 -20.961  0.00  0.00    +0.060 C 
ATOM     22  C   UNL     1      35.649 -19.037 -22.872  0.00  0.00    -0.017 C 
ATOM     23  C   UNL     1      35.184 -18.014 -23.702  0.00  0.00    +0.072 C 
ATOM     24  C   UNL     1      34.487 -15.340 -21.280  0.00  0.00    -0.001 C 
ATOM     25  C   UNL     1      34.030 -14.344 -22.130  0.00  0.00    +0.020 C 
ATOM     26  C   UNL     1      33.982 -14.630 -23.480  0.00  0.00    +0.098 C 
ENDBRANCH  16  19
ENDBRANCH   7  16
TORSDOF 3
ENDMDL
MODEL 3
REMARK VINA RESULT:     -11.4      3.228     10.151
REMARK  Name = 24779724
REMARK  3 active torsions:
REMARK  status: ('A' for Active; 'I' for Inactive)
REMARK    1  A    between atoms: C_5  and  C_12
REMARK    2  A    between atoms: C_7  and  S_16
REMARK    3  A    between atoms: S_16  and  C_19
REMARK                            x       y       z     vdW  Elec       q    Type
REMARK                         _______ _______ _______ _____ _____    ______ ____
ROOT
ATOM      1  N   UNL     1      34.617 -21.990 -18.533  0.00  0.00    -0.186 N 
ATOM      2  N   UNL     1      35.630 -22.353 -17.708  0.00  0.00    -0.162 NA
ATOM      3  N   UNL     1      32.616 -21.761 -19.409  0.00  0.00    -0.126 NA
ATOM      4  N   UNL     1      33.521 -21.084 -20.201  0.00  0.00    -0.120 NA
ATOM      5  C   UNL     1      35.248 -23.075 -16.693  0.00  0.00    +0.104 C 
ATOM      6  C   UNL     1      33.283 -22.301 -18.411  0.00  0.00    +0.187 A 
ATOM      7  C   UNL     1      34.711 -21.233 -19.665  0.00  0.00    +0.217 A 
ATOM      8  C   UNL     1      33.834 -23.505 -16.442  0.00  0.00    +0.024 C 
ATOM      9  C   UNL     1      32.902 -23.097 -17.313  0.00  0.00    +0.042 C 
ENDROOT
BRANCH   5  12
ATOM     10  N   UNL     1      37.282 -24.608 -14.104  0.00  0.00    -0.208 N 
ATOM     11  N   UNL     1      38.206 -23.726 -14.521  0.00  0.00    -0.176 NA
ATOM     12  C   UNL     1      36.266 -23.532 -15.711  0.00  0.00    +0.056 C 
ATOM     13  C   UNL     1      36.102 -24.532 -14.784  0.00  0.00    +0.087 C 
ATOM     14  C   UNL     1      37.580 -23.072 -15.503  0.00  0.00    +0.121 C 
ATOM     15  C   UNL     1      37.593 -25.517 -13.027  0.00  0.00    +0.140 C 
ENDBRANCH   5  12
BRANCH   7  16
ATOM     16  S   UNL     1      36.249 -20.565 -20.280  0.00  0.00    -0.051 S 
BRANCH  16  19
ATOM     17  N   UNL     1      34.312 -16.002 -23.568  0.00  0.00    -0.248 NA
ATOM     18  C   UNL     1      34.895 -18.334 -23.402  0.00  0.00    -0.003 C 
ATOM     19  C   UNL     1      35.668 -19.206 -21.273  0.00  0.00    +0.011 C 
ATOM     20  C   UNL     1      34.748 -17.048 -22.842  0.00  0.00    +0.060 C 
ATOM     21  C   UNL     1      35.353 -19.403 -22.615  0.00  0.00    +0.060 C 
ATOM     22  C   UNL     1      35.526 -17.942 -20.715  0.00  0.00    -0.017 C 
ATOM     23  C   UNL     1      35.070 -16.879 -21.498  0.00  0.00    +0.072 C 
ATOM     24  C   UNL     1      34.571 -18.504 -24.755  0.00  0.00    -0.001 C 
ATOM     25  C   UNL     1      34.121 -17.428 -25.506  0.00  0.00    +0.020 C 
ATOM     26  C   UNL     1      34.010 -16.209 -24.870  0.00  0.00    +0.098 C 
ENDBRANCH  16  19
ENDBRANCH   7  16
TORSDOF 3
ENDMDL
MODEL 4
REMARK VINA RESULT:     -10.7      4.767     10.168
REMARK  Name = 24779724
REMARK  3 active torsions:
REMARK  status: ('A' for Active; 'I' for Inactive)
REMARK    1  A    between atoms: C_5  and  C_12
REMARK    2  A    between atoms: C_7  and  S_16
REMARK    3  A    between atoms: S_16  and  C_19
REMARK                            x       y       z     vdW  Elec       q    Type
REMARK                         _______ _______ _______ _____ _____    ______ ____
ROOT
ATOM      1  N   UNL     1      32.841 -23.238 -16.392  0.00  0.00    -0.186 N 
ATOM      2  N   UNL     1      31.554 -23.157 -16.810  0.00  0.00    -0.162 NA
ATOM      3  N   UNL     1      34.623 -23.261 -15.108  0.00  0.00    -0.126 NA
ATOM      4  N   UNL     1      35.020 -23.477 -16.412  0.00  0.00    -0.120 NA
ATOM      5  C   UNL     1      30.700 -22.947 -15.848  0.00  0.00    +0.104 C 
ATOM      6  C   UNL     1      33.314 -23.119 -15.107  0.00  0.00    +0.187 A 
ATOM      7  C   UNL     1      33.944 -23.459 -17.166  0.00  0.00    +0.217 A 
ATOM      8  C   UNL     1      31.073 -22.779 -14.406  0.00  0.00    +0.024 C 
ATOM      9  C   UNL     1      32.371 -22.875 -14.089  0.00  0.00    +0.042 C 
ENDROOT
BRANCH   5  12
ATOM     10  N   UNL     1      27.129 -22.345 -16.114  0.00  0.00    -0.208 N 
ATOM     11  N   UNL     1      27.243 -23.082 -17.233  0.00  0.00    -0.176 NA
ATOM     12  C   UNL     1      29.256 -22.844 -16.177  0.00  0.00    +0.056 C 
ATOM     13  C   UNL     1      28.306 -22.174 -15.445  0.00  0.00    +0.087 C 
ATOM     14  C   UNL     1      28.544 -23.383 -17.267  0.00  0.00    +0.121 C 
ATOM     15  C   UNL     1      25.841 -21.822 -15.728  0.00  0.00    +0.140 C 
ENDBRANCH   5  12
BRANCH   7  16
ATOM     16  S   UNL     1      33.877 -23.684 -18.937  0.00  0.00    -0.051 S 
BRANCH  16  19
ATOM     17  N   UNL     1      36.170 -18.540 -20.850  0.00  0.00    -0.248 NA
ATOM     18  C   UNL     1      34.242 -19.936 -20.478  0.00  0.00    -0.003 C 
ATOM     19  C   UNL     1      34.553 -22.140 -19.511  0.00  0.00    +0.011 C 
ATOM     20  C   UNL     1      35.631 -19.696 -20.422  0.00  0.00    +0.060 C 
ATOM     21  C   UNL     1      33.713 -21.155 -20.023  0.00  0.00    +0.060 C 
ATOM     22  C   UNL     1      35.922 -21.911 -19.453  0.00  0.00    -0.017 C 
ATOM     23  C   UNL     1      36.448 -20.699 -19.906  0.00  0.00    +0.072 C 
ATOM     24  C   UNL     1      33.420 -18.927 -20.998  0.00  0.00    -0.001 C 
ATOM     25  C   UNL     1      33.972 -17.734 -21.440  0.00  0.00    +0.020 C 
ATOM     26  C   UNL     1      35.342 -17.592 -21.344  0.00  0.00    +0.098 C 
ENDBRANCH  16  19
ENDBRANCH   7  16
TORSDOF 3
ENDMDL
MODEL 5
REMARK VINA RESULT:     -10.7      4.871     11.659
REMARK  Name = 24779724
REMARK  3 active torsions:
REMARK  status: ('A' for Active; 'I' for Inactive)
REMARK    1  A    between atoms: C_5  and  C_12
REMARK    2  A    between atoms: C_7  and  S_16
REMARK    3  A    between atoms: S_16  and  C_19
REMARK                            x       y       z     vdW  Elec       q    Type
REMARK                         _______ _______ _______ _____ _____    ______ ____
ROOT
ATOM      1  N   UNL     1      33.908 -23.769 -16.129  0.00  0.00    -0.186 N 
ATOM      2  N   UNL     1      35.086 -24.441 -16.107  0.00  0.00    -0.162 NA
ATOM      3  N   UNL     1      32.106 -22.691 -15.486  0.00  0.00    -0.126 NA
ATOM      4  N   UNL     1      32.096 -22.778 -16.863  0.00  0.00    -0.120 NA
ATOM      5  C   UNL     1      35.564 -24.624 -14.909  0.00  0.00    +0.104 C 
ATOM      6  C   UNL     1      33.197 -23.288 -15.055  0.00  0.00    +0.187 A 
ATOM      7  C   UNL     1      33.178 -23.427 -17.231  0.00  0.00    +0.217 A 
ATOM      8  C   UNL     1      34.891 -24.171 -13.648  0.00  0.00    +0.024 C 
ATOM      9  C   UNL     1      33.730 -23.516 -13.771  0.00  0.00    +0.042 C 
ENDROOT
BRANCH   5  12
ATOM     10  N   UNL     1      38.974 -25.793 -14.470  0.00  0.00    -0.208 N 
ATOM     11  N   UNL     1      38.412 -27.007 -14.593  0.00  0.00    -0.176 NA
ATOM     12  C   UNL     1      36.855 -25.343 -14.752  0.00  0.00    +0.056 C 
ATOM     13  C   UNL     1      38.084 -24.762 -14.558  0.00  0.00    +0.087 C 
ATOM     14  C   UNL     1      37.118 -26.727 -14.765  0.00  0.00    +0.121 C 
ATOM     15  C   UNL     1      40.398 -25.679 -14.265  0.00  0.00    +0.140 C 
ENDBRANCH   5  12
BRANCH   7  16
ATOM     16  S   UNL     1      33.669 -23.823 -18.901  0.00  0.00    -0.051 S 
BRANCH  16  19
ATOM     17  N   UNL     1      36.123 -18.694 -20.648  0.00  0.00    -0.248 NA
ATOM     18  C   UNL     1      34.166 -20.081 -20.420  0.00  0.00    -0.003 C 
ATOM     19  C   UNL     1      34.393 -22.284 -19.427  0.00  0.00    +0.011 C 
ATOM     20  C   UNL     1      35.548 -19.847 -20.259  0.00  0.00    +0.060 C 
ATOM     21  C   UNL     1      33.599 -21.297 -20.003  0.00  0.00    +0.060 C 
ATOM     22  C   UNL     1      35.755 -22.060 -19.266  0.00  0.00    -0.017 C 
ATOM     23  C   UNL     1      36.319 -20.852 -19.681  0.00  0.00    +0.072 C 
ATOM     24  C   UNL     1      33.390 -19.070 -21.003  0.00  0.00    -0.001 C 
ATOM     25  C   UNL     1      33.980 -17.880 -21.405  0.00  0.00    +0.020 C 
ATOM     26  C   UNL     1      35.339 -17.744 -21.206  0.00  0.00    +0.098 C 
ENDBRANCH  16  19
ENDBRANCH   7  16
TORSDOF 3
ENDMDL
MODEL 6
REMARK VINA RESULT:     -10.6      2.216      8.935
REMARK  Name = 24779724
REMARK  3 active torsions:
REMARK  status: ('A' for Active; 'I' for Inactive)
REMARK    1  A    between atoms: C_5  and  C_12
REMARK    2  A    between atoms: C_7  and  S_16
REMARK    3  A    between atoms: S_16  and  C_19
REMARK                            x       y       z     vdW  Elec       q    Type
REMARK                         _______ _______ _______ _____ _____    ______ ____
ROOT
ATOM      1  N   UNL     1      33.598 -15.460 -23.743  0.00  0.00    -0.186 N 
ATOM      2  N   UNL     1      33.924 -16.274 -22.709  0.00  0.00    -0.162 NA
ATOM      3  N   UNL     1      33.376 -14.644 -25.771  0.00  0.00    -0.126 NA
ATOM      4  N   UNL     1      32.799 -13.763 -24.879  0.00  0.00    -0.120 NA
ATOM      5  C   UNL     1      34.545 -17.361 -23.072  0.00  0.00    +0.104 C 
ATOM      6  C   UNL     1      33.852 -15.659 -25.080  0.00  0.00    +0.187 A 
ATOM      7  C   UNL     1      32.942 -14.265 -23.673  0.00  0.00    +0.217 A 
ATOM      8  C   UNL     1      34.904 -17.701 -24.487  0.00  0.00    +0.024 C 
ATOM      9  C   UNL     1      34.540 -16.834 -25.440  0.00  0.00    +0.042 C 
ENDROOT
BRANCH   5  12
ATOM     10  N   UNL     1      34.944 -19.989 -20.597  0.00  0.00    -0.208 N 
ATOM     11  N   UNL     1      36.176 -19.468 -20.466  0.00  0.00    -0.176 NA
ATOM     12  C   UNL     1      34.951 -18.339 -22.030  0.00  0.00    +0.056 C 
ATOM     13  C   UNL     1      34.171 -19.348 -21.521  0.00  0.00    +0.087 C 
ATOM     14  C   UNL     1      36.175 -18.461 -21.344  0.00  0.00    +0.121 C 
ATOM     15  C   UNL     1      34.556 -21.123 -19.794  0.00  0.00    +0.140 C 
ENDBRANCH   5  12
BRANCH   7  16
ATOM     16  S   UNL     1      32.380 -13.537 -22.141  0.00  0.00    -0.051 S 
BRANCH  16  19
ATOM     17  N   UNL     1      32.402  -7.744 -23.492  0.00  0.00    -0.248 NA
ATOM     18  C   UNL     1      33.528  -9.874 -23.491  0.00  0.00    -0.003 C 
ATOM     19  C   UNL     1      32.396 -11.804 -22.551  0.00  0.00    +0.011 C 
ATOM     20  C   UNL     1      32.417  -9.057 -23.196  0.00  0.00    +0.060 C 
ATOM     21  C   UNL     1      33.510 -11.241 -23.167  0.00  0.00    +0.060 C 
ATOM     22  C   UNL     1      31.299 -11.005 -22.256  0.00  0.00    -0.017 C 
ATOM     23  C   UNL     1      31.317  -9.647 -22.579  0.00  0.00    +0.072 C 
ATOM     24  C   UNL     1      34.636  -9.282 -24.112  0.00  0.00    -0.001 C 
ATOM     25  C   UNL     1      34.623  -7.929 -24.419  0.00  0.00    +0.020 C 
ATOM     26  C   UNL     1      33.491  -7.211 -24.091  0.00  0.00    +0.098 C 
ENDBRANCH  16  19
ENDBRANCH   7  16
TORSDOF 3
ENDMDL
MODEL 7
REMARK VINA RESULT:     -10.6      4.608     11.432
REMARK  Name = 24779724
REMARK  3 active torsions:
REMARK  status: ('A' for Active; 'I' for Inactive)
REMARK    1  A    between atoms: C_5  and  C_12
REMARK    2  A    between atoms: C_7  and  S_16
REMARK    3  A    between atoms: S_16  and  C_19
REMARK                            x       y       z     vdW  Elec       q    Type
REMARK                         _______ _______ _______ _____ _____    ______ ____
ROOT
ATOM      1  N   UNL     1      33.031 -23.401 -16.059  0.00  0.00    -0.186 N 
ATOM      2  N   UNL     1      34.154 -23.850 -15.446  0.00  0.00    -0.162 NA
ATOM      3  N   UNL     1      30.979 -22.697 -16.405  0.00  0.00    -0.126 NA
ATOM      4  N   UNL     1      31.646 -22.716 -17.613  0.00  0.00    -0.120 NA
ATOM      5  C   UNL     1      34.025 -24.004 -14.159  0.00  0.00    +0.104 C 
ATOM      6  C   UNL     1      31.819 -23.109 -15.478  0.00  0.00    +0.187 A 
ATOM      7  C   UNL     1      32.869 -23.140 -17.389  0.00  0.00    +0.217 A 
ATOM      8  C   UNL     1      32.762 -23.743 -13.395  0.00  0.00    +0.024 C 
ATOM      9  C   UNL     1      31.704 -23.302 -14.087  0.00  0.00    +0.042 C 
ENDROOT
BRANCH   5  12
ATOM     10  N   UNL     1      37.164 -25.233 -12.807  0.00  0.00    -0.208 N 
ATOM     11  N   UNL     1      36.525 -25.121 -11.630  0.00  0.00    -0.176 NA
ATOM     12  C   UNL     1      35.190 -24.487 -13.372  0.00  0.00    +0.056 C 
ATOM     13  C   UNL     1      36.407 -24.866 -13.881  0.00  0.00    +0.087 C 
ATOM     14  C   UNL     1      35.320 -24.664 -11.981  0.00  0.00    +0.121 C 
ATOM     15  C   UNL     1      38.526 -25.708 -12.841  0.00  0.00    +0.140 C 
ENDBRANCH   5  12
BRANCH   7  16
ATOM     16  S   UNL     1      34.162 -23.359 -18.601  0.00  0.00    -0.051 S 
BRANCH  16  19
ATOM     17  N   UNL     1      33.892 -18.169 -21.497  0.00  0.00    -0.248 NA
ATOM     18  C   UNL     1      35.216 -19.958 -20.572  0.00  0.00    -0.003 C 
ATOM     19  C   UNL     1      34.092 -21.805 -19.470  0.00  0.00    +0.011 C 
ATOM     20  C   UNL     1      33.975 -19.343 -20.844  0.00  0.00    +0.060 C 
ATOM     21  C   UNL     1      35.265 -21.184 -19.887  0.00  0.00    +0.060 C 
ATOM     22  C   UNL     1      32.867 -21.206 -19.733  0.00  0.00    -0.017 C 
ATOM     23  C   UNL     1      32.818 -19.987 -20.414  0.00  0.00    +0.072 C 
ATOM     24  C   UNL     1      36.380 -19.310 -21.004  0.00  0.00    -0.001 C 
ATOM     25  C   UNL     1      36.298 -18.100 -21.678  0.00  0.00    +0.020 C 
ATOM     26  C   UNL     1      35.040 -17.577 -21.897  0.00  0.00    +0.098 C 
ENDBRANCH  16  19
ENDBRANCH   7  16
TORSDOF 3
ENDMDL
MODEL 8
REMARK VINA RESULT:     -10.3      1.470      2.155
REMARK  Name = 24779724
REMARK  3 active torsions:
REMARK  status: ('A' for Active; 'I' for Inactive)
REMARK    1  A    between atoms: C_5  and  C_12
REMARK    2  A    between atoms: C_7  and  S_16
REMARK    3  A    between atoms: S_16  and  C_19
REMARK                            x       y       z     vdW  Elec       q    Type
REMARK                         _______ _______ _______ _____ _____    ______ ____
ROOT
ATOM      1  N   UNL     1      33.982 -14.874 -23.989  0.00  0.00    -0.186 N 
ATOM      2  N   UNL     1      33.939 -13.589 -23.558  0.00  0.00    -0.162 NA
ATOM      3  N   UNL     1      33.905 -16.647 -25.284  0.00  0.00    -0.126 NA
ATOM      4  N   UNL     1      34.205 -17.055 -24.000  0.00  0.00    -0.120 NA
ATOM      5  C   UNL     1      33.670 -12.728 -24.499  0.00  0.00    +0.104 C 
ATOM      6  C   UNL     1      33.773 -15.337 -25.267  0.00  0.00    +0.187 A 
ATOM      7  C   UNL     1      34.245 -15.984 -23.239  0.00  0.00    +0.217 A 
ATOM      8  C   UNL     1      33.403 -13.089 -25.929  0.00  0.00    +0.024 C 
ATOM      9  C   UNL     1      33.468 -14.385 -26.259  0.00  0.00    +0.042 C 
ENDROOT
BRANCH   5  12
ATOM     10  N   UNL     1      34.047  -9.152 -23.992  0.00  0.00    -0.208 N 
ATOM     11  N   UNL     1      32.906  -9.285 -23.294  0.00  0.00    -0.176 NA
ATOM     12  C   UNL     1      33.600 -11.285 -24.154  0.00  0.00    +0.056 C 
ATOM     13  C   UNL     1      34.505 -10.320 -24.527  0.00  0.00    +0.087 C 
ATOM     14  C   UNL     1      32.638 -10.589 -23.396  0.00  0.00    +0.121 C 
ATOM     15  C   UNL     1      34.665  -7.853 -24.114  0.00  0.00    +0.140 C 
ENDBRANCH   5  12
BRANCH   7  16
ATOM     16  S   UNL     1      34.590 -15.931 -21.487  0.00  0.00    -0.051 S 
BRANCH  16  19
ATOM     17  N   UNL     1      35.725 -21.658 -20.348  0.00  0.00    -0.248 NA
ATOM     18  C   UNL     1      34.150 -19.837 -20.434  0.00  0.00    -0.003 C 
ATOM     19  C   UNL     1      34.919 -17.647 -21.144  0.00  0.00    +0.011 C 
ATOM     20  C   UNL     1      35.447 -20.366 -20.601  0.00  0.00    +0.060 C 
ATOM     21  C   UNL     1      33.895 -18.483 -20.707  0.00  0.00    +0.060 C 
ATOM     22  C   UNL     1      36.199 -18.161 -21.310  0.00  0.00    -0.017 C 
ATOM     23  C   UNL     1      36.452 -19.508 -21.039  0.00  0.00    +0.072 C 
ATOM     24  C   UNL     1      33.138 -20.700 -19.993  0.00  0.00    -0.001 C 
ATOM     25  C   UNL     1      33.422 -22.033 -19.732  0.00  0.00    +0.020 C 
ATOM     26  C   UNL     1      34.721 -22.458 -19.924  0.00  0.00    +0.098 C 
ENDBRANCH  16  19
ENDBRANCH   7  16
TORSDOF 3
ENDMDL
MODEL 9
REMARK VINA RESULT:     -10.2      3.379      6.215
REMARK  Name = 24779724
REMARK  3 active torsions:
REMARK  status: ('A' for Active; 'I' for Inactive)
REMARK    1  A    between atoms: C_5  and  C_12
REMARK    2  A    between atoms: C_7  and  S_16
REMARK    3  A    between atoms: S_16  and  C_19
REMARK                            x       y       z     vdW  Elec       q    Type
REMARK                         _______ _______ _______ _____ _____    ______ ____
ROOT
ATOM      1  N   UNL     1      32.189 -10.501 -21.687  0.00  0.00    -0.186 N 
ATOM      2  N   UNL     1      32.619  -9.743 -22.726  0.00  0.00    -0.162 NA
ATOM      3  N   UNL     1      31.497 -11.115 -19.694  0.00  0.00    -0.126 NA
ATOM      4  N   UNL     1      31.551 -12.232 -20.503  0.00  0.00    -0.120 NA
ATOM      5  C   UNL     1      32.736  -8.477 -22.440  0.00  0.00    +0.104 C 
ATOM      6  C   UNL     1      31.882 -10.082 -20.414  0.00  0.00    +0.187 A 
ATOM      7  C   UNL     1      31.968 -11.848 -21.689  0.00  0.00    +0.217 A 
ATOM      8  C   UNL     1      32.454  -7.882 -21.093  0.00  0.00    +0.024 C 
ATOM      9  C   UNL     1      32.034  -8.710 -20.129  0.00  0.00    +0.042 C 
ENDROOT
BRANCH   5  12
ATOM     10  N   UNL     1      33.252  -5.964 -25.010  0.00  0.00    -0.208 N 
ATOM     11  N   UNL     1      34.504  -6.453 -25.022  0.00  0.00    -0.176 NA
ATOM     12  C   UNL     1      33.194  -7.540 -23.498  0.00  0.00    +0.056 C 
ATOM     13  C   UNL     1      32.428  -6.582 -24.115  0.00  0.00    +0.087 C 
ATOM     14  C   UNL     1      34.463  -7.415 -24.096  0.00  0.00    +0.121 C 
ATOM     15  C   UNL     1      32.896  -4.883 -25.898  0.00  0.00    +0.140 C 
ENDBRANCH   5  12
BRANCH   7  16
ATOM     16  S   UNL     1      32.220 -12.887 -23.120  0.00  0.00    -0.051 S 
BRANCH  16  19
ATOM     17  N   UNL     1      35.350 -17.350 -20.739  0.00  0.00    -0.248 NA
ATOM     18  C   UNL     1      34.424 -16.280 -22.689  0.00  0.00    -0.003 C 
ATOM     19  C   UNL     1      33.159 -14.227 -22.417  0.00  0.00    +0.011 C 
ATOM     20  C   UNL     1      34.645 -16.349 -21.298  0.00  0.00    +0.060 C 
ATOM     21  C   UNL     1      33.683 -15.221 -23.239  0.00  0.00    +0.060 C 
ATOM     22  C   UNL     1      33.372 -14.288 -21.046  0.00  0.00    -0.017 C 
ATOM     23  C   UNL     1      34.109 -15.342 -20.499  0.00  0.00    +0.072 C 
ATOM     24  C   UNL     1      34.964 -17.293 -23.493  0.00  0.00    -0.001 C 
ATOM     25  C   UNL     1      35.691 -18.327 -22.920  0.00  0.00    +0.020 C 
ATOM     26  C   UNL     1      35.853 -18.308 -21.549  0.00  0.00    +0.098 C 
ENDBRANCH  16  19
ENDBRANCH   7  16
TORSDOF 3
ENDMDL
