MODEL 1
REMARK VINA RESULT:     -10.2      0.000      0.000
REMARK  Name = 24892821
REMARK  3 active torsions:
REMARK  status: ('A' for Active; 'I' for Inactive)
REMARK    1  A    between atoms: C_1  and  C_3
REMARK    2  A    between atoms: C_1  and  C_14
REMARK    3  A    between atoms: C_19  and  O_20
REMARK                            x       y       z     vdW  Elec       q    Type
REMARK                         _______ _______ _______ _____ _____    ______ ____
ROOT
ATOM      1  C   UNL     1      35.770 -18.359 -21.157  0.00  0.00    +0.028 C 
ENDROOT
BRANCH   1   3
ATOM      2  N   UNL     1      34.724 -17.596 -24.710  0.00  0.00    -0.244 NA
ATOM      3  C   UNL     1      35.206 -17.631 -22.345  0.00  0.00    -0.003 C 
ATOM      4  C   UNL     1      34.659 -16.362 -22.218  0.00  0.00    -0.001 C 
ATOM      5  C   UNL     1      35.215 -18.199 -23.604  0.00  0.00    +0.095 C 
ATOM      6  C   UNL     1      34.140 -15.703 -23.340  0.00  0.00    +0.017 C 
ATOM      7  C   UNL     1      34.194 -16.365 -24.585  0.00  0.00    +0.081 C 
ATOM      8  C   UNL     1      33.579 -14.418 -23.245  0.00  0.00    +0.001 C 
ATOM      9  C   UNL     1      33.678 -15.710 -25.699  0.00  0.00    +0.019 C 
ATOM     10  C   UNL     1      33.069 -13.785 -24.376  0.00  0.00    +0.000 C 
ATOM     11  C   UNL     1      33.120 -14.432 -25.604  0.00  0.00    +0.002 C 
ENDBRANCH   1   3
BRANCH   1  14
ATOM     12  O   UNL     1      34.386 -23.158 -17.549  0.00  0.00    -0.226 OA
ATOM     13  N   UNL     1      34.051 -21.926 -19.494  0.00  0.00    -0.246 N 
ATOM     14  C   UNL     1      35.219 -19.780 -21.053  0.00  0.00    +0.008 C 
ATOM     15  C   UNL     1      36.052 -20.619 -20.073  0.00  0.00    +0.022 C 
ATOM     16  C   UNL     1      33.743 -19.764 -20.626  0.00  0.00    +0.022 C 
ATOM     17  C   UNL     1      35.457 -22.015 -19.892  0.00  0.00    +0.097 C 
ATOM     18  C   UNL     1      33.208 -21.184 -20.440  0.00  0.00    +0.097 C 
ATOM     19  C   UNL     1      33.638 -22.537 -18.304  0.00  0.00    +0.402 C 
BRANCH  19  20
ATOM     20  O   UNL     1      32.319 -22.411 -17.983  0.00  0.00    -0.466 OA
ATOM     21  H   UNL     1      31.995 -22.769 -17.181  0.00  0.00    +0.297 HD
ENDBRANCH  19  20
ENDBRANCH   1  14
TORSDOF 3
ENDMDL
MODEL 2
REMARK VINA RESULT:     -10.0      4.494      8.024
REMARK  Name = 24892821
REMARK  3 active torsions:
REMARK  status: ('A' for Active; 'I' for Inactive)
REMARK    1  A    between atoms: C_1  and  C_3
REMARK    2  A    between atoms: C_1  and  C_14
REMARK    3  A    between atoms: C_19  and  O_20
REMARK                            x       y       z     vdW  Elec       q    Type
REMARK                         _______ _______ _______ _____ _____    ______ ____
ROOT
ATOM      1  C   UNL     1      35.540 -16.863 -22.791  0.00  0.00    +0.028 C 
ENDROOT
BRANCH   1   3
ATOM      2  N   UNL     1      33.277 -19.380 -21.104  0.00  0.00    -0.244 NA
ATOM      3  C   UNL     1      35.087 -18.033 -21.962  0.00  0.00    -0.003 C 
ATOM      4  C   UNL     1      35.999 -18.841 -21.299  0.00  0.00    -0.001 C 
ATOM      5  C   UNL     1      33.748 -18.343 -21.833  0.00  0.00    +0.095 C 
ATOM      6  C   UNL     1      35.553 -19.926 -20.533  0.00  0.00    +0.017 C 
ATOM      7  C   UNL     1      34.164 -20.162 -20.460  0.00  0.00    +0.081 C 
ATOM      8  C   UNL     1      36.451 -20.763 -19.849  0.00  0.00    +0.001 C 
ATOM      9  C   UNL     1      33.721 -21.240 -19.699  0.00  0.00    +0.019 C 
ATOM     10  C   UNL     1      35.981 -21.834 -19.094  0.00  0.00    +0.000 C 
ATOM     11  C   UNL     1      34.615 -22.072 -19.019  0.00  0.00    +0.002 C 
ENDBRANCH   1   3
BRANCH   1  14
ATOM     12  O   UNL     1      33.476 -12.104 -26.115  0.00  0.00    -0.226 OA
ATOM     13  N   UNL     1      33.378 -14.352 -25.523  0.00  0.00    -0.246 N 
ATOM     14  C   UNL     1      34.379 -16.227 -23.552  0.00  0.00    +0.008 C 
ATOM     15  C   UNL     1      34.304 -14.718 -23.274  0.00  0.00    +0.022 C 
ATOM     16  C   UNL     1      34.505 -16.489 -25.061  0.00  0.00    +0.022 C 
ATOM     17  C   UNL     1      33.203 -14.055 -24.099  0.00  0.00    +0.097 C 
ATOM     18  C   UNL     1      33.391 -15.786 -25.837  0.00  0.00    +0.097 C 
ATOM     19  C   UNL     1      33.503 -13.293 -26.430  0.00  0.00    +0.402 C 
BRANCH  19  20
ATOM     20  O   UNL     1      33.674 -13.635 -27.739  0.00  0.00    -0.466 OA
ATOM     21  H   UNL     1      34.511 -13.927 -28.042  0.00  0.00    +0.297 HD
ENDBRANCH  19  20
ENDBRANCH   1  14
TORSDOF 3
ENDMDL
MODEL 3
REMARK VINA RESULT:     -10.0      3.624      7.369
REMARK  Name = 24892821
REMARK  3 active torsions:
REMARK  status: ('A' for Active; 'I' for Inactive)
REMARK    1  A    between atoms: C_1  and  C_3
REMARK    2  A    between atoms: C_1  and  C_14
REMARK    3  A    between atoms: C_19  and  O_20
REMARK                            x       y       z     vdW  Elec       q    Type
REMARK                         _______ _______ _______ _____ _____    ______ ____
ROOT
ATOM      1  C   UNL     1      34.889 -18.002 -23.010  0.00  0.00    +0.028 C 
ENDROOT
BRANCH   1   3
ATOM      2  N   UNL     1      36.731 -19.861 -20.280  0.00  0.00    -0.244 NA
ATOM      3  C   UNL     1      35.164 -18.943 -21.871  0.00  0.00    -0.003 C 
ATOM      4  C   UNL     1      34.165 -19.752 -21.349  0.00  0.00    -0.001 C 
ATOM      5  C   UNL     1      36.420 -19.035 -21.305  0.00  0.00    +0.095 C 
ATOM      6  C   UNL     1      34.445 -20.621 -20.287  0.00  0.00    +0.017 C 
ATOM      7  C   UNL     1      35.760 -20.646 -19.776  0.00  0.00    +0.081 C 
ATOM      8  C   UNL     1      33.456 -21.454 -19.736  0.00  0.00    +0.001 C 
ATOM      9  C   UNL     1      36.038 -21.510 -18.720  0.00  0.00    +0.019 C 
ATOM     10  C   UNL     1      33.761 -22.309 -18.680  0.00  0.00    +0.000 C 
ATOM     11  C   UNL     1      35.054 -22.337 -18.173  0.00  0.00    +0.002 C 
ENDBRANCH   1   3
BRANCH   1  14
ATOM     12  O   UNL     1      32.021 -12.577 -22.463  0.00  0.00    -0.226 OA
ATOM     13  N   UNL     1      33.656 -14.079 -21.770  0.00  0.00    -0.246 N 
ATOM     14  C   UNL     1      34.961 -16.542 -22.565  0.00  0.00    +0.008 C 
ATOM     15  C   UNL     1      34.265 -15.625 -23.583  0.00  0.00    +0.022 C 
ATOM     16  C   UNL     1      34.340 -16.364 -21.171  0.00  0.00    +0.022 C 
ATOM     17  C   UNL     1      34.252 -14.175 -23.105  0.00  0.00    +0.097 C 
ATOM     18  C   UNL     1      34.334 -14.894 -20.754  0.00  0.00    +0.097 C 
ATOM     19  C   UNL     1      32.546 -13.249 -21.576  0.00  0.00    +0.402 C 
BRANCH  19  20
ATOM     20  O   UNL     1      32.032 -13.210 -20.314  0.00  0.00    -0.466 OA
ATOM     21  H   UNL     1      31.814 -14.007 -19.872  0.00  0.00    +0.297 HD
ENDBRANCH  19  20
ENDBRANCH   1  14
TORSDOF 3
ENDMDL
MODEL 4
REMARK VINA RESULT:      -9.8      3.286      5.661
REMARK  Name = 24892821
REMARK  3 active torsions:
REMARK  status: ('A' for Active; 'I' for Inactive)
REMARK    1  A    between atoms: C_1  and  C_3
REMARK    2  A    between atoms: C_1  and  C_14
REMARK    3  A    between atoms: C_19  and  O_20
REMARK                            x       y       z     vdW  Elec       q    Type
REMARK                         _______ _______ _______ _____ _____    ______ ____
ROOT
ATOM      1  C   UNL     1      33.554 -23.127 -18.655  0.00  0.00    +0.028 C 
ENDROOT
BRANCH   1   3
ATOM      2  N   UNL     1      36.386 -20.855 -19.713  0.00  0.00    -0.244 NA
ATOM      3  C   UNL     1      34.296 -21.989 -19.299  0.00  0.00    -0.003 C 
ATOM      4  C   UNL     1      33.631 -21.033 -20.055  0.00  0.00    -0.001 C 
ATOM      5  C   UNL     1      35.663 -21.855 -19.160  0.00  0.00    +0.095 C 
ATOM      6  C   UNL     1      34.344 -19.982 -20.646  0.00  0.00    +0.017 C 
ATOM      7  C   UNL     1      35.739 -19.929 -20.446  0.00  0.00    +0.081 C 
ATOM      8  C   UNL     1      33.701 -18.999 -21.417  0.00  0.00    +0.001 C 
ATOM      9  C   UNL     1      36.447 -18.884 -21.033  0.00  0.00    +0.019 C 
ATOM     10  C   UNL     1      34.433 -17.964 -21.993  0.00  0.00    +0.000 C 
ATOM     11  C   UNL     1      35.807 -17.906 -21.800  0.00  0.00    +0.002 C 
ENDBRANCH   1   3
BRANCH   1  14
ATOM     12  O   UNL     1      30.515 -24.815 -13.569  0.00  0.00    -0.226 OA
ATOM     13  N   UNL     1      32.261 -23.672 -14.596  0.00  0.00    -0.246 N 
ATOM     14  C   UNL     1      33.192 -22.816 -17.204  0.00  0.00    +0.008 C 
ATOM     15  C   UNL     1      31.712 -23.127 -16.931  0.00  0.00    +0.022 C 
ATOM     16  C   UNL     1      34.093 -23.599 -16.236  0.00  0.00    +0.022 C 
ATOM     17  C   UNL     1      31.361 -22.905 -15.461  0.00  0.00    +0.097 C 
ATOM     18  C   UNL     1      33.683 -23.356 -14.784  0.00  0.00    +0.097 C 
ATOM     19  C   UNL     1      31.719 -24.594 -13.694  0.00  0.00    +0.402 C 
BRANCH  19  20
ATOM     20  O   UNL     1      32.609 -25.283 -12.924  0.00  0.00    -0.466 OA
ATOM     21  H   UNL     1      33.236 -25.850 -13.327  0.00  0.00    +0.297 HD
ENDBRANCH  19  20
ENDBRANCH   1  14
TORSDOF 3
ENDMDL
MODEL 5
REMARK VINA RESULT:      -9.8      4.083      7.609
REMARK  Name = 24892821
REMARK  3 active torsions:
REMARK  status: ('A' for Active; 'I' for Inactive)
REMARK    1  A    between atoms: C_1  and  C_3
REMARK    2  A    between atoms: C_1  and  C_14
REMARK    3  A    between atoms: C_19  and  O_20
REMARK                            x       y       z     vdW  Elec       q    Type
REMARK                         _______ _______ _______ _____ _____    ______ ____
ROOT
ATOM      1  C   UNL     1      36.094 -17.608 -22.833  0.00  0.00    +0.028 C 
ENDROOT
BRANCH   1   3
ATOM      2  N   UNL     1      36.733 -20.204 -20.158  0.00  0.00    -0.244 NA
ATOM      3  C   UNL     1      35.849 -18.684 -21.812  0.00  0.00    -0.003 C 
ATOM      4  C   UNL     1      34.570 -19.159 -21.561  0.00  0.00    -0.001 C 
ATOM      5  C   UNL     1      36.888 -19.236 -21.089  0.00  0.00    +0.095 C 
ATOM      6  C   UNL     1      34.366 -20.161 -20.604  0.00  0.00    +0.017 C 
ATOM      7  C   UNL     1      35.490 -20.664 -19.916  0.00  0.00    +0.081 C 
ATOM      8  C   UNL     1      33.083 -20.664 -20.326  0.00  0.00    +0.001 C 
ATOM      9  C   UNL     1      35.287 -21.660 -18.966  0.00  0.00    +0.019 C 
ATOM     10  C   UNL     1      32.908 -21.660 -19.370  0.00  0.00    +0.000 C 
ATOM     11  C   UNL     1      34.011 -22.159 -18.690  0.00  0.00    +0.002 C 
ENDBRANCH   1   3
BRANCH   1  14
ATOM     12  O   UNL     1      33.401 -12.115 -23.560  0.00  0.00    -0.226 OA
ATOM     13  N   UNL     1      33.499 -14.395 -24.010  0.00  0.00    -0.246 N 
ATOM     14  C   UNL     1      34.820 -16.826 -23.147  0.00  0.00    +0.008 C 
ATOM     15  C   UNL     1      34.691 -15.601 -22.229  0.00  0.00    +0.022 C 
ATOM     16  C   UNL     1      34.791 -16.397 -24.622  0.00  0.00    +0.022 C 
ATOM     17  C   UNL     1      33.468 -14.762 -22.593  0.00  0.00    +0.097 C 
ATOM     18  C   UNL     1      33.559 -15.544 -24.923  0.00  0.00    +0.097 C 
ATOM     19  C   UNL     1      33.461 -13.042 -24.367  0.00  0.00    +0.402 C 
BRANCH  19  20
ATOM     20  O   UNL     1      33.503 -12.766 -25.701  0.00  0.00    -0.466 OA
ATOM     21  H   UNL     1      32.710 -12.736 -26.199  0.00  0.00    +0.297 HD
ENDBRANCH  19  20
ENDBRANCH   1  14
TORSDOF 3
ENDMDL
MODEL 6
REMARK VINA RESULT:      -9.6      3.606      8.078
REMARK  Name = 24892821
REMARK  3 active torsions:
REMARK  status: ('A' for Active; 'I' for Inactive)
REMARK    1  A    between atoms: C_1  and  C_3
REMARK    2  A    between atoms: C_1  and  C_14
REMARK    3  A    between atoms: C_19  and  O_20
REMARK                            x       y       z     vdW  Elec       q    Type
REMARK                         _______ _______ _______ _____ _____    ______ ____
ROOT
ATOM      1  C   UNL     1      33.874 -20.293 -21.078  0.00  0.00    +0.028 C 
ENDROOT
BRANCH   1   3
ATOM      2  N   UNL     1      36.705 -21.059 -18.691  0.00  0.00    -0.244 NA
ATOM      3  C   UNL     1      34.634 -20.869 -19.916  0.00  0.00    -0.003 C 
ATOM      4  C   UNL     1      34.021 -21.718 -19.006  0.00  0.00    -0.001 C 
ATOM      5  C   UNL     1      35.967 -20.574 -19.715  0.00  0.00    +0.095 C 
ATOM      6  C   UNL     1      34.749 -22.242 -17.930  0.00  0.00    +0.017 C 
ATOM      7  C   UNL     1      36.108 -21.883 -17.809  0.00  0.00    +0.081 C 
ATOM      8  C   UNL     1      34.158 -23.105 -16.991  0.00  0.00    +0.001 C 
ATOM      9  C   UNL     1      36.831 -22.405 -16.740  0.00  0.00    +0.019 C 
ATOM     10  C   UNL     1      34.904 -23.612 -15.931  0.00  0.00    +0.000 C 
ATOM     11  C   UNL     1      36.243 -23.262 -15.807  0.00  0.00    +0.002 C 
ENDBRANCH   1   3
BRANCH   1  14
ATOM     12  O   UNL     1      34.299 -16.396 -25.831  0.00  0.00    -0.226 OA
ATOM     13  N   UNL     1      34.782 -16.956 -23.626  0.00  0.00    -0.246 N 
ATOM     14  C   UNL     1      34.658 -19.177 -21.767  0.00  0.00    +0.008 C 
ATOM     15  C   UNL     1      34.689 -19.391 -23.289  0.00  0.00    +0.022 C 
ATOM     16  C   UNL     1      34.061 -17.802 -21.431  0.00  0.00    +0.022 C 
ATOM     17  C   UNL     1      35.393 -18.235 -23.996  0.00  0.00    +0.097 C 
ATOM     18  C   UNL     1      34.789 -16.687 -22.182  0.00  0.00    +0.097 C 
ATOM     19  C   UNL     1      34.272 -16.127 -24.631  0.00  0.00    +0.402 C 
BRANCH  19  20
ATOM     20  O   UNL     1      33.707 -14.955 -24.221  0.00  0.00    -0.466 OA
ATOM     21  H   UNL     1      33.236 -14.920 -23.411  0.00  0.00    +0.297 HD
ENDBRANCH  19  20
ENDBRANCH   1  14
TORSDOF 3
ENDMDL
MODEL 7
REMARK VINA RESULT:      -9.6      9.434     10.695
REMARK  Name = 24892821
REMARK  3 active torsions:
REMARK  status: ('A' for Active; 'I' for Inactive)
REMARK    1  A    between atoms: C_1  and  C_3
REMARK    2  A    between atoms: C_1  and  C_14
REMARK    3  A    between atoms: C_19  and  O_20
REMARK                            x       y       z     vdW  Elec       q    Type
REMARK                         _______ _______ _______ _____ _____    ______ ____
ROOT
ATOM      1  C   UNL     1      35.055 -23.127 -14.638  0.00  0.00    +0.028 C 
ENDROOT
BRANCH   1   3
ATOM      2  N   UNL     1      31.983 -25.024 -13.510  0.00  0.00    -0.244 NA
ATOM      3  C   UNL     1      33.638 -23.627 -14.577  0.00  0.00    -0.003 C 
ATOM      4  C   UNL     1      32.682 -23.191 -15.483  0.00  0.00    -0.001 C 
ATOM      5  C   UNL     1      33.240 -24.537 -13.618  0.00  0.00    +0.095 C 
ATOM      6  C   UNL     1      31.368 -23.671 -15.406  0.00  0.00    +0.017 C 
ATOM      7  C   UNL     1      31.057 -24.600 -14.391  0.00  0.00    +0.081 C 
ATOM      8  C   UNL     1      30.376 -23.249 -16.308  0.00  0.00    +0.001 C 
ATOM      9  C   UNL     1      29.751 -25.076 -14.315  0.00  0.00    +0.019 C 
ATOM     10  C   UNL     1      29.078 -23.741 -16.210  0.00  0.00    +0.000 C 
ATOM     11  C   UNL     1      28.766 -24.656 -15.212  0.00  0.00    +0.002 C 
ENDBRANCH   1   3
BRANCH   1  14
ATOM     12  O   UNL     1      40.338 -26.150 -15.595  0.00  0.00    -0.226 OA
ATOM     13  N   UNL     1      38.703 -25.341 -14.151  0.00  0.00    -0.246 N 
ATOM     14  C   UNL     1      36.046 -24.181 -14.149  0.00  0.00    +0.008 C 
ATOM     15  C   UNL     1      36.560 -25.033 -15.319  0.00  0.00    +0.022 C 
ATOM     16  C   UNL     1      37.221 -23.524 -13.407  0.00  0.00    +0.022 C 
ATOM     17  C   UNL     1      37.620 -26.031 -14.855  0.00  0.00    +0.097 C 
ATOM     18  C   UNL     1      38.258 -24.565 -12.986  0.00  0.00    +0.097 C 
ATOM     19  C   UNL     1      40.016 -25.477 -14.616  0.00  0.00    +0.402 C 
BRANCH  19  20
ATOM     20  O   UNL     1      40.977 -24.802 -13.923  0.00  0.00    -0.466 OA
ATOM     21  H   UNL     1      40.878 -23.886 -13.756  0.00  0.00    +0.297 HD
ENDBRANCH  19  20
ENDBRANCH   1  14
TORSDOF 3
ENDMDL
MODEL 8
REMARK VINA RESULT:      -9.4      4.237      6.432
REMARK  Name = 24892821
REMARK  3 active torsions:
REMARK  status: ('A' for Active; 'I' for Inactive)
REMARK    1  A    between atoms: C_1  and  C_3
REMARK    2  A    between atoms: C_1  and  C_14
REMARK    3  A    between atoms: C_19  and  O_20
REMARK                            x       y       z     vdW  Elec       q    Type
REMARK                         _______ _______ _______ _____ _____    ______ ____
ROOT
ATOM      1  C   UNL     1      32.362 -13.653 -23.120  0.00  0.00    +0.028 C 
ENDROOT
BRANCH   1   3
ATOM      2  N   UNL     1      31.839 -10.095 -21.949  0.00  0.00    -0.244 NA
ATOM      3  C   UNL     1      32.536 -12.167 -22.974  0.00  0.00    -0.003 C 
ATOM      4  C   UNL     1      33.510 -11.482 -23.687  0.00  0.00    -0.001 C 
ATOM      5  C   UNL     1      31.733 -11.431 -22.125  0.00  0.00    +0.095 C 
ATOM      6  C   UNL     1      33.654 -10.098 -23.534  0.00  0.00    +0.017 C 
ATOM      7  C   UNL     1      32.785  -9.433 -22.643  0.00  0.00    +0.081 C 
ATOM      8  C   UNL     1      34.630  -9.376 -24.241  0.00  0.00    +0.001 C 
ATOM      9  C   UNL     1      32.928  -8.057 -22.491  0.00  0.00    +0.019 C 
ATOM     10  C   UNL     1      34.752  -8.000 -24.070  0.00  0.00    +0.000 C 
ATOM     11  C   UNL     1      33.899  -7.340 -23.195  0.00  0.00    +0.002 C 
ENDBRANCH   1   3
BRANCH   1  14
ATOM     12  O   UNL     1      34.893 -18.705 -20.665  0.00  0.00    -0.226 OA
ATOM     13  N   UNL     1      35.007 -16.880 -22.104  0.00  0.00    -0.246 N 
ATOM     14  C   UNL     1      33.636 -14.409 -22.751  0.00  0.00    +0.008 C 
ATOM     15  C   UNL     1      33.494 -15.082 -21.377  0.00  0.00    +0.022 C 
ATOM     16  C   UNL     1      33.984 -15.452 -23.826  0.00  0.00    +0.022 C 
ATOM     17  C   UNL     1      34.728 -15.916 -21.038  0.00  0.00    +0.097 C 
ATOM     18  C   UNL     1      35.212 -16.269 -23.423  0.00  0.00    +0.097 C 
ATOM     19  C   UNL     1      35.063 -18.244 -21.793  0.00  0.00    +0.402 C 
BRANCH  19  20
ATOM     20  O   UNL     1      35.316 -19.091 -22.831  0.00  0.00    -0.466 OA
ATOM     21  H   UNL     1      34.680 -19.733 -23.078  0.00  0.00    +0.297 HD
ENDBRANCH  19  20
ENDBRANCH   1  14
TORSDOF 3
ENDMDL
MODEL 9
REMARK VINA RESULT:      -9.4      3.668      8.740
REMARK  Name = 24892821
REMARK  3 active torsions:
REMARK  status: ('A' for Active; 'I' for Inactive)
REMARK    1  A    between atoms: C_1  and  C_3
REMARK    2  A    between atoms: C_1  and  C_14
REMARK    3  A    between atoms: C_19  and  O_20
REMARK                            x       y       z     vdW  Elec       q    Type
REMARK                         _______ _______ _______ _____ _____    ______ ____
ROOT
ATOM      1  C   UNL     1      34.186 -22.736 -19.218  0.00  0.00    +0.028 C 
ENDROOT
BRANCH   1   3
ATOM      2  N   UNL     1      34.203 -23.319 -15.481  0.00  0.00    -0.244 NA
ATOM      3  C   UNL     1      33.697 -22.933 -17.810  0.00  0.00    -0.003 C 
ATOM      4  C   UNL     1      32.342 -22.917 -17.510  0.00  0.00    -0.001 C 
ATOM      5  C   UNL     1      34.579 -23.136 -16.767  0.00  0.00    +0.095 C 
ATOM      6  C   UNL     1      31.911 -23.102 -16.190  0.00  0.00    +0.017 C 
ATOM      7  C   UNL     1      32.887 -23.304 -15.192  0.00  0.00    +0.081 C 
ATOM      8  C   UNL     1      30.546 -23.092 -15.853  0.00  0.00    +0.001 C 
ATOM      9  C   UNL     1      32.458 -23.488 -13.881  0.00  0.00    +0.019 C 
ATOM     10  C   UNL     1      30.144 -23.278 -14.534  0.00  0.00    +0.000 C 
ATOM     11  C   UNL     1      31.101 -23.477 -13.547  0.00  0.00    +0.002 C 
ENDBRANCH   1   3
BRANCH   1  14
ATOM     12  O   UNL     1      36.404 -18.538 -23.144  0.00  0.00    -0.226 OA
ATOM     13  N   UNL     1      34.945 -19.136 -21.433  0.00  0.00    -0.246 N 
ATOM     14  C   UNL     1      34.424 -21.260 -19.531  0.00  0.00    +0.008 C 
ATOM     15  C   UNL     1      35.812 -21.052 -20.157  0.00  0.00    +0.022 C 
ATOM     16  C   UNL     1      33.328 -20.715 -20.460  0.00  0.00    +0.022 C 
ATOM     17  C   UNL     1      36.026 -19.593 -20.558  0.00  0.00    +0.097 C 
ATOM     18  C   UNL     1      33.605 -19.261 -20.844  0.00  0.00    +0.097 C 
ATOM     19  C   UNL     1      35.260 -18.631 -22.700  0.00  0.00    +0.402 C 
BRANCH  19  20
ATOM     20  O   UNL     1      34.209 -18.231 -23.472  0.00  0.00    -0.466 OA
ATOM     21  H   UNL     1      33.514 -17.729 -23.093  0.00  0.00    +0.297 HD
ENDBRANCH  19  20
ENDBRANCH   1  14
TORSDOF 3
ENDMDL
