MODEL 1
REMARK VINA RESULT:      -9.4      0.000      0.000
REMARK  Name = 16122525
REMARK  9 active torsions:
REMARK  status: ('A' for Active; 'I' for Inactive)
REMARK    1  A    between atoms: N_2  and  C_16
REMARK    2  A    between atoms: C_3  and  C_5
REMARK    3  A    between atoms: C_8  and  O_11
REMARK    4  A    between atoms: O_11  and  C_15
REMARK    5  A    between atoms: C_16  and  C_17
REMARK    6  A    between atoms: C_17  and  O_18
REMARK    7  A    between atoms: O_18  and  P_19
REMARK    8  A    between atoms: P_19  and  O_21
REMARK    9  A    between atoms: P_19  and  O_23
REMARK                            x       y       z     vdW  Elec       q    Type
REMARK                         _______ _______ _______ _____ _____    ______ ____
ROOT
ATOM      1  O   UNL     1      34.159 -23.535 -18.591  0.00  0.00    -0.270 OA
ATOM      2  N   UNL     1      32.344 -22.338 -17.785  0.00  0.00    -0.298 N 
ATOM      3  C   UNL     1      33.462 -22.505 -18.609  0.00  0.00    +0.246 C 
ATOM      4  H   UNL     1      31.838 -21.496 -17.851  0.00  0.00    +0.150 HD
ENDROOT
BRANCH   3   5
ATOM      5  C   UNL     1      33.805 -21.398 -19.488  0.00  0.00    +0.054 C 
ATOM      6  C   UNL     1      35.141 -21.136 -19.792  0.00  0.00    +0.008 C 
ATOM      7  C   UNL     1      32.798 -20.598 -20.028  0.00  0.00    +0.008 C 
ATOM      8  C   UNL     1      34.461 -19.275 -21.175  0.00  0.00    +0.147 C 
ATOM      9  C   UNL     1      35.469 -20.075 -20.635  0.00  0.00    +0.037 C 
ATOM     10  C   UNL     1      33.125 -19.537 -20.871  0.00  0.00    +0.037 C 
BRANCH   8  11
ATOM     11  O   UNL     1      34.782 -18.239 -21.997  0.00  0.00    -0.404 OA
BRANCH  11  15
ATOM     12  F   UNL     1      36.710 -18.608 -23.171  0.00  0.00    -0.133 F 
ATOM     13  F   UNL     1      35.057 -17.544 -24.127  0.00  0.00    -0.133 F 
ATOM     14  F   UNL     1      34.876 -19.692 -23.761  0.00  0.00    -0.133 F 
ATOM     15  C   UNL     1      35.364 -18.536 -23.261  0.00  0.00    +0.575 C 
ENDBRANCH  11  15
ENDBRANCH   8  11
ENDBRANCH   3   5
BRANCH   2  16
ATOM     16  C   UNL     1      31.890 -23.335 -16.841  0.00  0.00    +0.122 C 
BRANCH  16  17
ATOM     17  C   UNL     1      30.615 -22.902 -16.142  0.00  0.00    +0.175 C 
BRANCH  17  18
ATOM     18  O   UNL     1      29.664 -22.483 -17.112  0.00  0.00    -0.272 OA
BRANCH  18  19
ATOM     19  P   UNL     1      28.117 -22.902 -16.902  0.00  0.00    +0.473 P 
ATOM     20  O   UNL     1      27.686 -24.135 -17.641  0.00  0.00    -0.227 OA
BRANCH  19  21
ATOM     21  O   UNL     1      27.299 -21.556 -17.270  0.00  0.00    -0.303 OA
ATOM     22  H   UNL     1      27.892 -20.790 -17.204  0.00  0.00    +0.222 HD
ENDBRANCH  19  21
BRANCH  19  23
ATOM     23  O   UNL     1      27.985 -22.988 -15.293  0.00  0.00    -0.303 OA
ATOM     24  H   UNL     1      28.601 -23.657 -14.954  0.00  0.00    +0.222 HD
ENDBRANCH  19  23
ENDBRANCH  18  19
ENDBRANCH  17  18
ENDBRANCH  16  17
ENDBRANCH   2  16
TORSDOF 9
ENDMDL
MODEL 2
REMARK VINA RESULT:      -9.4      0.155      1.365
REMARK  Name = 16122525
REMARK  9 active torsions:
REMARK  status: ('A' for Active; 'I' for Inactive)
REMARK    1  A    between atoms: N_2  and  C_16
REMARK    2  A    between atoms: C_3  and  C_5
REMARK    3  A    between atoms: C_8  and  O_11
REMARK    4  A    between atoms: O_11  and  C_15
REMARK    5  A    between atoms: C_16  and  C_17
REMARK    6  A    between atoms: C_17  and  O_18
REMARK    7  A    between atoms: O_18  and  P_19
REMARK    8  A    between atoms: P_19  and  O_21
REMARK    9  A    between atoms: P_19  and  O_23
REMARK                            x       y       z     vdW  Elec       q    Type
REMARK                         _______ _______ _______ _____ _____    ______ ____
ROOT
ATOM      1  O   UNL     1      34.039 -23.591 -18.869  0.00  0.00    -0.270 OA
ATOM      2  N   UNL     1      32.356 -22.335 -17.887  0.00  0.00    -0.298 N 
ATOM      3  C   UNL     1      33.418 -22.518 -18.780  0.00  0.00    +0.246 C 
ATOM      4  H   UNL     1      31.908 -21.459 -17.869  0.00  0.00    +0.150 HD
ENDROOT
BRANCH   3   5
ATOM      5  C   UNL     1      33.796 -21.376 -19.598  0.00  0.00    +0.054 C 
ATOM      6  C   UNL     1      32.817 -20.508 -20.082  0.00  0.00    +0.008 C 
ATOM      7  C   UNL     1      35.139 -21.149 -19.899  0.00  0.00    +0.008 C 
ATOM      8  C   UNL     1      34.524 -19.188 -21.167  0.00  0.00    +0.147 C 
ATOM      9  C   UNL     1      33.181 -19.415 -20.866  0.00  0.00    +0.037 C 
ATOM     10  C   UNL     1      35.504 -20.055 -20.684  0.00  0.00    +0.037 C 
BRANCH   8  11
ATOM     11  O   UNL     1      34.878 -18.121 -21.934  0.00  0.00    -0.404 OA
BRANCH  11  15
ATOM     12  F   UNL     1      34.674 -19.440 -23.791  0.00  0.00    -0.133 F 
ATOM     13  F   UNL     1      36.628 -18.610 -23.274  0.00  0.00    -0.133 F 
ATOM     14  F   UNL     1      35.076 -17.282 -24.053  0.00  0.00    -0.133 F 
ATOM     15  C   UNL     1      35.299 -18.361 -23.272  0.00  0.00    +0.575 C 
ENDBRANCH  11  15
ENDBRANCH   8  11
ENDBRANCH   3   5
BRANCH   2  16
ATOM     16  C   UNL     1      31.879 -23.365 -16.992  0.00  0.00    +0.122 C 
BRANCH  16  17
ATOM     17  C   UNL     1      30.652 -22.910 -16.222  0.00  0.00    +0.175 C 
BRANCH  17  18
ATOM     18  O   UNL     1      29.665 -22.450 -17.137  0.00  0.00    -0.272 OA
BRANCH  18  19
ATOM     19  P   UNL     1      28.129 -22.891 -16.894  0.00  0.00    +0.473 P 
ATOM     20  O   UNL     1      27.711 -24.152 -17.591  0.00  0.00    -0.227 OA
BRANCH  19  21
ATOM     21  O   UNL     1      27.281 -21.571 -17.287  0.00  0.00    -0.303 OA
ATOM     22  H   UNL     1      27.708 -21.125 -18.037  0.00  0.00    +0.222 HD
ENDBRANCH  19  21
BRANCH  19  23
ATOM     23  O   UNL     1      28.020 -22.935 -15.281  0.00  0.00    -0.303 OA
ATOM     24  H   UNL     1      28.769 -23.434 -14.920  0.00  0.00    +0.222 HD
ENDBRANCH  19  23
ENDBRANCH  18  19
ENDBRANCH  17  18
ENDBRANCH  16  17
ENDBRANCH   2  16
TORSDOF 9
ENDMDL
MODEL 3
REMARK VINA RESULT:      -9.0      3.659      5.112
REMARK  Name = 16122525
REMARK  9 active torsions:
REMARK  status: ('A' for Active; 'I' for Inactive)
REMARK    1  A    between atoms: N_2  and  C_16
REMARK    2  A    between atoms: C_3  and  C_5
REMARK    3  A    between atoms: C_8  and  O_11
REMARK    4  A    between atoms: O_11  and  C_15
REMARK    5  A    between atoms: C_16  and  C_17
REMARK    6  A    between atoms: C_17  and  O_18
REMARK    7  A    between atoms: O_18  and  P_19
REMARK    8  A    between atoms: P_19  and  O_21
REMARK    9  A    between atoms: P_19  and  O_23
REMARK                            x       y       z     vdW  Elec       q    Type
REMARK                         _______ _______ _______ _____ _____    ______ ____
ROOT
ATOM      1  O   UNL     1      33.834 -23.920 -19.125  0.00  0.00    -0.270 OA
ATOM      2  N   UNL     1      34.279 -22.653 -17.235  0.00  0.00    -0.298 N 
ATOM      3  C   UNL     1      34.102 -22.819 -18.612  0.00  0.00    +0.246 C 
ATOM      4  H   UNL     1      34.489 -21.752 -16.897  0.00  0.00    +0.150 HD
ENDROOT
BRANCH   3   5
ATOM      5  C   UNL     1      34.270 -21.640 -19.447  0.00  0.00    +0.054 C 
ATOM      6  C   UNL     1      33.152 -20.947 -19.911  0.00  0.00    +0.008 C 
ATOM      7  C   UNL     1      35.550 -21.200 -19.783  0.00  0.00    +0.008 C 
ATOM      8  C   UNL     1      34.595 -19.378 -21.047  0.00  0.00    +0.147 C 
ATOM      9  C   UNL     1      33.314 -19.817 -20.711  0.00  0.00    +0.037 C 
ATOM     10  C   UNL     1      35.713 -20.069 -20.582  0.00  0.00    +0.037 C 
BRANCH   8  11
ATOM     11  O   UNL     1      34.752 -18.275 -21.829  0.00  0.00    -0.404 OA
BRANCH  11  15
ATOM     12  F   UNL     1      34.832 -19.620 -23.677  0.00  0.00    -0.133 F 
ATOM     13  F   UNL     1      36.604 -18.475 -23.105  0.00  0.00    -0.133 F 
ATOM     14  F   UNL     1      34.881 -17.427 -23.949  0.00  0.00    -0.133 F 
ATOM     15  C   UNL     1      35.252 -18.450 -23.149  0.00  0.00    +0.575 C 
ENDBRANCH  11  15
ENDBRANCH   8  11
ENDBRANCH   3   5
BRANCH   2  16
ATOM     16  C   UNL     1      34.169 -23.732 -16.279  0.00  0.00    +0.122 C 
BRANCH  16  17
ATOM     17  C   UNL     1      35.492 -23.997 -15.583  0.00  0.00    +0.175 C 
BRANCH  17  18
ATOM     18  O   UNL     1      35.475 -25.302 -15.018  0.00  0.00    -0.272 OA
BRANCH  18  19
ATOM     19  P   UNL     1      36.866 -26.119 -14.932  0.00  0.00    +0.473 P 
ATOM     20  O   UNL     1      37.145 -26.762 -13.604  0.00  0.00    -0.227 OA
BRANCH  19  21
ATOM     21  O   UNL     1      37.973 -25.050 -15.428  0.00  0.00    -0.303 OA
ATOM     22  H   UNL     1      38.366 -24.611 -14.657  0.00  0.00    +0.222 HD
ENDBRANCH  19  21
BRANCH  19  23
ATOM     23  O   UNL     1      36.756 -27.145 -16.177  0.00  0.00    -0.303 OA
ATOM     24  H   UNL     1      37.364 -26.867 -16.880  0.00  0.00    +0.222 HD
ENDBRANCH  19  23
ENDBRANCH  18  19
ENDBRANCH  17  18
ENDBRANCH  16  17
ENDBRANCH   2  16
TORSDOF 9
ENDMDL
MODEL 4
REMARK VINA RESULT:      -8.9      1.997      2.548
REMARK  Name = 16122525
REMARK  9 active torsions:
REMARK  status: ('A' for Active; 'I' for Inactive)
REMARK    1  A    between atoms: N_2  and  C_16
REMARK    2  A    between atoms: C_3  and  C_5
REMARK    3  A    between atoms: C_8  and  O_11
REMARK    4  A    between atoms: O_11  and  C_15
REMARK    5  A    between atoms: C_16  and  C_17
REMARK    6  A    between atoms: C_17  and  O_18
REMARK    7  A    between atoms: O_18  and  P_19
REMARK    8  A    between atoms: P_19  and  O_21
REMARK    9  A    between atoms: P_19  and  O_23
REMARK                            x       y       z     vdW  Elec       q    Type
REMARK                         _______ _______ _______ _____ _____    ______ ____
ROOT
ATOM      1  O   UNL     1      34.233 -23.536 -18.683  0.00  0.00    -0.270 OA
ATOM      2  N   UNL     1      32.397 -22.418 -17.815  0.00  0.00    -0.298 N 
ATOM      3  C   UNL     1      33.503 -22.530 -18.664  0.00  0.00    +0.246 C 
ATOM      4  H   UNL     1      31.862 -21.593 -17.853  0.00  0.00    +0.150 HD
ENDROOT
BRANCH   3   5
ATOM      5  C   UNL     1      33.792 -21.394 -19.525  0.00  0.00    +0.054 C 
ATOM      6  C   UNL     1      32.750 -20.617 -20.030  0.00  0.00    +0.008 C 
ATOM      7  C   UNL     1      35.113 -21.080 -19.845  0.00  0.00    +0.008 C 
ATOM      8  C   UNL     1      34.349 -19.215 -21.175  0.00  0.00    +0.147 C 
ATOM      9  C   UNL     1      33.028 -19.528 -20.855  0.00  0.00    +0.037 C 
ATOM     10  C   UNL     1      35.392 -19.991 -20.670  0.00  0.00    +0.037 C 
BRANCH   8  11
ATOM     11  O   UNL     1      34.620 -18.152 -21.982  0.00  0.00    -0.404 OA
BRANCH  11  15
ATOM     12  F   UNL     1      36.446 -18.470 -23.321  0.00  0.00    -0.133 F 
ATOM     13  F   UNL     1      34.712 -17.396 -24.107  0.00  0.00    -0.133 F 
ATOM     14  F   UNL     1      34.577 -19.555 -23.789  0.00  0.00    -0.133 F 
ATOM     15  C   UNL     1      35.097 -18.409 -23.298  0.00  0.00    +0.575 C 
ENDBRANCH  11  15
ENDBRANCH   8  11
ENDBRANCH   3   5
BRANCH   2  16
ATOM     16  C   UNL     1      31.995 -23.450 -16.885  0.00  0.00    +0.122 C 
BRANCH  16  17
ATOM     17  C   UNL     1      30.942 -22.947 -15.915  0.00  0.00    +0.175 C 
BRANCH  17  18
ATOM     18  O   UNL     1      31.293 -23.338 -14.593  0.00  0.00    -0.272 OA
BRANCH  18  19
ATOM     19  P   UNL     1      30.940 -24.842 -14.118  0.00  0.00    +0.473 P 
ATOM     20  O   UNL     1      30.036 -25.605 -15.042  0.00  0.00    -0.227 OA
BRANCH  19  21
ATOM     21  O   UNL     1      30.387 -24.651 -12.611  0.00  0.00    -0.303 OA
ATOM     22  H   UNL     1      30.138 -23.723 -12.474  0.00  0.00    +0.222 HD
ENDBRANCH  19  21
BRANCH  19  23
ATOM     23  O   UNL     1      32.401 -25.499 -13.897  0.00  0.00    -0.303 OA
ATOM     24  H   UNL     1      32.955 -25.324 -14.674  0.00  0.00    +0.222 HD
ENDBRANCH  19  23
ENDBRANCH  18  19
ENDBRANCH  17  18
ENDBRANCH  16  17
ENDBRANCH   2  16
TORSDOF 9
ENDMDL
MODEL 5
REMARK VINA RESULT:      -8.9      3.636      4.887
REMARK  Name = 16122525
REMARK  9 active torsions:
REMARK  status: ('A' for Active; 'I' for Inactive)
REMARK    1  A    between atoms: N_2  and  C_16
REMARK    2  A    between atoms: C_3  and  C_5
REMARK    3  A    between atoms: C_8  and  O_11
REMARK    4  A    between atoms: O_11  and  C_15
REMARK    5  A    between atoms: C_16  and  C_17
REMARK    6  A    between atoms: C_17  and  O_18
REMARK    7  A    between atoms: O_18  and  P_19
REMARK    8  A    between atoms: P_19  and  O_21
REMARK    9  A    between atoms: P_19  and  O_23
REMARK                            x       y       z     vdW  Elec       q    Type
REMARK                         _______ _______ _______ _____ _____    ______ ____
ROOT
ATOM      1  O   UNL     1      33.853 -23.964 -19.267  0.00  0.00    -0.270 OA
ATOM      2  N   UNL     1      34.048 -22.719 -17.321  0.00  0.00    -0.298 N 
ATOM      3  C   UNL     1      34.013 -22.863 -18.712  0.00  0.00    +0.246 C 
ATOM      4  H   UNL     1      34.178 -21.817 -16.949  0.00  0.00    +0.150 HD
ENDROOT
BRANCH   3   5
ATOM      5  C   UNL     1      34.200 -21.658 -19.505  0.00  0.00    +0.054 C 
ATOM      6  C   UNL     1      35.486 -21.233 -19.837  0.00  0.00    +0.008 C 
ATOM      7  C   UNL     1      33.092 -20.927 -19.935  0.00  0.00    +0.008 C 
ATOM      8  C   UNL     1      34.557 -19.347 -21.027  0.00  0.00    +0.147 C 
ATOM      9  C   UNL     1      35.665 -20.078 -20.597  0.00  0.00    +0.037 C 
ATOM     10  C   UNL     1      33.270 -19.772 -20.696  0.00  0.00    +0.037 C 
BRANCH   8  11
ATOM     11  O   UNL     1      34.732 -18.219 -21.768  0.00  0.00    -0.404 OA
BRANCH  11  15
ATOM     12  F   UNL     1      34.655 -19.507 -23.656  0.00  0.00    -0.133 F 
ATOM     13  F   UNL     1      36.482 -18.406 -23.182  0.00  0.00    -0.133 F 
ATOM     14  F   UNL     1      34.720 -17.308 -23.866  0.00  0.00    -0.133 F 
ATOM     15  C   UNL     1      35.131 -18.360 -23.127  0.00  0.00    +0.575 C 
ENDBRANCH  11  15
ENDBRANCH   8  11
ENDBRANCH   3   5
BRANCH   2  16
ATOM     16  C   UNL     1      33.902 -23.823 -16.399  0.00  0.00    +0.122 C 
BRANCH  16  17
ATOM     17  C   UNL     1      34.901 -23.736 -15.261  0.00  0.00    +0.175 C 
BRANCH  17  18
ATOM     18  O   UNL     1      36.207 -24.005 -15.756  0.00  0.00    -0.272 OA
BRANCH  18  19
ATOM     19  P   UNL     1      37.336 -22.859 -15.606  0.00  0.00    +0.473 P 
ATOM     20  O   UNL     1      37.058 -21.590 -16.358  0.00  0.00    -0.227 OA
BRANCH  19  21
ATOM     21  O   UNL     1      38.708 -23.615 -16.009  0.00  0.00    -0.303 OA
ATOM     22  H   UNL     1      38.538 -24.566 -16.101  0.00  0.00    +0.222 HD
ENDBRANCH  19  21
BRANCH  19  23
ATOM     23  O   UNL     1      37.463 -22.689 -14.003  0.00  0.00    -0.303 OA
ATOM     24  H   UNL     1      38.400 -22.652 -13.755  0.00  0.00    +0.222 HD
ENDBRANCH  19  23
ENDBRANCH  18  19
ENDBRANCH  17  18
ENDBRANCH  16  17
ENDBRANCH   2  16
TORSDOF 9
ENDMDL
MODEL 6
REMARK VINA RESULT:      -8.8      6.330      8.511
REMARK  Name = 16122525
REMARK  9 active torsions:
REMARK  status: ('A' for Active; 'I' for Inactive)
REMARK    1  A    between atoms: N_2  and  C_16
REMARK    2  A    between atoms: C_3  and  C_5
REMARK    3  A    between atoms: C_8  and  O_11
REMARK    4  A    between atoms: O_11  and  C_15
REMARK    5  A    between atoms: C_16  and  C_17
REMARK    6  A    between atoms: C_17  and  O_18
REMARK    7  A    between atoms: O_18  and  P_19
REMARK    8  A    between atoms: P_19  and  O_21
REMARK    9  A    between atoms: P_19  and  O_23
REMARK                            x       y       z     vdW  Elec       q    Type
REMARK                         _______ _______ _______ _____ _____    ______ ____
ROOT
ATOM      1  O   UNL     1      33.616 -24.597 -12.786  0.00  0.00    -0.270 OA
ATOM      2  N   UNL     1      34.994 -23.208 -14.029  0.00  0.00    -0.298 N 
ATOM      3  C   UNL     1      33.760 -23.790 -13.721  0.00  0.00    +0.246 C 
ATOM      4  H   UNL     1      35.036 -22.576 -14.783  0.00  0.00    +0.150 HD
ENDROOT
BRANCH   3   5
ATOM      5  C   UNL     1      32.631 -23.432 -14.566  0.00  0.00    +0.054 C 
ATOM      6  C   UNL     1      31.406 -23.098 -13.990  0.00  0.00    +0.008 C 
ATOM      7  C   UNL     1      32.775 -23.422 -15.954  0.00  0.00    +0.008 C 
ATOM      8  C   UNL     1      30.468 -22.745 -16.188  0.00  0.00    +0.147 C 
ATOM      9  C   UNL     1      30.325 -22.755 -14.801  0.00  0.00    +0.037 C 
ATOM     10  C   UNL     1      31.694 -23.079 -16.765  0.00  0.00    +0.037 C 
BRANCH   8  11
ATOM     11  O   UNL     1      29.412 -22.411 -16.979  0.00  0.00    -0.404 OA
BRANCH  11  15
ATOM     12  F   UNL     1      27.476 -23.025 -18.029  0.00  0.00    -0.133 F 
ATOM     13  F   UNL     1      27.537 -22.954 -15.845  0.00  0.00    -0.133 F 
ATOM     14  F   UNL     1      28.603 -24.549 -16.893  0.00  0.00    -0.133 F 
ATOM     15  C   UNL     1      28.259 -23.244 -16.951  0.00  0.00    +0.575 C 
ENDBRANCH  11  15
ENDBRANCH   8  11
ENDBRANCH   3   5
BRANCH   2  16
ATOM     16  C   UNL     1      36.212 -23.481 -13.299  0.00  0.00    +0.122 C 
BRANCH  16  17
ATOM     17  C   UNL     1      37.339 -23.893 -14.229  0.00  0.00    +0.175 C 
BRANCH  17  18
ATOM     18  O   UNL     1      36.876 -24.909 -15.110  0.00  0.00    -0.272 OA
BRANCH  18  19
ATOM     19  P   UNL     1      37.417 -26.417 -14.893  0.00  0.00    +0.473 P 
ATOM     20  O   UNL     1      38.906 -26.546 -14.760  0.00  0.00    -0.227 OA
BRANCH  19  21
ATOM     21  O   UNL     1      36.759 -27.243 -16.118  0.00  0.00    -0.303 OA
ATOM     22  H   UNL     1      36.103 -26.686 -16.567  0.00  0.00    +0.222 HD
ENDBRANCH  19  21
BRANCH  19  23
ATOM     23  O   UNL     1      36.571 -26.920 -13.609  0.00  0.00    -0.303 OA
ATOM     24  H   UNL     1      35.942 -26.229 -13.346  0.00  0.00    +0.222 HD
ENDBRANCH  19  23
ENDBRANCH  18  19
ENDBRANCH  17  18
ENDBRANCH  16  17
ENDBRANCH   2  16
TORSDOF 9
ENDMDL
MODEL 7
REMARK VINA RESULT:      -8.8      3.716      5.192
REMARK  Name = 16122525
REMARK  9 active torsions:
REMARK  status: ('A' for Active; 'I' for Inactive)
REMARK    1  A    between atoms: N_2  and  C_16
REMARK    2  A    between atoms: C_3  and  C_5
REMARK    3  A    between atoms: C_8  and  O_11
REMARK    4  A    between atoms: O_11  and  C_15
REMARK    5  A    between atoms: C_16  and  C_17
REMARK    6  A    between atoms: C_17  and  O_18
REMARK    7  A    between atoms: O_18  and  P_19
REMARK    8  A    between atoms: P_19  and  O_21
REMARK    9  A    between atoms: P_19  and  O_23
REMARK                            x       y       z     vdW  Elec       q    Type
REMARK                         _______ _______ _______ _____ _____    ______ ____
ROOT
ATOM      1  O   UNL     1      33.760 -23.903 -18.935  0.00  0.00    -0.270 OA
ATOM      2  N   UNL     1      34.576 -22.654 -17.161  0.00  0.00    -0.298 N 
ATOM      3  C   UNL     1      34.179 -22.819 -18.492  0.00  0.00    +0.246 C 
ATOM      4  H   UNL     1      34.897 -21.768 -16.877  0.00  0.00    +0.150 HD
ENDROOT
BRANCH   3   5
ATOM      5  C   UNL     1      34.298 -21.662 -19.365  0.00  0.00    +0.054 C 
ATOM      6  C   UNL     1      35.559 -21.203 -19.747  0.00  0.00    +0.008 C 
ATOM      7  C   UNL     1      33.152 -21.012 -19.822  0.00  0.00    +0.008 C 
ATOM      8  C   UNL     1      34.526 -19.444 -21.041  0.00  0.00    +0.147 C 
ATOM      9  C   UNL     1      35.672 -20.094 -20.584  0.00  0.00    +0.037 C 
ATOM     10  C   UNL     1      33.265 -19.903 -20.660  0.00  0.00    +0.037 C 
BRANCH   8  11
ATOM     11  O   UNL     1      34.637 -18.361 -21.857  0.00  0.00    -0.404 OA
BRANCH  11  15
ATOM     12  F   UNL     1      34.767 -19.815 -23.617  0.00  0.00    -0.133 F 
ATOM     13  F   UNL     1      36.412 -18.425 -23.251  0.00  0.00    -0.133 F 
ATOM     14  F   UNL     1      34.519 -17.658 -24.031  0.00  0.00    -0.133 F 
ATOM     15  C   UNL     1      35.069 -18.568 -23.198  0.00  0.00    +0.575 C 
ENDBRANCH  11  15
ENDBRANCH   8  11
ENDBRANCH   3   5
BRANCH   2  16
ATOM     16  C   UNL     1      34.540 -23.714 -16.178  0.00  0.00    +0.122 C 
BRANCH  16  17
ATOM     17  C   UNL     1      35.845 -23.806 -15.408  0.00  0.00    +0.175 C 
BRANCH  17  18
ATOM     18  O   UNL     1      36.391 -25.110 -15.560  0.00  0.00    -0.272 OA
BRANCH  18  19
ATOM     19  P   UNL     1      37.394 -25.660 -14.418  0.00  0.00    +0.473 P 
ATOM     20  O   UNL     1      38.164 -26.894 -14.788  0.00  0.00    -0.227 OA
BRANCH  19  21
ATOM     21  O   UNL     1      36.451 -25.800 -13.111  0.00  0.00    -0.303 OA
ATOM     22  H   UNL     1      35.520 -25.737 -13.377  0.00  0.00    +0.222 HD
ENDBRANCH  19  21
BRANCH  19  23
ATOM     23  O   UNL     1      38.301 -24.363 -14.084  0.00  0.00    -0.303 OA
ATOM     24  H   UNL     1      38.939 -24.222 -14.801  0.00  0.00    +0.222 HD
ENDBRANCH  19  23
ENDBRANCH  18  19
ENDBRANCH  17  18
ENDBRANCH  16  17
ENDBRANCH   2  16
TORSDOF 9
ENDMDL
MODEL 8
REMARK VINA RESULT:      -8.7      6.816      9.664
REMARK  Name = 16122525
REMARK  9 active torsions:
REMARK  status: ('A' for Active; 'I' for Inactive)
REMARK    1  A    between atoms: N_2  and  C_16
REMARK    2  A    between atoms: C_3  and  C_5
REMARK    3  A    between atoms: C_8  and  O_11
REMARK    4  A    between atoms: O_11  and  C_15
REMARK    5  A    between atoms: C_16  and  C_17
REMARK    6  A    between atoms: C_17  and  O_18
REMARK    7  A    between atoms: O_18  and  P_19
REMARK    8  A    between atoms: P_19  and  O_21
REMARK    9  A    between atoms: P_19  and  O_23
REMARK                            x       y       z     vdW  Elec       q    Type
REMARK                         _______ _______ _______ _____ _____    ______ ____
ROOT
ATOM      1  O   UNL     1      34.768 -23.815 -12.595  0.00  0.00    -0.270 OA
ATOM      2  N   UNL     1      35.416 -25.274 -14.277  0.00  0.00    -0.298 N 
ATOM      3  C   UNL     1      34.497 -24.433 -13.640  0.00  0.00    +0.246 C 
ATOM      4  H   UNL     1      35.134 -25.732 -15.101  0.00  0.00    +0.150 HD
ENDROOT
BRANCH   3   5
ATOM      5  C   UNL     1      33.176 -24.322 -14.240  0.00  0.00    +0.054 C 
ATOM      6  C   UNL     1      32.092 -24.988 -13.670  0.00  0.00    +0.008 C 
ATOM      7  C   UNL     1      32.995 -23.549 -15.387  0.00  0.00    +0.008 C 
ATOM      8  C   UNL     1      30.645 -24.108 -15.393  0.00  0.00    +0.147 C 
ATOM      9  C   UNL     1      30.827 -24.881 -14.246  0.00  0.00    +0.037 C 
ATOM     10  C   UNL     1      31.729 -23.441 -15.963  0.00  0.00    +0.037 C 
BRANCH   8  11
ATOM     11  O   UNL     1      29.410 -24.005 -15.955  0.00  0.00    -0.404 OA
BRANCH  11  15
ATOM     12  F   UNL     1      29.161 -22.060 -14.778  0.00  0.00    -0.133 F 
ATOM     13  F   UNL     1      27.402 -23.019 -15.650  0.00  0.00    -0.133 F 
ATOM     14  F   UNL     1      28.843 -22.032 -16.965  0.00  0.00    -0.133 F 
ATOM     15  C   UNL     1      28.717 -22.767 -15.839  0.00  0.00    +0.575 C 
ENDBRANCH  11  15
ENDBRANCH   8  11
ENDBRANCH   3   5
BRANCH   2  16
ATOM     16  C   UNL     1      36.757 -25.507 -13.790  0.00  0.00    +0.122 C 
BRANCH  16  17
ATOM     17  C   UNL     1      37.682 -25.964 -14.903  0.00  0.00    +0.175 C 
BRANCH  17  18
ATOM     18  O   UNL     1      38.826 -26.592 -14.338  0.00  0.00    -0.272 OA
BRANCH  18  19
ATOM     19  P   UNL     1      40.273 -25.917 -14.586  0.00  0.00    +0.473 P 
ATOM     20  O   UNL     1      40.481 -24.592 -13.912  0.00  0.00    -0.227 OA
BRANCH  19  21
ATOM     21  O   UNL     1      40.421 -25.904 -16.197  0.00  0.00    -0.303 OA
ATOM     22  H   UNL     1      39.562 -25.697 -16.598  0.00  0.00    +0.222 HD
ENDBRANCH  19  21
BRANCH  19  23
ATOM     23  O   UNL     1      41.296 -27.083 -14.129  0.00  0.00    -0.303 OA
ATOM     24  H   UNL     1      42.035 -26.691 -13.639  0.00  0.00    +0.222 HD
ENDBRANCH  19  23
ENDBRANCH  18  19
ENDBRANCH  17  18
ENDBRANCH  16  17
ENDBRANCH   2  16
TORSDOF 9
ENDMDL
MODEL 9
REMARK VINA RESULT:      -8.7      2.152      2.701
REMARK  Name = 16122525
REMARK  9 active torsions:
REMARK  status: ('A' for Active; 'I' for Inactive)
REMARK    1  A    between atoms: N_2  and  C_16
REMARK    2  A    between atoms: C_3  and  C_5
REMARK    3  A    between atoms: C_8  and  O_11
REMARK    4  A    between atoms: O_11  and  C_15
REMARK    5  A    between atoms: C_16  and  C_17
REMARK    6  A    between atoms: C_17  and  O_18
REMARK    7  A    between atoms: O_18  and  P_19
REMARK    8  A    between atoms: P_19  and  O_21
REMARK    9  A    between atoms: P_19  and  O_23
REMARK                            x       y       z     vdW  Elec       q    Type
REMARK                         _______ _______ _______ _____ _____    ______ ____
ROOT
ATOM      1  O   UNL     1      34.967 -22.881 -18.165  0.00  0.00    -0.270 OA
ATOM      2  N   UNL     1      32.676 -22.535 -18.096  0.00  0.00    -0.298 N 
ATOM      3  C   UNL     1      33.964 -22.270 -18.573  0.00  0.00    +0.246 C 
ATOM      4  H   UNL     1      31.927 -22.013 -18.464  0.00  0.00    +0.150 HD
ENDROOT
BRANCH   3   5
ATOM      5  C   UNL     1      34.097 -21.215 -19.566  0.00  0.00    +0.054 C 
ATOM      6  C   UNL     1      35.362 -20.801 -19.980  0.00  0.00    +0.008 C 
ATOM      7  C   UNL     1      32.957 -20.616 -20.104  0.00  0.00    +0.008 C 
ATOM      8  C   UNL     1      34.349 -19.191 -21.469  0.00  0.00    +0.147 C 
ATOM      9  C   UNL     1      35.489 -19.789 -20.931  0.00  0.00    +0.037 C 
ATOM     10  C   UNL     1      33.083 -19.605 -21.055  0.00  0.00    +0.037 C 
BRANCH   8  11
ATOM     11  O   UNL     1      34.473 -18.203 -22.397  0.00  0.00    -0.404 OA
BRANCH  11  15
ATOM     12  F   UNL     1      34.733 -17.651 -24.601  0.00  0.00    -0.133 F 
ATOM     13  F   UNL     1      34.737 -19.757 -24.013  0.00  0.00    -0.133 F 
ATOM     14  F   UNL     1      36.453 -18.501 -23.503  0.00  0.00    -0.133 F 
ATOM     15  C   UNL     1      35.108 -18.513 -23.632  0.00  0.00    +0.575 C 
ENDBRANCH  11  15
ENDBRANCH   8  11
ENDBRANCH   3   5
BRANCH   2  16
ATOM     16  C   UNL     1      32.385 -23.535 -17.094  0.00  0.00    +0.122 C 
BRANCH  16  17
ATOM     17  C   UNL     1      31.317 -23.059 -16.125  0.00  0.00    +0.175 C 
BRANCH  17  18
ATOM     18  O   UNL     1      30.913 -24.143 -15.298  0.00  0.00    -0.272 OA
BRANCH  18  19
ATOM     19  P   UNL     1      31.509 -24.228 -13.798  0.00  0.00    +0.473 P 
ATOM     20  O   UNL     1      30.480 -24.263 -12.706  0.00  0.00    -0.227 OA
BRANCH  19  21
ATOM     21  O   UNL     1      32.551 -22.994 -13.727  0.00  0.00    -0.303 OA
ATOM     22  H   UNL     1      32.224 -22.332 -13.097  0.00  0.00    +0.222 HD
ENDBRANCH  19  21
BRANCH  19  23
ATOM     23  O   UNL     1      32.473 -25.525 -13.869  0.00  0.00    -0.303 OA
ATOM     24  H   UNL     1      33.151 -25.461 -13.179  0.00  0.00    +0.222 HD
ENDBRANCH  19  23
ENDBRANCH  18  19
ENDBRANCH  17  18
ENDBRANCH  16  17
ENDBRANCH   2  16
TORSDOF 9
ENDMDL
