MODEL 1
REMARK VINA RESULT:      -6.4      0.000      0.000
REMARK  Name = 3052
REMARK  2 active torsions:
REMARK  status: ('A' for Active; 'I' for Inactive)
REMARK    1  A    between atoms: N_4  and  C_12
REMARK    2  A    between atoms: N_4  and  C_14
REMARK                            x       y       z     vdW  Elec       q    Type
REMARK                         _______ _______ _______ _____ _____    ______ ____
ROOT
ATOM      1  O   UNL     1      34.196 -19.051 -23.833  0.00  0.00    -0.252 OA
ATOM      2  N   UNL     1      34.896 -17.040 -22.957  0.00  0.00    -0.268 N 
ATOM      3  N   UNL     1      33.768 -14.427 -23.274  0.00  0.00    +0.388 N 
ATOM      4  N   UNL     1      35.024 -19.064 -21.684  0.00  0.00    -0.264 N 
ATOM      5  C   UNL     1      34.846 -16.121 -21.815  0.00  0.00    +0.072 C 
ATOM      6  C   UNL     1      34.907 -16.373 -24.258  0.00  0.00    +0.072 C 
ATOM      7  C   UNL     1      33.696 -15.120 -21.978  0.00  0.00    -0.055 C 
ATOM      8  C   UNL     1      33.740 -15.396 -24.381  0.00  0.00    -0.055 C 
ATOM      9  C   UNL     1      34.675 -18.421 -22.881  0.00  0.00    +0.307 C 
ATOM     10  C   UNL     1      32.674 -13.466 -23.405  0.00  0.00    -0.101 C 
ATOM     11  H   UNL     1      34.651 -13.918 -23.316  0.00  0.00    -0.080 HD
ENDROOT
BRANCH   4  12
ATOM     12  C   UNL     1      34.282 -20.248 -21.272  0.00  0.00    +0.095 C 
ATOM     13  C   UNL     1      32.947 -19.881 -20.658  0.00  0.00    +0.023 C 
ENDBRANCH   4  12
BRANCH   4  14
ATOM     14  C   UNL     1      36.259 -18.808 -20.946  0.00  0.00    +0.095 C 
ATOM     15  C   UNL     1      36.735 -20.047 -20.214  0.00  0.00    +0.023 C 
ENDBRANCH   4  14
TORSDOF 2
ENDMDL
MODEL 2
REMARK VINA RESULT:      -6.1      1.740      2.776
REMARK  Name = 3052
REMARK  2 active torsions:
REMARK  status: ('A' for Active; 'I' for Inactive)
REMARK    1  A    between atoms: N_4  and  C_12
REMARK    2  A    between atoms: N_4  and  C_14
REMARK                            x       y       z     vdW  Elec       q    Type
REMARK                         _______ _______ _______ _____ _____    ______ ____
ROOT
ATOM      1  O   UNL     1      35.098 -16.495 -20.243  0.00  0.00    -0.252 OA
ATOM      2  N   UNL     1      33.858 -16.109 -22.144  0.00  0.00    -0.268 N 
ATOM      3  N   UNL     1      33.320 -13.642 -23.493  0.00  0.00    +0.388 N 
ATOM      4  N   UNL     1      35.234 -18.057 -21.930  0.00  0.00    -0.264 N 
ATOM      5  C   UNL     1      33.851 -16.063 -23.610  0.00  0.00    +0.072 C 
ATOM      6  C   UNL     1      33.043 -15.073 -21.512  0.00  0.00    +0.072 C 
ATOM      7  C   UNL     1      34.194 -14.653 -24.107  0.00  0.00    -0.055 C 
ATOM      8  C   UNL     1      33.426 -13.687 -22.027  0.00  0.00    -0.055 C 
ATOM      9  C   UNL     1      34.752 -16.863 -21.373  0.00  0.00    +0.307 C 
ATOM     10  C   UNL     1      33.650 -12.307 -23.991  0.00  0.00    -0.101 C 
ATOM     11  H   UNL     1      32.356 -13.852 -23.752  0.00  0.00    -0.080 HD
ENDROOT
BRANCH   4  12
ATOM     12  C   UNL     1      36.559 -18.530 -21.555  0.00  0.00    +0.095 C 
ATOM     13  C   UNL     1      36.481 -19.687 -20.581  0.00  0.00    +0.023 C 
ENDBRANCH   4  12
BRANCH   4  14
ATOM     14  C   UNL     1      34.404 -19.020 -22.650  0.00  0.00    +0.095 C 
ATOM     15  C   UNL     1      34.973 -19.330 -24.019  0.00  0.00    +0.023 C 
ENDBRANCH   4  14
TORSDOF 2
ENDMDL
MODEL 3
REMARK VINA RESULT:      -6.0      7.197      9.736
REMARK  Name = 3052
REMARK  2 active torsions:
REMARK  status: ('A' for Active; 'I' for Inactive)
REMARK    1  A    between atoms: N_4  and  C_12
REMARK    2  A    between atoms: N_4  and  C_14
REMARK                            x       y       z     vdW  Elec       q    Type
REMARK                         _______ _______ _______ _____ _____    ______ ____
ROOT
ATOM      1  O   UNL     1      38.753 -23.859 -15.365  0.00  0.00    -0.252 OA
ATOM      2  N   UNL     1      36.731 -22.768 -15.512  0.00  0.00    -0.268 N 
ATOM      3  N   UNL     1      35.257 -21.975 -17.835  0.00  0.00    +0.388 N 
ATOM      4  N   UNL     1      37.138 -24.413 -13.819  0.00  0.00    -0.264 N 
ATOM      5  C   UNL     1      35.270 -22.900 -15.532  0.00  0.00    +0.072 C 
ATOM      6  C   UNL     1      37.248 -21.738 -16.410  0.00  0.00    +0.072 C 
ATOM      7  C   UNL     1      34.763 -23.058 -16.971  0.00  0.00    -0.055 C 
ATOM      8  C   UNL     1      36.728 -21.941 -17.832  0.00  0.00    -0.055 C 
ATOM      9  C   UNL     1      37.607 -23.691 -14.927  0.00  0.00    +0.307 C 
ATOM     10  C   UNL     1      34.750 -22.133 -19.197  0.00  0.00    -0.101 C 
ATOM     11  H   UNL     1      34.914 -21.088 -17.465  0.00  0.00    -0.080 HD
ENDROOT
BRANCH   4  12
ATOM     12  C   UNL     1      37.653 -25.753 -13.577  0.00  0.00    +0.095 C 
ATOM     13  C   UNL     1      37.087 -26.753 -14.564  0.00  0.00    +0.023 C 
ENDBRANCH   4  12
BRANCH   4  14
ATOM     14  C   UNL     1      36.374 -23.825 -12.721  0.00  0.00    +0.095 C 
ATOM     15  C   UNL     1      37.247 -22.958 -11.839  0.00  0.00    +0.023 C 
ENDBRANCH   4  14
TORSDOF 2
ENDMDL
MODEL 4
REMARK VINA RESULT:      -6.0      2.448      5.957
REMARK  Name = 3052
REMARK  2 active torsions:
REMARK  status: ('A' for Active; 'I' for Inactive)
REMARK    1  A    between atoms: N_4  and  C_12
REMARK    2  A    between atoms: N_4  and  C_14
REMARK                            x       y       z     vdW  Elec       q    Type
REMARK                         _______ _______ _______ _____ _____    ______ ____
ROOT
ATOM      1  O   UNL     1      36.667 -18.970 -20.216  0.00  0.00    -0.252 OA
ATOM      2  N   UNL     1      34.969 -20.470 -20.631  0.00  0.00    -0.268 N 
ATOM      3  N   UNL     1      33.812 -22.431 -18.895  0.00  0.00    +0.388 N 
ATOM      4  N   UNL     1      34.912 -18.247 -21.520  0.00  0.00    -0.264 N 
ATOM      5  C   UNL     1      33.520 -20.700 -20.650  0.00  0.00    +0.072 C 
ATOM      6  C   UNL     1      35.749 -21.618 -20.175  0.00  0.00    +0.072 C 
ATOM      7  C   UNL     1      33.043 -21.242 -19.298  0.00  0.00    -0.055 C 
ATOM      8  C   UNL     1      35.247 -22.117 -18.821  0.00  0.00    -0.055 C 
ATOM      9  C   UNL     1      35.579 -19.214 -20.755  0.00  0.00    +0.307 C 
ATOM     10  C   UNL     1      33.331 -22.943 -17.613  0.00  0.00    -0.101 C 
ATOM     11  H   UNL     1      33.676 -23.154 -19.602  0.00  0.00    -0.080 HD
ENDROOT
BRANCH   4  12
ATOM     12  C   UNL     1      35.084 -16.838 -21.189  0.00  0.00    +0.095 C 
ATOM     13  C   UNL     1      33.753 -16.117 -21.122  0.00  0.00    +0.023 C 
ENDBRANCH   4  12
BRANCH   4  14
ATOM     14  C   UNL     1      34.270 -18.516 -22.805  0.00  0.00    +0.095 C 
ATOM     15  C   UNL     1      35.219 -18.275 -23.961  0.00  0.00    +0.023 C 
ENDBRANCH   4  14
TORSDOF 2
ENDMDL
MODEL 5
REMARK VINA RESULT:      -5.8      9.800     11.823
REMARK  Name = 3052
REMARK  2 active torsions:
REMARK  status: ('A' for Active; 'I' for Inactive)
REMARK    1  A    between atoms: N_4  and  C_12
REMARK    2  A    between atoms: N_4  and  C_14
REMARK                            x       y       z     vdW  Elec       q    Type
REMARK                         _______ _______ _______ _____ _____    ______ ____
ROOT
ATOM      1  O   UNL     1      34.386 -24.336 -12.047  0.00  0.00    -0.252 OA
ATOM      2  N   UNL     1      35.933 -23.783 -13.660  0.00  0.00    -0.268 N 
ATOM      3  N   UNL     1      38.613 -24.728 -14.008  0.00  0.00    +0.388 N 
ATOM      4  N   UNL     1      33.608 -24.006 -14.190  0.00  0.00    -0.264 N 
ATOM      5  C   UNL     1      36.444 -24.056 -15.008  0.00  0.00    +0.072 C 
ATOM      6  C   UNL     1      36.972 -23.462 -12.684  0.00  0.00    +0.072 C 
ATOM      7  C   UNL     1      37.557 -25.109 -14.960  0.00  0.00    -0.055 C 
ATOM      8  C   UNL     1      38.053 -24.541 -12.661  0.00  0.00    -0.055 C 
ATOM      9  C   UNL     1      34.629 -24.060 -13.229  0.00  0.00    +0.307 C 
ATOM     10  C   UNL     1      39.674 -25.734 -13.988  0.00  0.00    -0.101 C 
ATOM     11  H   UNL     1      39.016 -23.842 -14.315  0.00  0.00    -0.080 HD
ENDROOT
BRANCH   4  12
ATOM     12  C   UNL     1      32.438 -24.858 -14.029  0.00  0.00    +0.095 C 
ATOM     13  C   UNL     1      31.215 -24.055 -13.639  0.00  0.00    +0.023 C 
ENDBRANCH   4  12
BRANCH   4  14
ATOM     14  C   UNL     1      33.488 -22.958 -15.201  0.00  0.00    +0.095 C 
ATOM     15  C   UNL     1      33.272 -23.542 -16.582  0.00  0.00    +0.023 C 
ENDBRANCH   4  14
TORSDOF 2
ENDMDL
MODEL 6
REMARK VINA RESULT:      -5.8      4.622      8.572
REMARK  Name = 3052
REMARK  2 active torsions:
REMARK  status: ('A' for Active; 'I' for Inactive)
REMARK    1  A    between atoms: N_4  and  C_12
REMARK    2  A    between atoms: N_4  and  C_14
REMARK                            x       y       z     vdW  Elec       q    Type
REMARK                         _______ _______ _______ _____ _____    ______ ____
ROOT
ATOM      1  O   UNL     1      34.638  -9.782 -23.688  0.00  0.00    -0.252 OA
ATOM      2  N   UNL     1      32.831 -11.187 -23.427  0.00  0.00    -0.268 N 
ATOM      3  N   UNL     1      32.754 -13.898 -22.512  0.00  0.00    +0.388 N 
ATOM      4  N   UNL     1      32.681  -8.854 -22.905  0.00  0.00    -0.264 N 
ATOM      5  C   UNL     1      31.747 -11.631 -22.545  0.00  0.00    +0.072 C 
ATOM      6  C   UNL     1      33.435 -12.259 -24.215  0.00  0.00    +0.072 C 
ATOM      7  C   UNL     1      32.203 -12.814 -21.684  0.00  0.00    -0.055 C 
ATOM      8  C   UNL     1      33.884 -13.410 -23.317  0.00  0.00    -0.055 C 
ATOM      9  C   UNL     1      33.454  -9.933 -23.358  0.00  0.00    +0.307 C 
ATOM     10  C   UNL     1      33.167 -15.024 -21.676  0.00  0.00    -0.101 C 
ATOM     11  H   UNL     1      32.023 -14.220 -23.147  0.00  0.00    -0.080 HD
ENDROOT
BRANCH   4  12
ATOM     12  C   UNL     1      33.335  -7.757 -22.206  0.00  0.00    +0.095 C 
ATOM     13  C   UNL     1      32.880  -7.667 -20.764  0.00  0.00    +0.023 C 
ENDBRANCH   4  12
BRANCH   4  14
ATOM     14  C   UNL     1      31.303  -8.601 -23.320  0.00  0.00    +0.095 C 
ATOM     15  C   UNL     1      31.192  -7.325 -24.130  0.00  0.00    +0.023 C 
ENDBRANCH   4  14
TORSDOF 2
ENDMDL
MODEL 7
REMARK VINA RESULT:      -5.8      9.652     10.973
REMARK  Name = 3052
REMARK  2 active torsions:
REMARK  status: ('A' for Active; 'I' for Inactive)
REMARK    1  A    between atoms: N_4  and  C_12
REMARK    2  A    between atoms: N_4  and  C_14
REMARK                            x       y       z     vdW  Elec       q    Type
REMARK                         _______ _______ _______ _____ _____    ______ ____
ROOT
ATOM      1  O   UNL     1      34.687 -24.023 -16.495  0.00  0.00    -0.252 OA
ATOM      2  N   UNL     1      33.197 -23.715 -14.766  0.00  0.00    -0.268 N 
ATOM      3  N   UNL     1      30.399 -24.311 -14.649  0.00  0.00    +0.388 N 
ATOM      4  N   UNL     1      35.450 -24.418 -14.358  0.00  0.00    -0.264 N 
ATOM      5  C   UNL     1      32.618 -24.271 -13.538  0.00  0.00    +0.072 C 
ATOM      6  C   UNL     1      32.242 -22.986 -15.598  0.00  0.00    +0.072 C 
ATOM      7  C   UNL     1      31.364 -25.092 -13.858  0.00  0.00    -0.055 C 
ATOM      8  C   UNL     1      31.015 -23.844 -15.900  0.00  0.00    -0.055 C 
ATOM      9  C   UNL     1      34.457 -24.052 -15.279  0.00  0.00    +0.307 C 
ATOM     10  C   UNL     1      29.203 -25.103 -14.929  0.00  0.00    -0.101 C 
ATOM     11  H   UNL     1      30.124 -23.495 -14.102  0.00  0.00    -0.080 HD
ENDROOT
BRANCH   4  12
ATOM     12  C   UNL     1      36.486 -25.357 -14.769  0.00  0.00    +0.095 C 
ATOM     13  C   UNL     1      37.832 -24.676 -14.899  0.00  0.00    +0.023 C 
ENDBRANCH   4  12
BRANCH   4  14
ATOM     14  C   UNL     1      35.697 -23.722 -13.098  0.00  0.00    +0.095 C 
ATOM     15  C   UNL     1      35.774 -24.689 -11.935  0.00  0.00    +0.023 C 
ENDBRANCH   4  14
TORSDOF 2
ENDMDL
MODEL 8
REMARK VINA RESULT:      -5.8      7.785      9.543
REMARK  Name = 3052
REMARK  2 active torsions:
REMARK  status: ('A' for Active; 'I' for Inactive)
REMARK    1  A    between atoms: N_4  and  C_12
REMARK    2  A    between atoms: N_4  and  C_14
REMARK                            x       y       z     vdW  Elec       q    Type
REMARK                         _______ _______ _______ _____ _____    ______ ____
ROOT
ATOM      1  O   UNL     1      31.228 -22.326 -17.419  0.00  0.00    -0.252 OA
ATOM      2  N   UNL     1      33.010 -23.498 -16.548  0.00  0.00    -0.268 N 
ATOM      3  N   UNL     1      35.786 -22.803 -16.485  0.00  0.00    +0.388 N 
ATOM      4  N   UNL     1      30.878 -23.479 -15.456  0.00  0.00    -0.264 N 
ATOM      5  C   UNL     1      33.811 -23.795 -15.356  0.00  0.00    +0.072 C 
ATOM      6  C   UNL     1      33.787 -23.412 -17.783  0.00  0.00    +0.072 C 
ATOM      7  C   UNL     1      34.993 -22.824 -15.246  0.00  0.00    -0.055 C 
ATOM      8  C   UNL     1      34.945 -22.427 -17.631  0.00  0.00    -0.055 C 
ATOM      9  C   UNL     1      31.680 -23.056 -16.526  0.00  0.00    +0.307 C 
ATOM     10  C   UNL     1      36.917 -21.886 -16.355  0.00  0.00    -0.101 C 
ATOM     11  H   UNL     1      36.151 -23.742 -16.648  0.00  0.00    -0.080 HD
ENDROOT
BRANCH   4  12
ATOM     12  C   UNL     1      29.793 -22.621 -15.000  0.00  0.00    +0.095 C 
ATOM     13  C   UNL     1      28.471 -23.020 -15.620  0.00  0.00    +0.023 C 
ENDBRANCH   4  12
BRANCH   4  14
ATOM     14  C   UNL     1      30.862 -24.843 -14.932  0.00  0.00    +0.095 C 
ATOM     15  C   UNL     1      30.897 -24.857 -13.418  0.00  0.00    +0.023 C 
ENDBRANCH   4  14
TORSDOF 2
ENDMDL
MODEL 9
REMARK VINA RESULT:      -5.7      5.651      8.541
REMARK  Name = 3052
REMARK  2 active torsions:
REMARK  status: ('A' for Active; 'I' for Inactive)
REMARK    1  A    between atoms: N_4  and  C_12
REMARK    2  A    between atoms: N_4  and  C_14
REMARK                            x       y       z     vdW  Elec       q    Type
REMARK                         _______ _______ _______ _____ _____    ______ ____
ROOT
ATOM      1  O   UNL     1      31.745 -10.528 -22.478  0.00  0.00    -0.252 OA
ATOM      2  N   UNL     1      33.466 -11.320 -23.788  0.00  0.00    -0.268 N 
ATOM      3  N   UNL     1      33.553 -13.632 -25.473  0.00  0.00    +0.388 N 
ATOM      4  N   UNL     1      33.048  -8.972 -23.568  0.00  0.00    -0.264 N 
ATOM      5  C   UNL     1      34.143 -11.253 -25.088  0.00  0.00    +0.072 C 
ATOM      6  C   UNL     1      33.404 -12.663 -23.217  0.00  0.00    +0.072 C 
ATOM      7  C   UNL     1      33.550 -12.281 -26.057  0.00  0.00    -0.055 C 
ATOM      8  C   UNL     1      32.797 -13.651 -24.212  0.00  0.00    -0.055 C 
ATOM      9  C   UNL     1      32.695 -10.288 -23.235  0.00  0.00    +0.307 C 
ATOM     10  C   UNL     1      33.000 -14.601 -26.418  0.00  0.00    -0.101 C 
ATOM     11  H   UNL     1      34.519 -13.892 -25.274  0.00  0.00    -0.080 HD
ENDROOT
BRANCH   4  12
ATOM     12  C   UNL     1      32.011  -7.949 -23.608  0.00  0.00    +0.095 C 
ATOM     13  C   UNL     1      31.811  -7.307 -22.251  0.00  0.00    +0.023 C 
ENDBRANCH   4  12
BRANCH   4  14
ATOM     14  C   UNL     1      34.421  -8.475 -23.610  0.00  0.00    +0.095 C 
ATOM     15  C   UNL     1      34.517  -7.171 -24.374  0.00  0.00    +0.023 C 
ENDBRANCH   4  14
TORSDOF 2
ENDMDL
