MODEL 1
REMARK VINA RESULT:      -8.0      0.000      0.000
REMARK  Name = 1055
REMARK  8 active torsions:
REMARK  status: ('A' for Active; 'I' for Inactive)
REMARK    1  A    between atoms: C_2  and  C_18
REMARK    2  A    between atoms: C_3  and  C_10
REMARK    3  A    between atoms: C_4  and  O_8
REMARK    4  A    between atoms: C_10  and  O_11
REMARK    5  A    between atoms: O_11  and  P_12
REMARK    6  A    between atoms: P_12  and  O_14
REMARK    7  A    between atoms: P_12  and  O_16
REMARK    8  A    between atoms: C_18  and  O_19
REMARK                            x       y       z     vdW  Elec       q    Type
REMARK                         _______ _______ _______ _____ _____    ______ ____
ROOT
ATOM      1  N   UNL     1      35.457 -24.930 -15.472  0.00  0.00    -0.245 NA
ATOM      2  C   UNL     1      35.990 -24.591 -12.749  0.00  0.00    +0.042 C 
ATOM      3  C   UNL     1      36.906 -25.248 -13.563  0.00  0.00    +0.028 C 
ATOM      4  C   UNL     1      34.807 -24.104 -13.295  0.00  0.00    +0.145 C 
ATOM      5  C   UNL     1      34.590 -24.297 -14.650  0.00  0.00    +0.093 C 
ATOM      6  C   UNL     1      36.594 -25.391 -14.906  0.00  0.00    +0.097 C 
ATOM      7  C   UNL     1      33.336 -23.793 -15.287  0.00  0.00    +0.055 C 
ENDROOT
BRANCH   4   8
ATOM      8  O   UNL     1      33.893 -23.459 -12.523  0.00  0.00    -0.505 OA
ATOM      9  H   UNL     1      33.201 -23.940 -12.116  0.00  0.00    +0.292 HD
ENDBRANCH   4   8
BRANCH   3  10
ATOM     10  C   UNL     1      38.187 -25.791 -13.033  0.00  0.00    +0.181 C 
BRANCH  10  11
ATOM     11  O   UNL     1      38.901 -26.433 -14.084  0.00  0.00    -0.268 OA
BRANCH  11  12
ATOM     12  P   UNL     1      40.355 -25.853 -14.489  0.00  0.00    +0.473 P 
ATOM     13  O   UNL     1      40.693 -24.515 -13.897  0.00  0.00    -0.227 OA
BRANCH  12  14
ATOM     14  O   UNL     1      40.358 -25.916 -16.104  0.00  0.00    -0.303 OA
ATOM     15  H   UNL     1      39.483 -26.189 -16.420  0.00  0.00    +0.222 HD
ENDBRANCH  12  14
BRANCH  12  16
ATOM     16  O   UNL     1      41.348 -27.057 -14.067  0.00  0.00    -0.303 OA
ATOM     17  H   UNL     1      42.258 -26.825 -14.309  0.00  0.00    +0.222 HD
ENDBRANCH  12  16
ENDBRANCH  11  12
ENDBRANCH  10  11
ENDBRANCH   3  10
BRANCH   2  18
ATOM     18  C   UNL     1      36.273 -24.407 -11.293  0.00  0.00    +0.166 C 
BRANCH  18  19
ATOM     19  O   UNL     1      35.310 -25.125 -10.534  0.00  0.00    -0.377 OA
ATOM     20  H   UNL     1      35.706 -25.408  -9.695  0.00  0.00    +0.211 HD
ENDBRANCH  18  19
ENDBRANCH   2  18
TORSDOF 8
ENDMDL
MODEL 2
REMARK VINA RESULT:      -7.0      1.498      1.953
REMARK  Name = 1055
REMARK  8 active torsions:
REMARK  status: ('A' for Active; 'I' for Inactive)
REMARK    1  A    between atoms: C_2  and  C_18
REMARK    2  A    between atoms: C_3  and  C_10
REMARK    3  A    between atoms: C_4  and  O_8
REMARK    4  A    between atoms: C_10  and  O_11
REMARK    5  A    between atoms: O_11  and  P_12
REMARK    6  A    between atoms: P_12  and  O_14
REMARK    7  A    between atoms: P_12  and  O_16
REMARK    8  A    between atoms: C_18  and  O_19
REMARK                            x       y       z     vdW  Elec       q    Type
REMARK                         _______ _______ _______ _____ _____    ______ ____
ROOT
ATOM      1  N   UNL     1      34.686 -22.964 -15.793  0.00  0.00    -0.245 NA
ATOM      2  C   UNL     1      35.577 -24.195 -13.446  0.00  0.00    +0.042 C 
ATOM      3  C   UNL     1      36.485 -23.574 -14.297  0.00  0.00    +0.028 C 
ATOM      4  C   UNL     1      34.224 -24.202 -13.768  0.00  0.00    +0.145 C 
ATOM      5  C   UNL     1      33.834 -23.578 -14.942  0.00  0.00    +0.093 C 
ATOM      6  C   UNL     1      35.993 -22.979 -15.448  0.00  0.00    +0.097 C 
ATOM      7  C   UNL     1      32.392 -23.556 -15.334  0.00  0.00    +0.055 C 
ENDROOT
BRANCH   4   8
ATOM      8  O   UNL     1      33.314 -24.802 -12.956  0.00  0.00    -0.505 OA
ATOM      9  H   UNL     1      33.595 -25.217 -12.164  0.00  0.00    +0.292 HD
ENDBRANCH   4   8
BRANCH   3  10
ATOM     10  C   UNL     1      37.945 -23.537 -14.004  0.00  0.00    +0.181 C 
BRANCH  10  11
ATOM     11  O   UNL     1      38.658 -24.158 -15.068  0.00  0.00    -0.268 OA
BRANCH  11  12
ATOM     12  P   UNL     1      39.640 -25.392 -14.715  0.00  0.00    +0.473 P 
ATOM     13  O   UNL     1      39.014 -26.494 -13.912  0.00  0.00    -0.227 OA
BRANCH  12  14
ATOM     14  O   UNL     1      40.921 -24.681 -14.032  0.00  0.00    -0.303 OA
ATOM     15  H   UNL     1      40.913 -24.847 -13.076  0.00  0.00    +0.222 HD
ENDBRANCH  12  14
BRANCH  12  16
ATOM     16  O   UNL     1      40.191 -25.835 -16.169  0.00  0.00    -0.303 OA
ATOM     17  H   UNL     1      40.490 -26.758 -16.134  0.00  0.00    +0.222 HD
ENDBRANCH  12  16
ENDBRANCH  11  12
ENDBRANCH  10  11
ENDBRANCH   3  10
BRANCH   2  18
ATOM     18  C   UNL     1      36.051 -24.853 -12.191  0.00  0.00    +0.166 C 
BRANCH  18  19
ATOM     19  O   UNL     1      36.522 -26.159 -12.494  0.00  0.00    -0.377 OA
ATOM     20  H   UNL     1      36.837 -26.183 -13.412  0.00  0.00    +0.211 HD
ENDBRANCH  18  19
ENDBRANCH   2  18
TORSDOF 8
ENDMDL
MODEL 3
REMARK VINA RESULT:      -7.0      4.872      7.721
REMARK  Name = 1055
REMARK  8 active torsions:
REMARK  status: ('A' for Active; 'I' for Inactive)
REMARK    1  A    between atoms: C_2  and  C_18
REMARK    2  A    between atoms: C_3  and  C_10
REMARK    3  A    between atoms: C_4  and  O_8
REMARK    4  A    between atoms: C_10  and  O_11
REMARK    5  A    between atoms: O_11  and  P_12
REMARK    6  A    between atoms: P_12  and  O_14
REMARK    7  A    between atoms: P_12  and  O_16
REMARK    8  A    between atoms: C_18  and  O_19
REMARK                            x       y       z     vdW  Elec       q    Type
REMARK                         _______ _______ _______ _____ _____    ______ ____
ROOT
ATOM      1  N   UNL     1      34.613 -23.947 -16.248  0.00  0.00    -0.245 NA
ATOM      2  C   UNL     1      32.502 -23.727 -14.429  0.00  0.00    +0.042 C 
ATOM      3  C   UNL     1      32.342 -23.291 -15.739  0.00  0.00    +0.028 C 
ATOM      4  C   UNL     1      33.716 -24.272 -14.027  0.00  0.00    +0.145 C 
ATOM      5  C   UNL     1      34.731 -24.360 -14.966  0.00  0.00    +0.093 C 
ATOM      6  C   UNL     1      33.419 -23.421 -16.602  0.00  0.00    +0.097 C 
ATOM      7  C   UNL     1      36.055 -24.938 -14.586  0.00  0.00    +0.055 C 
ENDROOT
BRANCH   4   8
ATOM      8  O   UNL     1      33.901 -24.706 -12.752  0.00  0.00    -0.505 OA
ATOM      9  H   UNL     1      34.767 -24.864 -12.431  0.00  0.00    +0.292 HD
ENDBRANCH   4   8
BRANCH   3  10
ATOM     10  C   UNL     1      31.066 -22.697 -16.225  0.00  0.00    +0.181 C 
BRANCH  10  11
ATOM     11  O   UNL     1      30.150 -23.739 -16.545  0.00  0.00    -0.268 OA
BRANCH  11  12
ATOM     12  P   UNL     1      28.597 -23.546 -16.140  0.00  0.00    +0.473 P 
ATOM     13  O   UNL     1      28.207 -22.145 -15.769  0.00  0.00    -0.227 OA
BRANCH  12  14
ATOM     14  O   UNL     1      28.358 -24.658 -14.990  0.00  0.00    -0.303 OA
ATOM     15  H   UNL     1      29.208 -24.899 -14.590  0.00  0.00    +0.222 HD
ENDBRANCH  12  14
BRANCH  12  16
ATOM     16  O   UNL     1      27.818 -24.157 -17.417  0.00  0.00    -0.303 OA
ATOM     17  H   UNL     1      27.226 -24.869 -17.126  0.00  0.00    +0.222 HD
ENDBRANCH  12  16
ENDBRANCH  11  12
ENDBRANCH  10  11
ENDBRANCH   3  10
BRANCH   2  18
ATOM     18  C   UNL     1      31.375 -23.611 -13.454  0.00  0.00    +0.166 C 
BRANCH  18  19
ATOM     19  O   UNL     1      30.893 -24.910 -13.138  0.00  0.00    -0.377 OA
ATOM     20  H   UNL     1      30.023 -25.040 -13.547  0.00  0.00    +0.211 HD
ENDBRANCH  18  19
ENDBRANCH   2  18
TORSDOF 8
ENDMDL
MODEL 4
REMARK VINA RESULT:      -7.0      2.363      3.450
REMARK  Name = 1055
REMARK  8 active torsions:
REMARK  status: ('A' for Active; 'I' for Inactive)
REMARK    1  A    between atoms: C_2  and  C_18
REMARK    2  A    between atoms: C_3  and  C_10
REMARK    3  A    between atoms: C_4  and  O_8
REMARK    4  A    between atoms: C_10  and  O_11
REMARK    5  A    between atoms: O_11  and  P_12
REMARK    6  A    between atoms: P_12  and  O_14
REMARK    7  A    between atoms: P_12  and  O_16
REMARK    8  A    between atoms: C_18  and  O_19
REMARK                            x       y       z     vdW  Elec       q    Type
REMARK                         _______ _______ _______ _____ _____    ______ ____
ROOT
ATOM      1  N   UNL     1      35.483 -22.582 -17.366  0.00  0.00    -0.245 NA
ATOM      2  C   UNL     1      34.304 -23.735 -15.109  0.00  0.00    +0.042 C 
ATOM      3  C   UNL     1      35.676 -23.514 -15.144  0.00  0.00    +0.028 C 
ATOM      4  C   UNL     1      33.520 -23.380 -16.201  0.00  0.00    +0.145 C 
ATOM      5  C   UNL     1      34.152 -22.812 -17.296  0.00  0.00    +0.093 C 
ATOM      6  C   UNL     1      36.212 -22.941 -16.287  0.00  0.00    +0.097 C 
ATOM      7  C   UNL     1      33.357 -22.412 -18.496  0.00  0.00    +0.055 C 
ENDROOT
BRANCH   4   8
ATOM      8  O   UNL     1      32.177 -23.585 -16.195  0.00  0.00    -0.505 OA
ATOM      9  H   UNL     1      31.640 -23.194 -16.856  0.00  0.00    +0.292 HD
ENDBRANCH   4   8
BRANCH   3  10
ATOM     10  C   UNL     1      36.564 -23.876 -14.004  0.00  0.00    +0.181 C 
BRANCH  10  11
ATOM     11  O   UNL     1      37.586 -24.755 -14.460  0.00  0.00    -0.268 OA
BRANCH  11  12
ATOM     12  P   UNL     1      37.256 -26.335 -14.546  0.00  0.00    +0.473 P 
ATOM     13  O   UNL     1      36.317 -26.729 -15.650  0.00  0.00    -0.227 OA
BRANCH  12  14
ATOM     14  O   UNL     1      36.762 -26.707 -13.053  0.00  0.00    -0.303 OA
ATOM     15  H   UNL     1      36.408 -27.611 -13.044  0.00  0.00    +0.222 HD
ENDBRANCH  12  14
BRANCH  12  16
ATOM     16  O   UNL     1      38.726 -27.002 -14.630  0.00  0.00    -0.303 OA
ATOM     17  H   UNL     1      38.753 -27.635 -15.365  0.00  0.00    +0.222 HD
ENDBRANCH  12  16
ENDBRANCH  11  12
ENDBRANCH  10  11
ENDBRANCH   3  10
BRANCH   2  18
ATOM     18  C   UNL     1      33.671 -24.350 -13.902  0.00  0.00    +0.166 C 
BRANCH  18  19
ATOM     19  O   UNL     1      32.934 -23.358 -13.202  0.00  0.00    -0.377 OA
ATOM     20  H   UNL     1      32.191 -23.775 -12.738  0.00  0.00    +0.211 HD
ENDBRANCH  18  19
ENDBRANCH   2  18
TORSDOF 8
ENDMDL
MODEL 5
REMARK VINA RESULT:      -7.0      2.062      2.921
REMARK  Name = 1055
REMARK  8 active torsions:
REMARK  status: ('A' for Active; 'I' for Inactive)
REMARK    1  A    between atoms: C_2  and  C_18
REMARK    2  A    between atoms: C_3  and  C_10
REMARK    3  A    between atoms: C_4  and  O_8
REMARK    4  A    between atoms: C_10  and  O_11
REMARK    5  A    between atoms: O_11  and  P_12
REMARK    6  A    between atoms: P_12  and  O_14
REMARK    7  A    between atoms: P_12  and  O_16
REMARK    8  A    between atoms: C_18  and  O_19
REMARK                            x       y       z     vdW  Elec       q    Type
REMARK                         _______ _______ _______ _____ _____    ______ ____
ROOT
ATOM      1  N   UNL     1      33.034 -23.368 -16.582  0.00  0.00    -0.245 NA
ATOM      2  C   UNL     1      34.302 -23.631 -14.105  0.00  0.00    +0.042 C 
ATOM      3  C   UNL     1      35.035 -23.752 -15.280  0.00  0.00    +0.028 C 
ATOM      4  C   UNL     1      32.936 -23.379 -14.167  0.00  0.00    +0.145 C 
ATOM      5  C   UNL     1      32.355 -23.257 -15.419  0.00  0.00    +0.093 C 
ATOM      6  C   UNL     1      34.359 -23.614 -16.483  0.00  0.00    +0.097 C 
ATOM      7  C   UNL     1      30.891 -22.986 -15.541  0.00  0.00    +0.055 C 
ENDROOT
BRANCH   4   8
ATOM      8  O   UNL     1      32.195 -23.257 -13.034  0.00  0.00    -0.505 OA
ATOM      9  H   UNL     1      31.349 -22.855 -13.068  0.00  0.00    +0.292 HD
ENDBRANCH   4   8
BRANCH   3  10
ATOM     10  C   UNL     1      36.499 -24.023 -15.274  0.00  0.00    +0.181 C 
BRANCH  10  11
ATOM     11  O   UNL     1      36.721 -25.429 -15.319  0.00  0.00    -0.268 OA
BRANCH  11  12
ATOM     12  P   UNL     1      37.733 -26.080 -14.240  0.00  0.00    +0.473 P 
ATOM     13  O   UNL     1      38.759 -27.013 -14.813  0.00  0.00    -0.227 OA
BRANCH  12  14
ATOM     14  O   UNL     1      36.750 -26.729 -13.133  0.00  0.00    -0.303 OA
ATOM     15  H   UNL     1      36.370 -26.024 -12.584  0.00  0.00    +0.222 HD
ENDBRANCH  12  14
BRANCH  12  16
ATOM     16  O   UNL     1      38.335 -24.781 -13.488  0.00  0.00    -0.303 OA
ATOM     17  H   UNL     1      37.616 -24.160 -13.291  0.00  0.00    +0.222 HD
ENDBRANCH  12  16
ENDBRANCH  11  12
ENDBRANCH  10  11
ENDBRANCH   3  10
BRANCH   2  18
ATOM     18  C   UNL     1      34.978 -23.770 -12.779  0.00  0.00    +0.166 C 
BRANCH  18  19
ATOM     19  O   UNL     1      34.518 -24.953 -12.140  0.00  0.00    -0.377 OA
ATOM     20  H   UNL     1      33.804 -25.348 -12.666  0.00  0.00    +0.211 HD
ENDBRANCH  18  19
ENDBRANCH   2  18
TORSDOF 8
ENDMDL
MODEL 6
REMARK VINA RESULT:      -6.9      3.106      4.688
REMARK  Name = 1055
REMARK  8 active torsions:
REMARK  status: ('A' for Active; 'I' for Inactive)
REMARK    1  A    between atoms: C_2  and  C_18
REMARK    2  A    between atoms: C_3  and  C_10
REMARK    3  A    between atoms: C_4  and  O_8
REMARK    4  A    between atoms: C_10  and  O_11
REMARK    5  A    between atoms: O_11  and  P_12
REMARK    6  A    between atoms: P_12  and  O_14
REMARK    7  A    between atoms: P_12  and  O_16
REMARK    8  A    between atoms: C_18  and  O_19
REMARK                            x       y       z     vdW  Elec       q    Type
REMARK                         _______ _______ _______ _____ _____    ______ ____
ROOT
ATOM      1  N   UNL     1      31.928 -24.045 -14.068  0.00  0.00    -0.245 NA
ATOM      2  C   UNL     1      33.339 -23.328 -16.373  0.00  0.00    +0.042 C 
ATOM      3  C   UNL     1      34.002 -23.926 -15.306  0.00  0.00    +0.028 C 
ATOM      4  C   UNL     1      31.972 -23.089 -16.288  0.00  0.00    +0.145 C 
ATOM      5  C   UNL     1      31.319 -23.462 -15.125  0.00  0.00    +0.093 C 
ATOM      6  C   UNL     1      33.257 -24.261 -14.186  0.00  0.00    +0.097 C 
ATOM      7  C   UNL     1      29.850 -23.228 -14.983  0.00  0.00    +0.055 C 
ENDROOT
BRANCH   4   8
ATOM      8  O   UNL     1      31.299 -22.506 -17.315  0.00  0.00    -0.505 OA
ATOM      9  H   UNL     1      31.383 -21.585 -17.468  0.00  0.00    +0.292 HD
ENDBRANCH   4   8
BRANCH   3  10
ATOM     10  C   UNL     1      35.464 -24.205 -15.340  0.00  0.00    +0.181 C 
BRANCH  10  11
ATOM     11  O   UNL     1      35.745 -25.360 -14.558  0.00  0.00    -0.268 OA
BRANCH  11  12
ATOM     12  P   UNL     1      36.974 -26.309 -15.006  0.00  0.00    +0.473 P 
ATOM     13  O   UNL     1      36.673 -27.249 -16.137  0.00  0.00    -0.227 OA
BRANCH  12  14
ATOM     14  O   UNL     1      37.439 -27.014 -13.627  0.00  0.00    -0.303 OA
ATOM     15  H   UNL     1      37.585 -26.335 -12.949  0.00  0.00    +0.222 HD
ENDBRANCH  12  14
BRANCH  12  16
ATOM     16  O   UNL     1      38.156 -25.246 -15.298  0.00  0.00    -0.303 OA
ATOM     17  H   UNL     1      38.896 -25.409 -14.691  0.00  0.00    +0.222 HD
ENDBRANCH  12  16
ENDBRANCH  11  12
ENDBRANCH  10  11
ENDBRANCH   3  10
BRANCH   2  18
ATOM     18  C   UNL     1      34.091 -22.946 -17.606  0.00  0.00    +0.166 C 
BRANCH  18  19
ATOM     19  O   UNL     1      33.669 -23.766 -18.687  0.00  0.00    -0.377 OA
ATOM     20  H   UNL     1      32.897 -24.286 -18.414  0.00  0.00    +0.211 HD
ENDBRANCH  18  19
ENDBRANCH   2  18
TORSDOF 8
ENDMDL
MODEL 7
REMARK VINA RESULT:      -6.8      3.442      5.193
REMARK  Name = 1055
REMARK  8 active torsions:
REMARK  status: ('A' for Active; 'I' for Inactive)
REMARK    1  A    between atoms: C_2  and  C_18
REMARK    2  A    between atoms: C_3  and  C_10
REMARK    3  A    between atoms: C_4  and  O_8
REMARK    4  A    between atoms: C_10  and  O_11
REMARK    5  A    between atoms: O_11  and  P_12
REMARK    6  A    between atoms: P_12  and  O_14
REMARK    7  A    between atoms: P_12  and  O_16
REMARK    8  A    between atoms: C_18  and  O_19
REMARK                            x       y       z     vdW  Elec       q    Type
REMARK                         _______ _______ _______ _____ _____    ______ ____
ROOT
ATOM      1  N   UNL     1      30.824 -23.943 -13.944  0.00  0.00    -0.245 NA
ATOM      2  C   UNL     1      33.035 -23.433 -15.577  0.00  0.00    +0.042 C 
ATOM      3  C   UNL     1      33.213 -23.977 -14.310  0.00  0.00    +0.028 C 
ATOM      4  C   UNL     1      31.752 -23.142 -16.028  0.00  0.00    +0.145 C 
ATOM      5  C   UNL     1      30.689 -23.414 -15.181  0.00  0.00    +0.093 C 
ATOM      6  C   UNL     1      32.085 -24.210 -13.539  0.00  0.00    +0.097 C 
ATOM      7  C   UNL     1      29.291 -23.121 -15.617  0.00  0.00    +0.055 C 
ENDROOT
BRANCH   4   8
ATOM      8  O   UNL     1      31.548 -22.609 -17.261  0.00  0.00    -0.505 OA
ATOM      9  H   UNL     1      31.899 -21.766 -17.471  0.00  0.00    +0.292 HD
ENDBRANCH   4   8
BRANCH   3  10
ATOM     10  C   UNL     1      34.563 -24.307 -13.774  0.00  0.00    +0.181 C 
BRANCH  10  11
ATOM     11  O   UNL     1      34.622 -23.964 -12.394  0.00  0.00    -0.268 OA
BRANCH  11  12
ATOM     12  P   UNL     1      35.896 -24.464 -11.534  0.00  0.00    +0.473 P 
ATOM     13  O   UNL     1      36.943 -23.418 -11.282  0.00  0.00    -0.227 OA
BRANCH  12  14
ATOM     14  O   UNL     1      36.407 -25.776 -12.329  0.00  0.00    -0.303 OA
ATOM     15  H   UNL     1      35.780 -25.990 -13.037  0.00  0.00    +0.222 HD
ENDBRANCH  12  14
BRANCH  12  16
ATOM     16  O   UNL     1      35.210 -25.078 -10.205  0.00  0.00    -0.303 OA
ATOM     17  H   UNL     1      34.245 -25.072 -10.308  0.00  0.00    +0.222 HD
ENDBRANCH  12  16
ENDBRANCH  11  12
ENDBRANCH  10  11
ENDBRANCH   3  10
BRANCH   2  18
ATOM     18  C   UNL     1      34.215 -23.160 -16.452  0.00  0.00    +0.166 C 
BRANCH  18  19
ATOM     19  O   UNL     1      34.012 -23.773 -17.718  0.00  0.00    -0.377 OA
ATOM     20  H   UNL     1      33.682 -23.112 -18.347  0.00  0.00    +0.211 HD
ENDBRANCH  18  19
ENDBRANCH   2  18
TORSDOF 8
ENDMDL
MODEL 8
REMARK VINA RESULT:      -6.8      3.032      5.768
REMARK  Name = 1055
REMARK  8 active torsions:
REMARK  status: ('A' for Active; 'I' for Inactive)
REMARK    1  A    between atoms: C_2  and  C_18
REMARK    2  A    between atoms: C_3  and  C_10
REMARK    3  A    between atoms: C_4  and  O_8
REMARK    4  A    between atoms: C_10  and  O_11
REMARK    5  A    between atoms: O_11  and  P_12
REMARK    6  A    between atoms: P_12  and  O_14
REMARK    7  A    between atoms: P_12  and  O_16
REMARK    8  A    between atoms: C_18  and  O_19
REMARK                            x       y       z     vdW  Elec       q    Type
REMARK                         _______ _______ _______ _____ _____    ______ ____
ROOT
ATOM      1  N   UNL     1      38.430 -25.911 -12.807  0.00  0.00    -0.245 NA
ATOM      2  C   UNL     1      37.268 -23.829 -14.267  0.00  0.00    +0.042 C 
ATOM      3  C   UNL     1      36.649 -24.305 -13.117  0.00  0.00    +0.028 C 
ATOM      4  C   UNL     1      38.467 -24.393 -14.688  0.00  0.00    +0.145 C 
ATOM      5  C   UNL     1      39.002 -25.422 -13.930  0.00  0.00    +0.093 C 
ATOM      6  C   UNL     1      37.265 -25.339 -12.429  0.00  0.00    +0.097 C 
ATOM      7  C   UNL     1      40.289 -26.062 -14.338  0.00  0.00    +0.055 C 
ENDROOT
BRANCH   4   8
ATOM      8  O   UNL     1      39.095 -23.948 -15.809  0.00  0.00    -0.505 OA
ATOM      9  H   UNL     1      39.911 -24.326 -16.071  0.00  0.00    +0.292 HD
ENDBRANCH   4   8
BRANCH   3  10
ATOM     10  C   UNL     1      35.363 -23.741 -12.620  0.00  0.00    +0.181 C 
BRANCH  10  11
ATOM     11  O   UNL     1      34.313 -24.670 -12.863  0.00  0.00    -0.268 OA
BRANCH  11  12
ATOM     12  P   UNL     1      33.086 -24.210 -13.809  0.00  0.00    +0.473 P 
ATOM     13  O   UNL     1      33.477 -23.778 -15.192  0.00  0.00    -0.227 OA
BRANCH  12  14
ATOM     14  O   UNL     1      32.317 -23.093 -12.928  0.00  0.00    -0.303 OA
ATOM     15  H   UNL     1      32.847 -22.878 -12.144  0.00  0.00    +0.222 HD
ENDBRANCH  12  14
BRANCH  12  16
ATOM     16  O   UNL     1      32.091 -25.483 -13.747  0.00  0.00    -0.303 OA
ATOM     17  H   UNL     1      31.406 -25.391 -14.428  0.00  0.00    +0.222 HD
ENDBRANCH  12  16
ENDBRANCH  11  12
ENDBRANCH  10  11
ENDBRANCH   3  10
BRANCH   2  18
ATOM     18  C   UNL     1      36.649 -22.715 -15.049  0.00  0.00    +0.166 C 
BRANCH  18  19
ATOM     19  O   UNL     1      36.186 -23.218 -16.294  0.00  0.00    -0.377 OA
ATOM     20  H   UNL     1      35.315 -22.839 -16.491  0.00  0.00    +0.211 HD
ENDBRANCH  18  19
ENDBRANCH   2  18
TORSDOF 8
ENDMDL
MODEL 9
REMARK VINA RESULT:      -6.8     11.517     12.938
REMARK  Name = 1055
REMARK  8 active torsions:
REMARK  status: ('A' for Active; 'I' for Inactive)
REMARK    1  A    between atoms: C_2  and  C_18
REMARK    2  A    between atoms: C_3  and  C_10
REMARK    3  A    between atoms: C_4  and  O_8
REMARK    4  A    between atoms: C_10  and  O_11
REMARK    5  A    between atoms: O_11  and  P_12
REMARK    6  A    between atoms: P_12  and  O_14
REMARK    7  A    between atoms: P_12  and  O_16
REMARK    8  A    between atoms: C_18  and  O_19
REMARK                            x       y       z     vdW  Elec       q    Type
REMARK                         _______ _______ _______ _____ _____    ______ ____
ROOT
ATOM      1  N   UNL     1      33.998 -16.548 -25.949  0.00  0.00    -0.245 NA
ATOM      2  C   UNL     1      34.482 -16.010 -23.249  0.00  0.00    +0.042 C 
ATOM      3  C   UNL     1      34.996 -17.162 -23.834  0.00  0.00    +0.028 C 
ATOM      4  C   UNL     1      33.727 -15.127 -24.012  0.00  0.00    +0.145 C 
ATOM      5  C   UNL     1      33.515 -15.439 -25.346  0.00  0.00    +0.093 C 
ATOM      6  C   UNL     1      34.727 -17.383 -25.175  0.00  0.00    +0.097 C 
ATOM      7  C   UNL     1      32.711 -14.524 -26.210  0.00  0.00    +0.055 C 
ENDROOT
BRANCH   4   8
ATOM      8  O   UNL     1      33.212 -13.993 -23.466  0.00  0.00    -0.505 OA
ATOM      9  H   UNL     1      33.759 -13.244 -23.340  0.00  0.00    +0.292 HD
ENDBRANCH   4   8
BRANCH   3  10
ATOM     10  C   UNL     1      35.810 -18.144 -23.065  0.00  0.00    +0.181 C 
BRANCH  10  11
ATOM     11  O   UNL     1      34.988 -19.238 -22.674  0.00  0.00    -0.268 OA
BRANCH  11  12
ATOM     12  P   UNL     1      34.836 -19.558 -21.097  0.00  0.00    +0.473 P 
ATOM     13  O   UNL     1      35.184 -20.962 -20.696  0.00  0.00    -0.227 OA
BRANCH  12  14
ATOM     14  O   UNL     1      33.325 -19.095 -20.754  0.00  0.00    -0.303 OA
ATOM     15  H   UNL     1      33.134 -18.255 -21.201  0.00  0.00    +0.222 HD
ENDBRANCH  12  14
BRANCH  12  16
ATOM     16  O   UNL     1      35.742 -18.407 -20.412  0.00  0.00    -0.303 OA
ATOM     17  H   UNL     1      35.222 -17.592 -20.330  0.00  0.00    +0.222 HD
ENDBRANCH  12  16
ENDBRANCH  11  12
ENDBRANCH  10  11
ENDBRANCH   3  10
BRANCH   2  18
ATOM     18  C   UNL     1      34.741 -15.720 -21.806  0.00  0.00    +0.166 C 
BRANCH  18  19
ATOM     19  O   UNL     1      33.600 -16.087 -21.042  0.00  0.00    -0.377 OA
ATOM     20  H   UNL     1      32.819 -16.105 -21.617  0.00  0.00    +0.211 HD
ENDBRANCH  18  19
ENDBRANCH   2  18
TORSDOF 8
ENDMDL
