MODEL 1
REMARK VINA RESULT:      -8.9      0.000      0.000
REMARK  Name = 4369479
REMARK  12 active torsions:
REMARK  status: ('A' for Active; 'I' for Inactive)
REMARK    1  A    between atoms: N_2  and  C_10
REMARK    2  A    between atoms: C_4  and  C_21
REMARK    3  A    between atoms: C_5  and  C_8
REMARK    4  A    between atoms: C_10  and  C_14
REMARK    5  A    between atoms: C_21  and  C_22
REMARK    6  A    between atoms: C_22  and  O_23
REMARK    7  A    between atoms: O_23  and  P_24
REMARK    8  A    between atoms: P_24  and  O_26
REMARK    9  A    between atoms: P_24  and  O_28
REMARK   10  A    between atoms: O_28  and  P_29
REMARK   11  A    between atoms: P_29  and  O_31
REMARK   12  A    between atoms: P_29  and  O_33
REMARK                            x       y       z     vdW  Elec       q    Type
REMARK                         _______ _______ _______ _____ _____    ______ ____
ROOT
ATOM      1  S   UNL     1      33.214 -15.008 -23.824  0.00  0.00    -0.090 S 
ATOM      2  N   UNL     1      34.809 -16.485 -22.576  0.00  0.00    -0.293 N 
ATOM      3  C   UNL     1      34.339 -15.607 -21.625  0.00  0.00    +0.028 C 
ATOM      4  C   UNL     1      33.455 -14.735 -22.160  0.00  0.00    +0.017 C 
ATOM      5  C   UNL     1      34.321 -16.311 -23.785  0.00  0.00    +0.184 C 
ATOM      6  C   UNL     1      34.837 -15.737 -20.247  0.00  0.00    +0.047 C 
ENDROOT
BRANCH   5   8
ATOM      7  O   UNL     1      35.215 -16.600 -25.969  0.00  0.00    -0.293 OA
ATOM      8  C   UNL     1      34.620 -17.060 -24.958  0.00  0.00    +0.180 C 
ATOM      9  C   UNL     1      34.212 -18.536 -25.052  0.00  0.00    +0.075 C 
ENDBRANCH   5   8
BRANCH   2  10
ATOM     10  C   UNL     1      35.767 -17.526 -22.278  0.00  0.00    +0.124 C 
BRANCH  10  14
ATOM     11  N   UNL     1      35.181 -20.453 -19.960  0.00  0.00    -0.340 NA
ATOM     12  N   UNL     1      33.079 -19.774 -20.924  0.00  0.00    -0.186 NA
ATOM     13  N   UNL     1      37.181 -19.311 -20.527  0.00  0.00    -0.332 N 
ATOM     14  C   UNL     1      35.096 -18.622 -21.496  0.00  0.00    +0.062 C 
ATOM     15  C   UNL     1      35.779 -19.469 -20.662  0.00  0.00    +0.187 C 
ATOM     16  C   UNL     1      33.742 -18.811 -21.598  0.00  0.00    +0.111 C 
ATOM     17  C   UNL     1      33.849 -20.548 -20.135  0.00  0.00    +0.066 C 
ATOM     18  C   UNL     1      33.153 -21.624 -19.374  0.00  0.00    +0.129 C 
ATOM     19  H   UNL     1      37.688 -19.909 -19.933  0.00  0.00    +0.145 HD
ATOM     20  H   UNL     1      37.647 -18.601 -21.026  0.00  0.00    +0.145 HD
ENDBRANCH  10  14
ENDBRANCH   2  10
BRANCH   4  21
ATOM     21  C   UNL     1      32.701 -13.613 -21.483  0.00  0.00    +0.066 C 
BRANCH  21  22
ATOM     22  C   UNL     1      32.007 -12.701 -22.490  0.00  0.00    +0.159 C 
BRANCH  22  23
ATOM     23  O   UNL     1      31.567 -11.506 -21.867  0.00  0.00    -0.273 OA
BRANCH  23  24
ATOM     24  P   UNL     1      32.072 -10.072 -22.420  0.00  0.00    +0.484 P 
ATOM     25  O   UNL     1      33.262 -10.133 -23.333  0.00  0.00    -0.227 OA
BRANCH  24  26
ATOM     26  O   UNL     1      30.755  -9.408 -23.084  0.00  0.00    -0.302 OA
ATOM     27  H   UNL     1      30.083 -10.093 -23.223  0.00  0.00    +0.222 HD
ENDBRANCH  24  26
BRANCH  24  28
ATOM     28  O   UNL     1      32.303  -9.183 -21.090  0.00  0.00    -0.186 OA
BRANCH  28  29
ATOM     29  P   UNL     1      32.659  -7.616 -20.911  0.00  0.00    +0.481 P 
ATOM     30  O   UNL     1      32.961  -7.199 -19.502  0.00  0.00    -0.227 OA
BRANCH  29  31
ATOM     31  O   UNL     1      33.855  -7.381 -21.973  0.00  0.00    -0.302 OA
ATOM     32  H   UNL     1      33.990  -8.189 -22.492  0.00  0.00    +0.222 HD
ENDBRANCH  29  31
BRANCH  29  33
ATOM     33  O   UNL     1      31.397  -6.874 -21.594  0.00  0.00    -0.302 OA
ATOM     34  H   UNL     1      31.034  -6.219 -20.978  0.00  0.00    +0.222 HD
ENDBRANCH  29  33
ENDBRANCH  28  29
ENDBRANCH  24  28
ENDBRANCH  23  24
ENDBRANCH  22  23
ENDBRANCH  21  22
ENDBRANCH   4  21
TORSDOF 12
ENDMDL
MODEL 2
REMARK VINA RESULT:      -8.5      6.614      9.499
REMARK  Name = 4369479
REMARK  12 active torsions:
REMARK  status: ('A' for Active; 'I' for Inactive)
REMARK    1  A    between atoms: N_2  and  C_10
REMARK    2  A    between atoms: C_4  and  C_21
REMARK    3  A    between atoms: C_5  and  C_8
REMARK    4  A    between atoms: C_10  and  C_14
REMARK    5  A    between atoms: C_21  and  C_22
REMARK    6  A    between atoms: C_22  and  O_23
REMARK    7  A    between atoms: O_23  and  P_24
REMARK    8  A    between atoms: P_24  and  O_26
REMARK    9  A    between atoms: P_24  and  O_28
REMARK   10  A    between atoms: O_28  and  P_29
REMARK   11  A    between atoms: P_29  and  O_31
REMARK   12  A    between atoms: P_29  and  O_33
REMARK                            x       y       z     vdW  Elec       q    Type
REMARK                         _______ _______ _______ _____ _____    ______ ____
ROOT
ATOM      1  S   UNL     1      33.459 -23.231 -17.717  0.00  0.00    -0.090 S 
ATOM      2  N   UNL     1      35.163 -22.660 -15.969  0.00  0.00    -0.293 N 
ATOM      3  C   UNL     1      35.713 -22.205 -17.146  0.00  0.00    +0.028 C 
ATOM      4  C   UNL     1      34.894 -22.447 -18.194  0.00  0.00    +0.017 C 
ATOM      5  C   UNL     1      33.981 -23.226 -16.088  0.00  0.00    +0.184 C 
ATOM      6  C   UNL     1      37.033 -21.559 -17.096  0.00  0.00    +0.047 C 
ENDROOT
BRANCH   5   8
ATOM      7  O   UNL     1      33.370 -24.913 -14.528  0.00  0.00    -0.293 OA
ATOM      8  C   UNL     1      33.178 -23.785 -15.054  0.00  0.00    +0.180 C 
ATOM      9  C   UNL     1      31.980 -23.001 -14.502  0.00  0.00    +0.075 C 
ENDBRANCH   5   8
BRANCH   2  10
ATOM     10  C   UNL     1      35.825 -22.530 -14.690  0.00  0.00    +0.124 C 
BRANCH  10  14
ATOM     11  N   UNL     1      37.894 -25.537 -13.707  0.00  0.00    -0.340 NA
ATOM     12  N   UNL     1      39.126 -24.217 -15.303  0.00  0.00    -0.186 NA
ATOM     13  N   UNL     1      35.732 -24.857 -13.008  0.00  0.00    -0.332 N 
ATOM     14  C   UNL     1      36.946 -23.531 -14.598  0.00  0.00    +0.062 C 
ATOM     15  C   UNL     1      36.892 -24.638 -13.793  0.00  0.00    +0.187 C 
ATOM     16  C   UNL     1      38.085 -23.358 -15.339  0.00  0.00    +0.111 C 
ATOM     17  C   UNL     1      38.965 -25.269 -14.478  0.00  0.00    +0.066 C 
ATOM     18  C   UNL     1      40.094 -26.241 -14.411  0.00  0.00    +0.129 C 
ATOM     19  H   UNL     1      35.675 -25.647 -12.424  0.00  0.00    +0.145 HD
ATOM     20  H   UNL     1      34.983 -24.220 -13.048  0.00  0.00    +0.145 HD
ENDBRANCH  10  14
ENDBRANCH   2  10
BRANCH   4  21
ATOM     21  C   UNL     1      35.099 -22.118 -19.654  0.00  0.00    +0.066 C 
BRANCH  21  22
ATOM     22  C   UNL     1      34.647 -20.701 -19.991  0.00  0.00    +0.159 C 
BRANCH  22  23
ATOM     23  O   UNL     1      35.761 -19.868 -20.263  0.00  0.00    -0.273 OA
BRANCH  23  24
ATOM     24  P   UNL     1      35.657 -18.722 -21.400  0.00  0.00    +0.484 P 
ATOM     25  O   UNL     1      36.872 -18.586 -22.270  0.00  0.00    -0.227 OA
BRANCH  24  26
ATOM     26  O   UNL     1      34.297 -19.072 -22.203  0.00  0.00    -0.302 OA
ATOM     27  H   UNL     1      34.059 -18.327 -22.777  0.00  0.00    +0.222 HD
ENDBRANCH  24  26
BRANCH  24  28
ATOM     28  O   UNL     1      35.271 -17.378 -20.589  0.00  0.00    -0.186 OA
BRANCH  28  29
ATOM     29  P   UNL     1      34.557 -16.013 -21.077  0.00  0.00    +0.481 P 
ATOM     30  O   UNL     1      34.905 -14.799 -20.268  0.00  0.00    -0.227 OA
BRANCH  29  31
ATOM     31  O   UNL     1      34.939 -15.933 -22.646  0.00  0.00    -0.302 OA
ATOM     32  H   UNL     1      35.846 -15.605 -22.741  0.00  0.00    +0.222 HD
ENDBRANCH  29  31
BRANCH  29  33
ATOM     33  O   UNL     1      32.989 -16.405 -21.091  0.00  0.00    -0.302 OA
ATOM     34  H   UNL     1      32.469 -15.676 -20.719  0.00  0.00    +0.222 HD
ENDBRANCH  29  33
ENDBRANCH  28  29
ENDBRANCH  24  28
ENDBRANCH  23  24
ENDBRANCH  22  23
ENDBRANCH  21  22
ENDBRANCH   4  21
TORSDOF 12
ENDMDL
MODEL 3
REMARK VINA RESULT:      -8.3      5.701      9.406
REMARK  Name = 4369479
REMARK  12 active torsions:
REMARK  status: ('A' for Active; 'I' for Inactive)
REMARK    1  A    between atoms: N_2  and  C_10
REMARK    2  A    between atoms: C_4  and  C_21
REMARK    3  A    between atoms: C_5  and  C_8
REMARK    4  A    between atoms: C_10  and  C_14
REMARK    5  A    between atoms: C_21  and  C_22
REMARK    6  A    between atoms: C_22  and  O_23
REMARK    7  A    between atoms: O_23  and  P_24
REMARK    8  A    between atoms: P_24  and  O_26
REMARK    9  A    between atoms: P_24  and  O_28
REMARK   10  A    between atoms: O_28  and  P_29
REMARK   11  A    between atoms: P_29  and  O_31
REMARK   12  A    between atoms: P_29  and  O_33
REMARK                            x       y       z     vdW  Elec       q    Type
REMARK                         _______ _______ _______ _____ _____    ______ ____
ROOT
ATOM      1  S   UNL     1      34.544 -15.706 -23.652  0.00  0.00    -0.090 S 
ATOM      2  N   UNL     1      32.902 -13.865 -23.210  0.00  0.00    -0.293 N 
ATOM      3  C   UNL     1      33.283 -14.293 -21.958  0.00  0.00    +0.028 C 
ATOM      4  C   UNL     1      34.181 -15.300 -22.038  0.00  0.00    +0.017 C 
ATOM      5  C   UNL     1      33.469 -14.501 -24.213  0.00  0.00    +0.184 C 
ATOM      6  C   UNL     1      32.693 -13.631 -20.784  0.00  0.00    +0.047 C 
ENDROOT
BRANCH   5   8
ATOM      7  O   UNL     1      33.513 -13.194 -26.199  0.00  0.00    -0.293 OA
ATOM      8  C   UNL     1      33.270 -14.278 -25.605  0.00  0.00    +0.180 C 
ATOM      9  C   UNL     1      32.722 -15.404 -26.492  0.00  0.00    +0.075 C 
ENDBRANCH   5   8
BRANCH   2  10
ATOM     10  C   UNL     1      31.950 -12.797 -23.419  0.00  0.00    +0.124 C 
BRANCH  10  14
ATOM     11  N   UNL     1      32.846  -9.209 -22.632  0.00  0.00    -0.340 NA
ATOM     12  N   UNL     1      34.507 -10.133 -24.113  0.00  0.00    -0.186 NA
ATOM     13  N   UNL     1      31.017 -10.537 -21.911  0.00  0.00    -0.332 N 
ATOM     14  C   UNL     1      32.663 -11.472 -23.386  0.00  0.00    +0.062 C 
ATOM     15  C   UNL     1      32.210 -10.399 -22.663  0.00  0.00    +0.187 C 
ATOM     16  C   UNL     1      33.820 -11.295 -24.099  0.00  0.00    +0.111 C 
ATOM     17  C   UNL     1      33.971  -9.147 -23.368  0.00  0.00    +0.066 C 
ATOM     18  C   UNL     1      34.702  -7.848 -23.358  0.00  0.00    +0.129 C 
ATOM     19  H   UNL     1      30.676  -9.778 -21.385  0.00  0.00    +0.145 HD
ATOM     20  H   UNL     1      30.530 -11.392 -21.913  0.00  0.00    +0.145 HD
ENDBRANCH  10  14
ENDBRANCH   2  10
BRANCH   4  21
ATOM     21  C   UNL     1      34.858 -16.059 -20.920  0.00  0.00    +0.066 C 
BRANCH  21  22
ATOM     22  C   UNL     1      35.328 -17.439 -21.368  0.00  0.00    +0.159 C 
BRANCH  22  23
ATOM     23  O   UNL     1      34.908 -18.436 -20.453  0.00  0.00    -0.273 OA
BRANCH  23  24
ATOM     24  P   UNL     1      34.181 -19.777 -20.993  0.00  0.00    +0.484 P 
ATOM     25  O   UNL     1      32.684 -19.766 -20.890  0.00  0.00    -0.227 OA
BRANCH  24  26
ATOM     26  O   UNL     1      34.745 -19.963 -22.498  0.00  0.00    -0.302 OA
ATOM     27  H   UNL     1      34.043 -20.322 -23.064  0.00  0.00    +0.222 HD
ENDBRANCH  24  26
BRANCH  24  28
ATOM     28  O   UNL     1      34.892 -20.980 -20.181  0.00  0.00    -0.186 OA
BRANCH  28  29
ATOM     29  P   UNL     1      34.265 -22.167 -19.281  0.00  0.00    +0.481 P 
ATOM     30  O   UNL     1      34.225 -23.508 -19.953  0.00  0.00    -0.227 OA
BRANCH  29  31
ATOM     31  O   UNL     1      35.133 -22.102 -17.919  0.00  0.00    -0.302 OA
ATOM     32  H   UNL     1      34.803 -22.764 -17.293  0.00  0.00    +0.222 HD
ENDBRANCH  29  31
BRANCH  29  33
ATOM     33  O   UNL     1      32.828 -21.574 -18.841  0.00  0.00    -0.302 OA
ATOM     34  H   UNL     1      32.154 -21.847 -19.482  0.00  0.00    +0.222 HD
ENDBRANCH  29  33
ENDBRANCH  28  29
ENDBRANCH  24  28
ENDBRANCH  23  24
ENDBRANCH  22  23
ENDBRANCH  21  22
ENDBRANCH   4  21
TORSDOF 12
ENDMDL
MODEL 4
REMARK VINA RESULT:      -8.1      7.323     10.400
REMARK  Name = 4369479
REMARK  12 active torsions:
REMARK  status: ('A' for Active; 'I' for Inactive)
REMARK    1  A    between atoms: N_2  and  C_10
REMARK    2  A    between atoms: C_4  and  C_21
REMARK    3  A    between atoms: C_5  and  C_8
REMARK    4  A    between atoms: C_10  and  C_14
REMARK    5  A    between atoms: C_21  and  C_22
REMARK    6  A    between atoms: C_22  and  O_23
REMARK    7  A    between atoms: O_23  and  P_24
REMARK    8  A    between atoms: P_24  and  O_26
REMARK    9  A    between atoms: P_24  and  O_28
REMARK   10  A    between atoms: O_28  and  P_29
REMARK   11  A    between atoms: P_29  and  O_31
REMARK   12  A    between atoms: P_29  and  O_33
REMARK                            x       y       z     vdW  Elec       q    Type
REMARK                         _______ _______ _______ _____ _____    ______ ____
ROOT
ATOM      1  S   UNL     1      33.462 -23.117 -17.161  0.00  0.00    -0.090 S 
ATOM      2  N   UNL     1      35.038 -23.303 -15.220  0.00  0.00    -0.293 N 
ATOM      3  C   UNL     1      35.795 -22.745 -16.225  0.00  0.00    +0.028 C 
ATOM      4  C   UNL     1      35.067 -22.582 -17.353  0.00  0.00    +0.017 C 
ATOM      5  C   UNL     1      33.789 -23.562 -15.542  0.00  0.00    +0.184 C 
ATOM      6  C   UNL     1      37.203 -22.426 -15.944  0.00  0.00    +0.047 C 
ENDROOT
BRANCH   5   8
ATOM      7  O   UNL     1      32.734 -25.348 -14.379  0.00  0.00    -0.293 OA
ATOM      8  C   UNL     1      32.781 -24.135 -14.716  0.00  0.00    +0.180 C 
ATOM      9  C   UNL     1      31.647 -23.258 -14.168  0.00  0.00    +0.075 C 
ENDBRANCH   5   8
BRANCH   2  10
ATOM     10  C   UNL     1      35.566 -23.587 -13.905  0.00  0.00    +0.124 C 
BRANCH  10  14
ATOM     11  N   UNL     1      38.064 -26.303 -14.725  0.00  0.00    -0.340 NA
ATOM     12  N   UNL     1      39.206 -24.479 -13.641  0.00  0.00    -0.186 NA
ATOM     13  N   UNL     1      35.726 -26.188 -15.112  0.00  0.00    -0.332 N 
ATOM     14  C   UNL     1      36.849 -24.363 -14.031  0.00  0.00    +0.062 C 
ATOM     15  C   UNL     1      36.915 -25.604 -14.610  0.00  0.00    +0.187 C 
ATOM     16  C   UNL     1      38.022 -23.836 -13.558  0.00  0.00    +0.111 C 
ATOM     17  C   UNL     1      39.154 -25.690 -14.227  0.00  0.00    +0.066 C 
ATOM     18  C   UNL     1      40.443 -26.432 -14.337  0.00  0.00    +0.129 C 
ATOM     19  H   UNL     1      35.755 -27.078 -15.531  0.00  0.00    +0.145 HD
ATOM     20  H   UNL     1      34.872 -25.703 -15.044  0.00  0.00    +0.145 HD
ENDBRANCH  10  14
ENDBRANCH   2  10
BRANCH   4  21
ATOM     21  C   UNL     1      35.496 -22.011 -18.685  0.00  0.00    +0.066 C 
BRANCH  21  22
ATOM     22  C   UNL     1      34.309 -21.504 -19.499  0.00  0.00    +0.159 C 
BRANCH  22  23
ATOM     23  O   UNL     1      34.749 -20.850 -20.676  0.00  0.00    -0.273 OA
BRANCH  23  24
ATOM     24  P   UNL     1      34.115 -19.421 -21.094  0.00  0.00    +0.484 P 
ATOM     25  O   UNL     1      32.713 -19.190 -20.610  0.00  0.00    -0.227 OA
BRANCH  24  26
ATOM     26  O   UNL     1      35.189 -18.332 -20.569  0.00  0.00    -0.302 OA
ATOM     27  H   UNL     1      35.817 -18.762 -19.967  0.00  0.00    +0.222 HD
ENDBRANCH  24  26
BRANCH  24  28
ATOM     28  O   UNL     1      34.279 -19.358 -22.701  0.00  0.00    -0.186 OA
BRANCH  28  29
ATOM     29  P   UNL     1      34.917 -18.222 -23.657  0.00  0.00    +0.481 P 
ATOM     30  O   UNL     1      34.630 -18.399 -25.119  0.00  0.00    -0.227 OA
BRANCH  29  31
ATOM     31  O   UNL     1      34.380 -16.842 -23.008  0.00  0.00    -0.302 OA
ATOM     32  H   UNL     1      33.929 -16.319 -23.688  0.00  0.00    +0.222 HD
ENDBRANCH  29  31
BRANCH  29  33
ATOM     33  O   UNL     1      36.482 -18.242 -23.255  0.00  0.00    -0.302 OA
ATOM     34  H   UNL     1      36.934 -18.946 -23.747  0.00  0.00    +0.222 HD
ENDBRANCH  29  33
ENDBRANCH  28  29
ENDBRANCH  24  28
ENDBRANCH  23  24
ENDBRANCH  22  23
ENDBRANCH  21  22
ENDBRANCH   4  21
TORSDOF 12
ENDMDL
MODEL 5
REMARK VINA RESULT:      -8.0      5.307      8.908
REMARK  Name = 4369479
REMARK  12 active torsions:
REMARK  status: ('A' for Active; 'I' for Inactive)
REMARK    1  A    between atoms: N_2  and  C_10
REMARK    2  A    between atoms: C_4  and  C_21
REMARK    3  A    between atoms: C_5  and  C_8
REMARK    4  A    between atoms: C_10  and  C_14
REMARK    5  A    between atoms: C_21  and  C_22
REMARK    6  A    between atoms: C_22  and  O_23
REMARK    7  A    between atoms: O_23  and  P_24
REMARK    8  A    between atoms: P_24  and  O_26
REMARK    9  A    between atoms: P_24  and  O_28
REMARK   10  A    between atoms: O_28  and  P_29
REMARK   11  A    between atoms: P_29  and  O_31
REMARK   12  A    between atoms: P_29  and  O_33
REMARK                            x       y       z     vdW  Elec       q    Type
REMARK                         _______ _______ _______ _____ _____    ______ ____
ROOT
ATOM      1  S   UNL     1      34.349 -15.256 -23.356  0.00  0.00    -0.090 S 
ATOM      2  N   UNL     1      32.799 -13.299 -23.134  0.00  0.00    -0.293 N 
ATOM      3  C   UNL     1      33.071 -13.669 -21.837  0.00  0.00    +0.028 C 
ATOM      4  C   UNL     1      33.908 -14.730 -21.796  0.00  0.00    +0.017 C 
ATOM      5  C   UNL     1      33.388 -14.027 -24.058  0.00  0.00    +0.184 C 
ATOM      6  C   UNL     1      32.448 -12.903 -20.747  0.00  0.00    +0.047 C 
ENDROOT
BRANCH   5   8
ATOM      7  O   UNL     1      33.623 -12.845 -26.107  0.00  0.00    -0.293 OA
ATOM      8  C   UNL     1      33.294 -13.881 -25.470  0.00  0.00    +0.180 C 
ATOM      9  C   UNL     1      32.761 -15.036 -26.329  0.00  0.00    +0.075 C 
ENDBRANCH   5   8
BRANCH   2  10
ATOM     10  C   UNL     1      31.930 -12.192 -23.470  0.00  0.00    +0.124 C 
BRANCH  10  14
ATOM     11  N   UNL     1      32.937  -8.615 -22.778  0.00  0.00    -0.340 NA
ATOM     12  N   UNL     1      34.701  -9.711 -23.998  0.00  0.00    -0.186 NA
ATOM     13  N   UNL     1      30.962  -9.800 -22.209  0.00  0.00    -0.332 N 
ATOM     14  C   UNL     1      32.710 -10.906 -23.425  0.00  0.00    +0.062 C 
ATOM     15  C   UNL     1      32.240  -9.769 -22.820  0.00  0.00    +0.187 C 
ATOM     16  C   UNL     1      33.951 -10.833 -24.003  0.00  0.00    +0.111 C 
ATOM     17  C   UNL     1      34.142  -8.656 -23.377  0.00  0.00    +0.066 C 
ATOM     18  C   UNL     1      34.941  -7.398 -23.350  0.00  0.00    +0.129 C 
ATOM     19  H   UNL     1      30.608  -8.993 -21.770  0.00  0.00    +0.145 HD
ATOM     20  H   UNL     1      30.429 -10.627 -22.222  0.00  0.00    +0.145 HD
ENDBRANCH  10  14
ENDBRANCH   2  10
BRANCH   4  21
ATOM     21  C   UNL     1      34.463 -15.455 -20.593  0.00  0.00    +0.066 C 
BRANCH  21  22
ATOM     22  C   UNL     1      34.997 -16.838 -20.954  0.00  0.00    +0.159 C 
BRANCH  22  23
ATOM     23  O   UNL     1      33.957 -17.800 -20.935  0.00  0.00    -0.273 OA
BRANCH  23  24
ATOM     24  P   UNL     1      34.241 -19.309 -21.447  0.00  0.00    +0.484 P 
ATOM     25  O   UNL     1      35.621 -19.823 -21.156  0.00  0.00    -0.227 OA
BRANCH  24  26
ATOM     26  O   UNL     1      33.050 -20.187 -20.795  0.00  0.00    -0.302 OA
ATOM     27  H   UNL     1      33.366 -20.603 -19.977  0.00  0.00    +0.222 HD
ENDBRANCH  24  26
BRANCH  24  28
ATOM     28  O   UNL     1      33.863 -19.283 -23.019  0.00  0.00    -0.186 OA
BRANCH  28  29
ATOM     29  P   UNL     1      34.765 -18.960 -24.321  0.00  0.00    +0.481 P 
ATOM     30  O   UNL     1      34.120 -18.043 -25.318  0.00  0.00    -0.227 OA
BRANCH  29  31
ATOM     31  O   UNL     1      36.155 -18.428 -23.689  0.00  0.00    -0.302 OA
ATOM     32  H   UNL     1      35.966 -17.839 -22.943  0.00  0.00    +0.222 HD
ENDBRANCH  29  31
BRANCH  29  33
ATOM     33  O   UNL     1      35.143 -20.429 -24.878  0.00  0.00    -0.302 OA
ATOM     34  H   UNL     1      35.640 -20.343 -25.706  0.00  0.00    +0.222 HD
ENDBRANCH  29  33
ENDBRANCH  28  29
ENDBRANCH  24  28
ENDBRANCH  23  24
ENDBRANCH  22  23
ENDBRANCH  21  22
ENDBRANCH   4  21
TORSDOF 12
ENDMDL
MODEL 6
REMARK VINA RESULT:      -8.0      4.904      9.453
REMARK  Name = 4369479
REMARK  12 active torsions:
REMARK  status: ('A' for Active; 'I' for Inactive)
REMARK    1  A    between atoms: N_2  and  C_10
REMARK    2  A    between atoms: C_4  and  C_21
REMARK    3  A    between atoms: C_5  and  C_8
REMARK    4  A    between atoms: C_10  and  C_14
REMARK    5  A    between atoms: C_21  and  C_22
REMARK    6  A    between atoms: C_22  and  O_23
REMARK    7  A    between atoms: O_23  and  P_24
REMARK    8  A    between atoms: P_24  and  O_26
REMARK    9  A    between atoms: P_24  and  O_28
REMARK   10  A    between atoms: O_28  and  P_29
REMARK   11  A    between atoms: P_29  and  O_31
REMARK   12  A    between atoms: P_29  and  O_33
REMARK                            x       y       z     vdW  Elec       q    Type
REMARK                         _______ _______ _______ _____ _____    ______ ____
ROOT
ATOM      1  S   UNL     1      32.930 -13.876 -20.351  0.00  0.00    -0.090 S 
ATOM      2  N   UNL     1      32.451 -12.776 -22.552  0.00  0.00    -0.293 N 
ATOM      3  C   UNL     1      33.284 -13.825 -22.867  0.00  0.00    +0.028 C 
ATOM      4  C   UNL     1      33.633 -14.522 -21.762  0.00  0.00    +0.017 C 
ATOM      5  C   UNL     1      32.163 -12.657 -21.273  0.00  0.00    +0.184 C 
ATOM      6  C   UNL     1      33.653 -14.025 -24.277  0.00  0.00    +0.047 C 
ENDROOT
BRANCH   5   8
ATOM      7  O   UNL     1      30.150 -11.422 -21.001  0.00  0.00    -0.293 OA
ATOM      8  C   UNL     1      31.335 -11.677 -20.658  0.00  0.00    +0.180 C 
ATOM      9  C   UNL     1      31.873 -10.840 -19.489  0.00  0.00    +0.075 C 
ENDBRANCH   5   8
BRANCH   2  10
ATOM     10  C   UNL     1      31.925 -11.866 -23.544  0.00  0.00    +0.124 C 
BRANCH  10  14
ATOM     11  N   UNL     1      33.015  -8.256 -23.277  0.00  0.00    -0.340 NA
ATOM     12  N   UNL     1      34.884  -9.596 -23.996  0.00  0.00    -0.186 NA
ATOM     13  N   UNL     1      30.909  -9.267 -22.862  0.00  0.00    -0.332 N 
ATOM     14  C   UNL     1      32.761 -10.615 -23.577  0.00  0.00    +0.062 C 
ATOM     15  C   UNL     1      32.268  -9.379 -23.249  0.00  0.00    +0.187 C 
ATOM     16  C   UNL     1      34.080 -10.679 -23.946  0.00  0.00    +0.111 C 
ATOM     17  C   UNL     1      34.295  -8.434 -23.653  0.00  0.00    +0.066 C 
ATOM     18  C   UNL     1      35.152  -7.215 -23.697  0.00  0.00    +0.129 C 
ATOM     19  H   UNL     1      30.537  -8.388 -22.623  0.00  0.00    +0.145 HD
ATOM     20  H   UNL     1      30.338 -10.068 -22.831  0.00  0.00    +0.145 HD
ENDBRANCH  10  14
ENDBRANCH   2  10
BRANCH   4  21
ATOM     21  C   UNL     1      34.523 -15.738 -21.648  0.00  0.00    +0.066 C 
BRANCH  21  22
ATOM     22  C   UNL     1      33.788 -16.931 -21.045  0.00  0.00    +0.159 C 
BRANCH  22  23
ATOM     23  O   UNL     1      34.700 -17.952 -20.679  0.00  0.00    -0.273 OA
BRANCH  23  24
ATOM     24  P   UNL     1      34.447 -19.475 -21.161  0.00  0.00    +0.484 P 
ATOM     25  O   UNL     1      35.591 -20.413 -20.911  0.00  0.00    -0.227 OA
BRANCH  24  26
ATOM     26  O   UNL     1      33.064 -19.903 -20.438  0.00  0.00    -0.302 OA
ATOM     27  H   UNL     1      32.316 -19.506 -20.910  0.00  0.00    +0.222 HD
ENDBRANCH  24  26
BRANCH  24  28
ATOM     28  O   UNL     1      34.025 -19.345 -22.716  0.00  0.00    -0.186 OA
BRANCH  28  29
ATOM     29  P   UNL     1      34.901 -18.982 -24.025  0.00  0.00    +0.481 P 
ATOM     30  O   UNL     1      35.079 -20.114 -24.993  0.00  0.00    -0.227 OA
BRANCH  29  31
ATOM     31  O   UNL     1      34.160 -17.673 -24.618  0.00  0.00    -0.302 OA
ATOM     32  H   UNL     1      33.470 -17.948 -25.242  0.00  0.00    +0.222 HD
ENDBRANCH  29  31
BRANCH  29  33
ATOM     33  O   UNL     1      36.267 -18.389 -23.398  0.00  0.00    -0.302 OA
ATOM     34  H   UNL     1      36.839 -18.068 -24.113  0.00  0.00    +0.222 HD
ENDBRANCH  29  33
ENDBRANCH  28  29
ENDBRANCH  24  28
ENDBRANCH  23  24
ENDBRANCH  22  23
ENDBRANCH  21  22
ENDBRANCH   4  21
TORSDOF 12
ENDMDL
MODEL 7
REMARK VINA RESULT:      -7.9      7.054     10.003
REMARK  Name = 4369479
REMARK  12 active torsions:
REMARK  status: ('A' for Active; 'I' for Inactive)
REMARK    1  A    between atoms: N_2  and  C_10
REMARK    2  A    between atoms: C_4  and  C_21
REMARK    3  A    between atoms: C_5  and  C_8
REMARK    4  A    between atoms: C_10  and  C_14
REMARK    5  A    between atoms: C_21  and  C_22
REMARK    6  A    between atoms: C_22  and  O_23
REMARK    7  A    between atoms: O_23  and  P_24
REMARK    8  A    between atoms: P_24  and  O_26
REMARK    9  A    between atoms: P_24  and  O_28
REMARK   10  A    between atoms: O_28  and  P_29
REMARK   11  A    between atoms: P_29  and  O_31
REMARK   12  A    between atoms: P_29  and  O_33
REMARK                            x       y       z     vdW  Elec       q    Type
REMARK                         _______ _______ _______ _____ _____    ______ ____
ROOT
ATOM      1  S   UNL     1      32.753 -17.973 -20.795  0.00  0.00    -0.090 S 
ATOM      2  N   UNL     1      34.451 -16.640 -22.068  0.00  0.00    -0.293 N 
ATOM      3  C   UNL     1      34.916 -17.934 -22.128  0.00  0.00    +0.028 C 
ATOM      4  C   UNL     1      34.090 -18.781 -21.474  0.00  0.00    +0.017 C 
ATOM      5  C   UNL     1      33.325 -16.481 -21.405  0.00  0.00    +0.184 C 
ATOM      6  C   UNL     1      36.169 -18.193 -22.852  0.00  0.00    +0.047 C 
ENDROOT
BRANCH   5   8
ATOM      7  O   UNL     1      31.850 -14.720 -22.015  0.00  0.00    -0.293 OA
ATOM      8  C   UNL     1      32.614 -15.269 -21.178  0.00  0.00    +0.180 C 
ATOM      9  C   UNL     1      32.752 -14.536 -19.837  0.00  0.00    +0.075 C 
ENDBRANCH   5   8
BRANCH   2  10
ATOM     10  C   UNL     1      35.140 -15.528 -22.685  0.00  0.00    +0.124 C 
BRANCH  10  14
ATOM     11  N   UNL     1      33.303 -13.477 -25.274  0.00  0.00    -0.340 NA
ATOM     12  N   UNL     1      33.560 -15.731 -26.087  0.00  0.00    -0.186 NA
ATOM     13  N   UNL     1      34.154 -12.870 -23.145  0.00  0.00    -0.332 N 
ATOM     14  C   UNL     1      34.418 -15.119 -23.940  0.00  0.00    +0.062 C 
ATOM     15  C   UNL     1      33.951 -13.847 -24.150  0.00  0.00    +0.187 C 
ATOM     16  C   UNL     1      34.200 -16.033 -24.938  0.00  0.00    +0.111 C 
ATOM     17  C   UNL     1      33.145 -14.454 -26.187  0.00  0.00    +0.066 C 
ATOM     18  C   UNL     1      32.433 -14.082 -27.443  0.00  0.00    +0.129 C 
ATOM     19  H   UNL     1      33.826 -11.952 -23.279  0.00  0.00    +0.145 HD
ATOM     20  H   UNL     1      34.624 -13.109 -22.313  0.00  0.00    +0.145 HD
ENDBRANCH  10  14
ENDBRANCH   2  10
BRANCH   4  21
ATOM     21  C   UNL     1      34.214 -20.276 -21.291  0.00  0.00    +0.066 C 
BRANCH  21  22
ATOM     22  C   UNL     1      33.387 -20.779 -20.113  0.00  0.00    +0.159 C 
BRANCH  22  23
ATOM     23  O   UNL     1      34.210 -21.428 -19.160  0.00  0.00    -0.273 OA
BRANCH  23  24
ATOM     24  P   UNL     1      33.663 -22.730 -18.369  0.00  0.00    +0.484 P 
ATOM     25  O   UNL     1      32.248 -22.621 -17.882  0.00  0.00    -0.227 OA
BRANCH  24  26
ATOM     26  O   UNL     1      33.926 -23.960 -19.386  0.00  0.00    -0.302 OA
ATOM     27  H   UNL     1      34.488 -24.622 -18.954  0.00  0.00    +0.222 HD
ENDBRANCH  24  26
BRANCH  24  28
ATOM     28  O   UNL     1      34.749 -22.980 -17.198  0.00  0.00    -0.186 OA
BRANCH  28  29
ATOM     29  P   UNL     1      34.595 -23.654 -15.737  0.00  0.00    +0.481 P 
ATOM     30  O   UNL     1      35.343 -24.942 -15.559  0.00  0.00    -0.227 OA
BRANCH  29  31
ATOM     31  O   UNL     1      35.021 -22.462 -14.730  0.00  0.00    -0.302 OA
ATOM     32  H   UNL     1      35.356 -22.842 -13.903  0.00  0.00    +0.222 HD
ENDBRANCH  29  31
BRANCH  29  33
ATOM     33  O   UNL     1      32.994 -23.754 -15.546  0.00  0.00    -0.302 OA
ATOM     34  H   UNL     1      32.551 -23.316 -16.289  0.00  0.00    +0.222 HD
ENDBRANCH  29  33
ENDBRANCH  28  29
ENDBRANCH  24  28
ENDBRANCH  23  24
ENDBRANCH  22  23
ENDBRANCH  21  22
ENDBRANCH   4  21
TORSDOF 12
ENDMDL
MODEL 8
REMARK VINA RESULT:      -7.9      5.696      9.924
REMARK  Name = 4369479
REMARK  12 active torsions:
REMARK  status: ('A' for Active; 'I' for Inactive)
REMARK    1  A    between atoms: N_2  and  C_10
REMARK    2  A    between atoms: C_4  and  C_21
REMARK    3  A    between atoms: C_5  and  C_8
REMARK    4  A    between atoms: C_10  and  C_14
REMARK    5  A    between atoms: C_21  and  C_22
REMARK    6  A    between atoms: C_22  and  O_23
REMARK    7  A    between atoms: O_23  and  P_24
REMARK    8  A    between atoms: P_24  and  O_26
REMARK    9  A    between atoms: P_24  and  O_28
REMARK   10  A    between atoms: O_28  and  P_29
REMARK   11  A    between atoms: P_29  and  O_31
REMARK   12  A    between atoms: P_29  and  O_33
REMARK                            x       y       z     vdW  Elec       q    Type
REMARK                         _______ _______ _______ _____ _____    ______ ____
ROOT
ATOM      1  S   UNL     1      32.986 -14.113 -20.659  0.00  0.00    -0.090 S 
ATOM      2  N   UNL     1      32.461 -12.851 -22.760  0.00  0.00    -0.293 N 
ATOM      3  C   UNL     1      33.284 -13.874 -23.172  0.00  0.00    +0.028 C 
ATOM      4  C   UNL     1      33.656 -14.652 -22.130  0.00  0.00    +0.017 C 
ATOM      5  C   UNL     1      32.201 -12.828 -21.470  0.00  0.00    +0.184 C 
ATOM      6  C   UNL     1      33.622 -13.967 -24.600  0.00  0.00    +0.047 C 
ENDROOT
BRANCH   5   8
ATOM      7  O   UNL     1      30.228 -11.552 -21.110  0.00  0.00    -0.293 OA
ATOM      8  C   UNL     1      31.389 -11.896 -20.765  0.00  0.00    +0.180 C 
ATOM      9  C   UNL     1      31.916 -11.232 -19.485  0.00  0.00    +0.075 C 
ENDBRANCH   5   8
BRANCH   2  10
ATOM     10  C   UNL     1      31.914 -11.868 -23.669  0.00  0.00    +0.124 C 
BRANCH  10  14
ATOM     11  N   UNL     1      33.027  -8.283 -23.226  0.00  0.00    -0.340 NA
ATOM     12  N   UNL     1      34.894  -9.603 -23.987  0.00  0.00    -0.186 NA
ATOM     13  N   UNL     1      30.910  -9.296 -22.878  0.00  0.00    -0.332 N 
ATOM     14  C   UNL     1      32.760 -10.624 -23.636  0.00  0.00    +0.062 C 
ATOM     15  C   UNL     1      32.272  -9.401 -23.257  0.00  0.00    +0.187 C 
ATOM     16  C   UNL     1      34.081 -10.680 -23.995  0.00  0.00    +0.111 C 
ATOM     17  C   UNL     1      34.310  -8.453 -23.598  0.00  0.00    +0.066 C 
ATOM     18  C   UNL     1      35.175  -7.240 -23.576  0.00  0.00    +0.129 C 
ATOM     19  H   UNL     1      30.542  -8.426 -22.603  0.00  0.00    +0.145 HD
ATOM     20  H   UNL     1      30.333 -10.093 -22.890  0.00  0.00    +0.145 HD
ENDBRANCH  10  14
ENDBRANCH   2  10
BRANCH   4  21
ATOM     21  C   UNL     1      34.546 -15.873 -22.128  0.00  0.00    +0.066 C 
BRANCH  21  22
ATOM     22  C   UNL     1      34.068 -16.927 -21.134  0.00  0.00    +0.159 C 
BRANCH  22  23
ATOM     23  O   UNL     1      35.165 -17.641 -20.591  0.00  0.00    -0.273 OA
BRANCH  23  24
ATOM     24  P   UNL     1      35.575 -19.083 -21.200  0.00  0.00    +0.484 P 
ATOM     25  O   UNL     1      35.066 -19.347 -22.587  0.00  0.00    -0.227 OA
BRANCH  24  26
ATOM     26  O   UNL     1      37.185 -19.138 -21.059  0.00  0.00    -0.302 OA
ATOM     27  H   UNL     1      37.546 -19.756 -21.714  0.00  0.00    +0.222 HD
ENDBRANCH  24  26
BRANCH  24  28
ATOM     28  O   UNL     1      35.070 -20.149 -20.096  0.00  0.00    -0.186 OA
BRANCH  28  29
ATOM     29  P   UNL     1      35.829 -21.395 -19.401  0.00  0.00    +0.481 P 
ATOM     30  O   UNL     1      34.921 -22.444 -18.830  0.00  0.00    -0.227 OA
BRANCH  29  31
ATOM     31  O   UNL     1      36.838 -21.908 -20.555  0.00  0.00    -0.302 OA
ATOM     32  H   UNL     1      37.640 -22.268 -20.147  0.00  0.00    +0.222 HD
ENDBRANCH  29  31
BRANCH  29  33
ATOM     33  O   UNL     1      36.810 -20.679 -18.335  0.00  0.00    -0.302 OA
ATOM     34  H   UNL     1      37.069 -21.318 -17.653  0.00  0.00    +0.222 HD
ENDBRANCH  29  33
ENDBRANCH  28  29
ENDBRANCH  24  28
ENDBRANCH  23  24
ENDBRANCH  22  23
ENDBRANCH  21  22
ENDBRANCH   4  21
TORSDOF 12
ENDMDL
MODEL 9
REMARK VINA RESULT:      -7.9      6.068     10.302
REMARK  Name = 4369479
REMARK  12 active torsions:
REMARK  status: ('A' for Active; 'I' for Inactive)
REMARK    1  A    between atoms: N_2  and  C_10
REMARK    2  A    between atoms: C_4  and  C_21
REMARK    3  A    between atoms: C_5  and  C_8
REMARK    4  A    between atoms: C_10  and  C_14
REMARK    5  A    between atoms: C_21  and  C_22
REMARK    6  A    between atoms: C_22  and  O_23
REMARK    7  A    between atoms: O_23  and  P_24
REMARK    8  A    between atoms: P_24  and  O_26
REMARK    9  A    between atoms: P_24  and  O_28
REMARK   10  A    between atoms: O_28  and  P_29
REMARK   11  A    between atoms: P_29  and  O_31
REMARK   12  A    between atoms: P_29  and  O_33
REMARK                            x       y       z     vdW  Elec       q    Type
REMARK                         _______ _______ _______ _____ _____    ______ ____
ROOT
ATOM      1  S   UNL     1      34.399 -10.598 -24.205  0.00  0.00    -0.090 S 
ATOM      2  N   UNL     1      32.692  -9.580 -22.677  0.00  0.00    -0.293 N 
ATOM      3  C   UNL     1      32.292 -10.889 -22.814  0.00  0.00    +0.028 C 
ATOM      4  C   UNL     1      33.130 -11.575 -23.624  0.00  0.00    +0.017 C 
ATOM      5  C   UNL     1      33.781  -9.257 -23.341  0.00  0.00    +0.184 C 
ATOM      6  C   UNL     1      31.082 -11.328 -22.102  0.00  0.00    +0.047 C 
ENDROOT
BRANCH   5   8
ATOM      7  O   UNL     1      34.944  -7.410 -22.398  0.00  0.00    -0.293 OA
ATOM      8  C   UNL     1      34.425  -7.989 -23.390  0.00  0.00    +0.180 C 
ATOM      9  C   UNL     1      34.522  -7.226 -24.718  0.00  0.00    +0.075 C 
ENDBRANCH   5   8
BRANCH   2  10
ATOM     10  C   UNL     1      31.977  -8.620 -21.866  0.00  0.00    +0.124 C 
BRANCH  10  14
ATOM     11  N   UNL     1      31.525  -5.036 -22.979  0.00  0.00    -0.340 NA
ATOM     12  N   UNL     1      30.820  -6.510 -24.750  0.00  0.00    -0.186 NA
ATOM     13  N   UNL     1      32.342  -5.927 -20.938  0.00  0.00    -0.332 N 
ATOM     14  C   UNL     1      31.644  -7.408 -22.692  0.00  0.00    +0.062 C 
ATOM     15  C   UNL     1      31.822  -6.126 -22.241  0.00  0.00    +0.187 C 
ATOM     16  C   UNL     1      31.139  -7.555 -23.958  0.00  0.00    +0.111 C 
ATOM     17  C   UNL     1      31.036  -5.298 -24.206  0.00  0.00    +0.066 C 
ATOM     18  C   UNL     1      30.696  -4.118 -25.052  0.00  0.00    +0.129 C 
ATOM     19  H   UNL     1      32.477  -5.013 -20.597  0.00  0.00    +0.145 HD
ATOM     20  H   UNL     1      32.569  -6.701 -20.374  0.00  0.00    +0.145 HD
ENDBRANCH  10  14
ENDBRANCH   2  10
BRANCH   4  21
ATOM     21  C   UNL     1      33.069 -13.025 -24.044  0.00  0.00    +0.066 C 
BRANCH  21  22
ATOM     22  C   UNL     1      34.075 -13.884 -23.286  0.00  0.00    +0.159 C 
BRANCH  22  23
ATOM     23  O   UNL     1      33.461 -15.061 -22.790  0.00  0.00    -0.273 OA
BRANCH  23  24
ATOM     24  P   UNL     1      33.751 -15.549 -21.275  0.00  0.00    +0.484 P 
ATOM     25  O   UNL     1      34.944 -14.910 -20.625  0.00  0.00    -0.227 OA
BRANCH  24  26
ATOM     26  O   UNL     1      32.355 -15.300 -20.496  0.00  0.00    -0.302 OA
ATOM     27  H   UNL     1      32.090 -16.113 -20.039  0.00  0.00    +0.222 HD
ENDBRANCH  24  26
BRANCH  24  28
ATOM     28  O   UNL     1      33.835 -17.160 -21.375  0.00  0.00    -0.186 OA
BRANCH  28  29
ATOM     29  P   UNL     1      35.004 -18.127 -21.933  0.00  0.00    +0.481 P 
ATOM     30  O   UNL     1      34.515 -19.367 -22.622  0.00  0.00    -0.227 OA
BRANCH  29  31
ATOM     31  O   UNL     1      35.904 -17.139 -22.842  0.00  0.00    -0.302 OA
ATOM     32  H   UNL     1      36.150 -17.590 -23.664  0.00  0.00    +0.222 HD
ENDBRANCH  29  31
BRANCH  29  33
ATOM     33  O   UNL     1      35.923 -18.381 -20.628  0.00  0.00    -0.302 OA
ATOM     34  H   UNL     1      35.462 -18.057 -19.839  0.00  0.00    +0.222 HD
ENDBRANCH  29  33
ENDBRANCH  28  29
ENDBRANCH  24  28
ENDBRANCH  23  24
ENDBRANCH  22  23
ENDBRANCH  21  22
ENDBRANCH   4  21
TORSDOF 12
ENDMDL
