MODEL 1
REMARK VINA RESULT:      -9.7      0.000      0.000
REMARK  Name = 656936
REMARK  3 active torsions:
REMARK  status: ('A' for Active; 'I' for Inactive)
REMARK    1  A    between atoms: C_3  and  C_10
REMARK    2  A    between atoms: C_8  and  O_18
REMARK    3  A    between atoms: C_15  and  O_16
REMARK                            x       y       z     vdW  Elec       q    Type
REMARK                         _______ _______ _______ _____ _____    ______ ____
ROOT
ATOM      1  O   UNL     1      33.974 -20.107 -21.187  0.00  0.00    -0.453 OA
ATOM      2  C   UNL     1      35.683 -20.732 -19.850  0.00  0.00    +0.041 C 
ATOM      3  C   UNL     1      35.099 -19.475 -21.608  0.00  0.00    +0.145 C 
ATOM      4  C   UNL     1      34.325 -20.874 -20.117  0.00  0.00    +0.145 C 
ATOM      5  C   UNL     1      36.175 -19.822 -20.823  0.00  0.00    +0.041 C 
ATOM      6  C   UNL     1      36.234 -21.450 -18.774  0.00  0.00    +0.040 C 
ATOM      7  C   UNL     1      33.465 -21.688 -19.383  0.00  0.00    +0.041 C 
ATOM      8  C   UNL     1      35.394 -22.279 -18.018  0.00  0.00    +0.134 C 
ATOM      9  C   UNL     1      34.034 -22.394 -18.319  0.00  0.00    +0.040 C 
ENDROOT
BRANCH   3  10
ATOM     10  C   UNL     1      34.932 -18.610 -22.740  0.00  0.00    +0.035 C 
ATOM     11  C   UNL     1      34.589 -19.142 -23.988  0.00  0.00    +0.006 C 
ATOM     12  C   UNL     1      35.110 -17.230 -22.606  0.00  0.00    +0.006 C 
ATOM     13  C   UNL     1      34.426 -18.301 -25.089  0.00  0.00    +0.037 C 
ATOM     14  C   UNL     1      34.946 -16.389 -23.706  0.00  0.00    +0.037 C 
ATOM     15  C   UNL     1      34.604 -16.924 -24.948  0.00  0.00    +0.134 C 
BRANCH  15  16
ATOM     16  O   UNL     1      34.444 -16.104 -26.023  0.00  0.00    -0.506 OA
ATOM     17  H   UNL     1      33.619 -16.067 -26.465  0.00  0.00    +0.292 HD
ENDBRANCH  15  16
ENDBRANCH   3  10
BRANCH   8  18
ATOM     18  O   UNL     1      35.913 -22.982 -16.971  0.00  0.00    -0.506 OA
ATOM     19  H   UNL     1      36.101 -23.895 -17.067  0.00  0.00    +0.292 HD
ENDBRANCH   8  18
TORSDOF 3
ENDMDL
MODEL 2
REMARK VINA RESULT:      -9.7      0.035      1.172
REMARK  Name = 656936
REMARK  3 active torsions:
REMARK  status: ('A' for Active; 'I' for Inactive)
REMARK    1  A    between atoms: C_3  and  C_10
REMARK    2  A    between atoms: C_8  and  O_18
REMARK    3  A    between atoms: C_15  and  O_16
REMARK                            x       y       z     vdW  Elec       q    Type
REMARK                         _______ _______ _______ _____ _____    ______ ____
ROOT
ATOM      1  O   UNL     1      33.950 -20.106 -21.181  0.00  0.00    -0.453 OA
ATOM      2  C   UNL     1      35.653 -20.732 -19.834  0.00  0.00    +0.041 C 
ATOM      3  C   UNL     1      35.077 -19.470 -21.591  0.00  0.00    +0.145 C 
ATOM      4  C   UNL     1      34.296 -20.877 -20.111  0.00  0.00    +0.145 C 
ATOM      5  C   UNL     1      36.148 -19.817 -20.801  0.00  0.00    +0.041 C 
ATOM      6  C   UNL     1      36.198 -21.452 -18.758  0.00  0.00    +0.040 C 
ATOM      7  C   UNL     1      33.434 -21.696 -19.385  0.00  0.00    +0.041 C 
ATOM      8  C   UNL     1      35.356 -22.286 -18.009  0.00  0.00    +0.134 C 
ATOM      9  C   UNL     1      33.998 -22.404 -18.320  0.00  0.00    +0.040 C 
ENDROOT
BRANCH   3  10
ATOM     10  C   UNL     1      34.915 -18.602 -22.722  0.00  0.00    +0.035 C 
ATOM     11  C   UNL     1      35.066 -17.219 -22.576  0.00  0.00    +0.006 C 
ATOM     12  C   UNL     1      34.605 -19.132 -23.979  0.00  0.00    +0.006 C 
ATOM     13  C   UNL     1      34.908 -16.375 -23.676  0.00  0.00    +0.037 C 
ATOM     14  C   UNL     1      34.448 -18.288 -25.078  0.00  0.00    +0.037 C 
ATOM     15  C   UNL     1      34.600 -16.910 -24.927  0.00  0.00    +0.134 C 
BRANCH  15  16
ATOM     16  O   UNL     1      34.448 -16.086 -26.000  0.00  0.00    -0.506 OA
ATOM     17  H   UNL     1      33.701 -15.522 -26.055  0.00  0.00    +0.292 HD
ENDBRANCH  15  16
ENDBRANCH   3  10
BRANCH   8  18
ATOM     18  O   UNL     1      35.869 -22.991 -16.962  0.00  0.00    -0.506 OA
ATOM     19  H   UNL     1      36.238 -23.841 -17.105  0.00  0.00    +0.292 HD
ENDBRANCH   8  18
TORSDOF 3
ENDMDL
MODEL 3
REMARK VINA RESULT:      -9.6      0.988      6.875
REMARK  Name = 656936
REMARK  3 active torsions:
REMARK  status: ('A' for Active; 'I' for Inactive)
REMARK    1  A    between atoms: C_3  and  C_10
REMARK    2  A    between atoms: C_8  and  O_18
REMARK    3  A    between atoms: C_15  and  O_16
REMARK                            x       y       z     vdW  Elec       q    Type
REMARK                         _______ _______ _______ _____ _____    ______ ____
ROOT
ATOM      1  O   UNL     1      34.626 -17.946 -21.448  0.00  0.00    -0.453 OA
ATOM      2  C   UNL     1      34.553 -18.083 -23.702  0.00  0.00    +0.041 C 
ATOM      3  C   UNL     1      34.795 -19.245 -21.803  0.00  0.00    +0.145 C 
ATOM      4  C   UNL     1      34.480 -17.234 -22.601  0.00  0.00    +0.145 C 
ATOM      5  C   UNL     1      34.758 -19.385 -23.172  0.00  0.00    +0.041 C 
ATOM      6  C   UNL     1      34.422 -17.529 -24.987  0.00  0.00    +0.040 C 
ATOM      7  C   UNL     1      34.282 -15.858 -22.689  0.00  0.00    +0.041 C 
ATOM      8  C   UNL     1      34.224 -16.147 -25.107  0.00  0.00    +0.134 C 
ATOM      9  C   UNL     1      34.155 -15.328 -23.976  0.00  0.00    +0.040 C 
ENDROOT
BRANCH   3  10
ATOM     10  C   UNL     1      34.969 -20.162 -20.714  0.00  0.00    +0.035 C 
ATOM     11  C   UNL     1      36.247 -20.423 -20.209  0.00  0.00    +0.006 C 
ATOM     12  C   UNL     1      33.862 -20.802 -20.148  0.00  0.00    +0.006 C 
ATOM     13  C   UNL     1      36.416 -21.314 -19.150  0.00  0.00    +0.037 C 
ATOM     14  C   UNL     1      34.030 -21.693 -19.088  0.00  0.00    +0.037 C 
ATOM     15  C   UNL     1      35.308 -21.949 -18.589  0.00  0.00    +0.134 C 
BRANCH  15  16
ATOM     16  O   UNL     1      35.473 -22.818 -17.554  0.00  0.00    -0.506 OA
ATOM     17  H   UNL     1      34.854 -22.834 -16.852  0.00  0.00    +0.292 HD
ENDBRANCH  15  16
ENDBRANCH   3  10
BRANCH   8  18
ATOM     18  O   UNL     1      34.095 -15.594 -26.346  0.00  0.00    -0.506 OA
ATOM     19  H   UNL     1      33.498 -14.885 -26.483  0.00  0.00    +0.292 HD
ENDBRANCH   8  18
TORSDOF 3
ENDMDL
MODEL 4
REMARK VINA RESULT:      -9.3      1.923      2.624
REMARK  Name = 656936
REMARK  3 active torsions:
REMARK  status: ('A' for Active; 'I' for Inactive)
REMARK    1  A    between atoms: C_3  and  C_10
REMARK    2  A    between atoms: C_8  and  O_18
REMARK    3  A    between atoms: C_15  and  O_16
REMARK                            x       y       z     vdW  Elec       q    Type
REMARK                         _______ _______ _______ _____ _____    ______ ____
ROOT
ATOM      1  O   UNL     1      35.365 -18.761 -20.848  0.00  0.00    -0.453 OA
ATOM      2  C   UNL     1      33.758 -20.262 -20.329  0.00  0.00    +0.041 C 
ATOM      3  C   UNL     1      34.161 -18.234 -21.190  0.00  0.00    +0.145 C 
ATOM      4  C   UNL     1      35.124 -19.995 -20.322  0.00  0.00    +0.145 C 
ATOM      5  C   UNL     1      33.144 -19.112 -20.894  0.00  0.00    +0.041 C 
ATOM      6  C   UNL     1      33.312 -21.495 -19.823  0.00  0.00    +0.040 C 
ATOM      7  C   UNL     1      36.089 -20.878 -19.844  0.00  0.00    +0.041 C 
ATOM      8  C   UNL     1      34.260 -22.404 -19.334  0.00  0.00    +0.134 C 
ATOM      9  C   UNL     1      35.624 -22.099 -19.345  0.00  0.00    +0.040 C 
ENDROOT
BRANCH   3  10
ATOM     10  C   UNL     1      34.207 -16.922 -21.767  0.00  0.00    +0.035 C 
ATOM     11  C   UNL     1      34.672 -16.742 -23.074  0.00  0.00    +0.006 C 
ATOM     12  C   UNL     1      33.786 -15.812 -21.028  0.00  0.00    +0.006 C 
ATOM     13  C   UNL     1      34.716 -15.466 -23.635  0.00  0.00    +0.037 C 
ATOM     14  C   UNL     1      33.829 -14.536 -21.589  0.00  0.00    +0.037 C 
ATOM     15  C   UNL     1      34.293 -14.363 -22.892  0.00  0.00    +0.134 C 
BRANCH  15  16
ATOM     16  O   UNL     1      34.336 -13.117 -23.441  0.00  0.00    -0.506 OA
ATOM     17  H   UNL     1      33.827 -12.923 -24.203  0.00  0.00    +0.292 HD
ENDBRANCH  15  16
ENDBRANCH   3  10
BRANCH   8  18
ATOM     18  O   UNL     1      33.844 -23.604 -18.840  0.00  0.00    -0.506 OA
ATOM     19  H   UNL     1      33.962 -23.805 -17.933  0.00  0.00    +0.292 HD
ENDBRANCH   8  18
TORSDOF 3
ENDMDL
MODEL 5
REMARK VINA RESULT:      -9.3      2.262      6.901
REMARK  Name = 656936
REMARK  3 active torsions:
REMARK  status: ('A' for Active; 'I' for Inactive)
REMARK    1  A    between atoms: C_3  and  C_10
REMARK    2  A    between atoms: C_8  and  O_18
REMARK    3  A    between atoms: C_15  and  O_16
REMARK                            x       y       z     vdW  Elec       q    Type
REMARK                         _______ _______ _______ _____ _____    ______ ____
ROOT
ATOM      1  O   UNL     1      33.402 -17.056 -20.884  0.00  0.00    -0.453 OA
ATOM      2  C   UNL     1      34.412 -15.973 -22.591  0.00  0.00    +0.041 C 
ATOM      3  C   UNL     1      34.298 -17.901 -21.458  0.00  0.00    +0.145 C 
ATOM      4  C   UNL     1      33.469 -15.881 -21.572  0.00  0.00    +0.145 C 
ATOM      5  C   UNL     1      34.943 -17.288 -22.508  0.00  0.00    +0.041 C 
ATOM      6  C   UNL     1      34.622 -14.853 -23.414  0.00  0.00    +0.040 C 
ATOM      7  C   UNL     1      32.712 -14.741 -21.309  0.00  0.00    +0.041 C 
ATOM      8  C   UNL     1      33.876 -13.691 -23.173  0.00  0.00    +0.134 C 
ATOM      9  C   UNL     1      32.938 -13.639 -22.138  0.00  0.00    +0.040 C 
ENDROOT
BRANCH   3  10
ATOM     10  C   UNL     1      34.377 -19.205 -20.867  0.00  0.00    +0.035 C 
ATOM     11  C   UNL     1      35.618 -19.827 -20.695  0.00  0.00    +0.006 C 
ATOM     12  C   UNL     1      33.214 -19.865 -20.457  0.00  0.00    +0.006 C 
ATOM     13  C   UNL     1      35.695 -21.096 -20.120  0.00  0.00    +0.037 C 
ATOM     14  C   UNL     1      33.291 -21.133 -19.881  0.00  0.00    +0.037 C 
ATOM     15  C   UNL     1      34.531 -21.749 -19.712  0.00  0.00    +0.134 C 
BRANCH  15  16
ATOM     16  O   UNL     1      34.607 -22.986 -19.150  0.00  0.00    -0.506 OA
ATOM     17  H   UNL     1      34.073 -23.683 -19.477  0.00  0.00    +0.292 HD
ENDBRANCH  15  16
ENDBRANCH   3  10
BRANCH   8  18
ATOM     18  O   UNL     1      34.068 -12.597 -23.962  0.00  0.00    -0.506 OA
ATOM     19  H   UNL     1      33.461 -11.884 -23.932  0.00  0.00    +0.292 HD
ENDBRANCH   8  18
TORSDOF 3
ENDMDL
MODEL 6
REMARK VINA RESULT:      -8.7      1.986      7.254
REMARK  Name = 656936
REMARK  3 active torsions:
REMARK  status: ('A' for Active; 'I' for Inactive)
REMARK    1  A    between atoms: C_3  and  C_10
REMARK    2  A    between atoms: C_8  and  O_18
REMARK    3  A    between atoms: C_15  and  O_16
REMARK                            x       y       z     vdW  Elec       q    Type
REMARK                         _______ _______ _______ _____ _____    ______ ____
ROOT
ATOM      1  O   UNL     1      34.397 -16.420 -22.298  0.00  0.00    -0.453 OA
ATOM      2  C   UNL     1      34.072 -16.327 -24.532  0.00  0.00    +0.041 C 
ATOM      3  C   UNL     1      34.686 -17.638 -22.823  0.00  0.00    +0.145 C 
ATOM      4  C   UNL     1      34.023 -15.618 -23.335  0.00  0.00    +0.145 C 
ATOM      5  C   UNL     1      34.504 -17.636 -24.187  0.00  0.00    +0.041 C 
ATOM      6  C   UNL     1      33.718 -15.664 -25.719  0.00  0.00    +0.040 C 
ATOM      7  C   UNL     1      33.641 -14.282 -23.234  0.00  0.00    +0.041 C 
ATOM      8  C   UNL     1      33.331 -14.319 -25.650  0.00  0.00    +0.134 C 
ATOM      9  C   UNL     1      33.294 -13.642 -24.427  0.00  0.00    +0.040 C 
ENDROOT
BRANCH   3  10
ATOM     10  C   UNL     1      35.106 -18.631 -21.877  0.00  0.00    +0.035 C 
ATOM     11  C   UNL     1      34.178 -19.530 -21.341  0.00  0.00    +0.006 C 
ATOM     12  C   UNL     1      36.446 -18.709 -21.485  0.00  0.00    +0.006 C 
ATOM     13  C   UNL     1      34.586 -20.495 -20.421  0.00  0.00    +0.037 C 
ATOM     14  C   UNL     1      36.854 -19.675 -20.566  0.00  0.00    +0.037 C 
ATOM     15  C   UNL     1      35.925 -20.569 -20.034  0.00  0.00    +0.134 C 
BRANCH  15  16
ATOM     16  O   UNL     1      36.323 -21.512 -19.137  0.00  0.00    -0.506 OA
ATOM     17  H   UNL     1      36.603 -21.256 -18.280  0.00  0.00    +0.292 HD
ENDBRANCH  15  16
ENDBRANCH   3  10
BRANCH   8  18
ATOM     18  O   UNL     1      32.984 -13.662 -26.792  0.00  0.00    -0.506 OA
ATOM     19  H   UNL     1      32.598 -12.809 -26.744  0.00  0.00    +0.292 HD
ENDBRANCH   8  18
TORSDOF 3
ENDMDL
MODEL 7
REMARK VINA RESULT:      -8.7      1.840      2.608
REMARK  Name = 656936
REMARK  3 active torsions:
REMARK  status: ('A' for Active; 'I' for Inactive)
REMARK    1  A    between atoms: C_3  and  C_10
REMARK    2  A    between atoms: C_8  and  O_18
REMARK    3  A    between atoms: C_15  and  O_16
REMARK                            x       y       z     vdW  Elec       q    Type
REMARK                         _______ _______ _______ _____ _____    ______ ____
ROOT
ATOM      1  O   UNL     1      33.399 -18.228 -21.412  0.00  0.00    -0.453 OA
ATOM      2  C   UNL     1      35.159 -19.484 -20.755  0.00  0.00    +0.041 C 
ATOM      3  C   UNL     1      34.541 -17.601 -21.796  0.00  0.00    +0.145 C 
ATOM      4  C   UNL     1      33.771 -19.376 -20.778  0.00  0.00    +0.145 C 
ATOM      5  C   UNL     1      35.647 -18.326 -21.418  0.00  0.00    +0.041 C 
ATOM      6  C   UNL     1      35.734 -20.608 -20.139  0.00  0.00    +0.040 C 
ATOM      7  C   UNL     1      32.906 -20.317 -20.226  0.00  0.00    +0.041 C 
ATOM      8  C   UNL     1      34.888 -21.573 -19.575  0.00  0.00    +0.134 C 
ATOM      9  C   UNL     1      33.499 -21.428 -19.619  0.00  0.00    +0.040 C 
ENDROOT
BRANCH   3  10
ATOM     10  C   UNL     1      34.355 -16.359 -22.490  0.00  0.00    +0.035 C 
ATOM     11  C   UNL     1      34.393 -15.148 -21.789  0.00  0.00    +0.006 C 
ATOM     12  C   UNL     1      34.136 -16.348 -23.871  0.00  0.00    +0.006 C 
ATOM     13  C   UNL     1      34.213 -13.941 -22.464  0.00  0.00    +0.037 C 
ATOM     14  C   UNL     1      33.957 -15.141 -24.545  0.00  0.00    +0.037 C 
ATOM     15  C   UNL     1      33.995 -13.937 -23.842  0.00  0.00    +0.134 C 
BRANCH  15  16
ATOM     16  O   UNL     1      33.820 -12.758 -24.500  0.00  0.00    -0.506 OA
ATOM     17  H   UNL     1      33.530 -12.756 -25.391  0.00  0.00    +0.292 HD
ENDBRANCH  15  16
ENDBRANCH   3  10
BRANCH   8  18
ATOM     18  O   UNL     1      35.431 -22.670 -18.973  0.00  0.00    -0.506 OA
ATOM     19  H   UNL     1      35.607 -23.441 -19.475  0.00  0.00    +0.292 HD
ENDBRANCH   8  18
TORSDOF 3
ENDMDL
MODEL 8
REMARK VINA RESULT:      -8.6      3.337      5.472
REMARK  Name = 656936
REMARK  3 active torsions:
REMARK  status: ('A' for Active; 'I' for Inactive)
REMARK    1  A    between atoms: C_3  and  C_10
REMARK    2  A    between atoms: C_8  and  O_18
REMARK    3  A    between atoms: C_15  and  O_16
REMARK                            x       y       z     vdW  Elec       q    Type
REMARK                         _______ _______ _______ _____ _____    ______ ____
ROOT
ATOM      1  O   UNL     1      31.890 -22.410 -17.626  0.00  0.00    -0.453 OA
ATOM      2  C   UNL     1      32.732 -23.621 -15.914  0.00  0.00    +0.041 C 
ATOM      3  C   UNL     1      33.243 -22.423 -17.735  0.00  0.00    +0.145 C 
ATOM      4  C   UNL     1      31.575 -23.139 -16.518  0.00  0.00    +0.145 C 
ATOM      5  C   UNL     1      33.809 -23.149 -16.712  0.00  0.00    +0.041 C 
ATOM      6  C   UNL     1      32.609 -24.399 -14.750  0.00  0.00    +0.040 C 
ATOM      7  C   UNL     1      30.288 -23.379 -16.041  0.00  0.00    +0.041 C 
ATOM      8  C   UNL     1      31.326 -24.658 -14.247  0.00  0.00    +0.134 C 
ATOM      9  C   UNL     1      30.187 -24.156 -14.883  0.00  0.00    +0.040 C 
ENDROOT
BRANCH   3  10
ATOM     10  C   UNL     1      33.776 -21.701 -18.855  0.00  0.00    +0.035 C 
ATOM     11  C   UNL     1      32.937 -20.909 -19.646  0.00  0.00    +0.006 C 
ATOM     12  C   UNL     1      35.137 -21.782 -19.163  0.00  0.00    +0.006 C 
ATOM     13  C   UNL     1      33.455 -20.207 -20.734  0.00  0.00    +0.037 C 
ATOM     14  C   UNL     1      35.655 -21.080 -20.251  0.00  0.00    +0.037 C 
ATOM     15  C   UNL     1      34.814 -20.292 -21.036  0.00  0.00    +0.134 C 
BRANCH  15  16
ATOM     16  O   UNL     1      35.319 -19.606 -22.098  0.00  0.00    -0.506 OA
ATOM     17  H   UNL     1      36.242 -19.605 -22.260  0.00  0.00    +0.292 HD
ENDBRANCH  15  16
ENDBRANCH   3  10
BRANCH   8  18
ATOM     18  O   UNL     1      31.189 -25.411 -13.119  0.00  0.00    -0.506 OA
ATOM     19  H   UNL     1      31.173 -24.997 -12.278  0.00  0.00    +0.292 HD
ENDBRANCH   8  18
TORSDOF 3
ENDMDL
MODEL 9
REMARK VINA RESULT:      -8.5      3.187      7.334
REMARK  Name = 656936
REMARK  3 active torsions:
REMARK  status: ('A' for Active; 'I' for Inactive)
REMARK    1  A    between atoms: C_3  and  C_10
REMARK    2  A    between atoms: C_8  and  O_18
REMARK    3  A    between atoms: C_15  and  O_16
REMARK                            x       y       z     vdW  Elec       q    Type
REMARK                         _______ _______ _______ _____ _____    ______ ____
ROOT
ATOM      1  O   UNL     1      34.365 -15.985 -22.587  0.00  0.00    -0.453 OA
ATOM      2  C   UNL     1      32.920 -14.551 -21.608  0.00  0.00    +0.041 C 
ATOM      3  C   UNL     1      33.907 -16.554 -21.442  0.00  0.00    +0.145 C 
ATOM      4  C   UNL     1      33.766 -14.766 -22.692  0.00  0.00    +0.145 C 
ATOM      5  C   UNL     1      33.020 -15.717 -20.804  0.00  0.00    +0.041 C 
ATOM      6  C   UNL     1      32.211 -13.340 -21.540  0.00  0.00    +0.040 C 
ATOM      7  C   UNL     1      33.959 -13.851 -23.725  0.00  0.00    +0.041 C 
ATOM      8  C   UNL     1      32.383 -12.400 -22.566  0.00  0.00    +0.134 C 
ATOM      9  C   UNL     1      33.243 -12.654 -23.638  0.00  0.00    +0.040 C 
ENDROOT
BRANCH   3  10
ATOM     10  C   UNL     1      34.428 -17.859 -21.153  0.00  0.00    +0.035 C 
ATOM     11  C   UNL     1      33.559 -18.925 -20.900  0.00  0.00    +0.006 C 
ATOM     12  C   UNL     1      35.810 -18.075 -21.123  0.00  0.00    +0.006 C 
ATOM     13  C   UNL     1      34.065 -20.193 -20.619  0.00  0.00    +0.037 C 
ATOM     14  C   UNL     1      36.317 -19.344 -20.843  0.00  0.00    +0.037 C 
ATOM     15  C   UNL     1      35.445 -20.403 -20.591  0.00  0.00    +0.134 C 
BRANCH  15  16
ATOM     16  O   UNL     1      35.938 -21.642 -20.317  0.00  0.00    -0.506 OA
ATOM     17  H   UNL     1      35.353 -22.365 -20.202  0.00  0.00    +0.292 HD
ENDBRANCH  15  16
ENDBRANCH   3  10
BRANCH   8  18
ATOM     18  O   UNL     1      31.703 -11.220 -22.515  0.00  0.00    -0.506 OA
ATOM     19  H   UNL     1      32.062 -10.491 -22.049  0.00  0.00    +0.292 HD
ENDBRANCH   8  18
TORSDOF 3
ENDMDL
