MODEL 1
REMARK VINA RESULT:      -9.0      0.000      0.000
REMARK  Name = 117072582
REMARK  7 active torsions:
REMARK  status: ('A' for Active; 'I' for Inactive)
REMARK    1  A    between atoms: N_1  and  C_19
REMARK    2  A    between atoms: C_2  and  N_9
REMARK    3  A    between atoms: N_9  and  C_11
REMARK    4  A    between atoms: C_10  and  C_17
REMARK    5  A    between atoms: C_19  and  C_20
REMARK    6  A    between atoms: C_20  and  C_22
REMARK    7  A    between atoms: C_20  and  O_26
REMARK                            x       y       z     vdW  Elec       q    Type
REMARK                         _______ _______ _______ _____ _____    ______ ____
ROOT
ATOM      1  N   UNL     1      34.196 -22.147 -19.760  0.00  0.00    +0.389 N 
ATOM      2  C   UNL     1      34.315 -19.345 -20.593  0.00  0.00    +0.076 C 
ATOM      3  C   UNL     1      35.515 -20.285 -20.715  0.00  0.00    -0.003 C 
ATOM      4  C   UNL     1      33.014 -20.145 -20.608  0.00  0.00    -0.003 C 
ATOM      5  C   UNL     1      35.458 -21.398 -19.668  0.00  0.00    -0.076 C 
ATOM      6  C   UNL     1      33.039 -21.264 -19.564  0.00  0.00    -0.076 C 
ATOM      7  H   UNL     1      34.133 -22.543 -20.697  0.00  0.00    -0.080 HD
ENDROOT
BRANCH   2   9
ATOM      8  O   UNL     1      34.697 -19.726 -23.539  0.00  0.00    -0.275 OA
ATOM      9  N   UNL     1      34.322 -18.357 -21.643  0.00  0.00    -0.260 N 
ATOM     10  C   UNL     1      34.767 -18.635 -22.969  0.00  0.00    +0.229 C 
BRANCH   9  11
ATOM     11  C   UNL     1      33.946 -16.992 -21.282  0.00  0.00    +0.054 C 
ATOM     12  C   UNL     1      34.926 -16.076 -20.903  0.00  0.00    +0.015 C 
ATOM     13  C   UNL     1      32.606 -16.605 -21.318  0.00  0.00    +0.015 C 
ATOM     14  C   UNL     1      34.568 -14.772 -20.558  0.00  0.00    +0.001 C 
ATOM     15  C   UNL     1      32.247 -15.302 -20.974  0.00  0.00    +0.001 C 
ATOM     16  C   UNL     1      33.228 -14.385 -20.594  0.00  0.00    +0.000 C 
ENDBRANCH   9  11
BRANCH  10  17
ATOM     17  C   UNL     1      35.330 -17.434 -23.725  0.00  0.00    +0.086 C 
ATOM     18  C   UNL     1      34.600 -17.166 -25.034  0.00  0.00    +0.010 C 
ENDBRANCH  10  17
ENDBRANCH   2   9
BRANCH   1  19
ATOM     19  C   UNL     1      34.177 -23.239 -18.786  0.00  0.00    -0.042 C 
BRANCH  19  20
ATOM     20  C   UNL     1      34.378 -22.704 -17.363  0.00  0.00    +0.118 C 
BRANCH  20  22
ATOM     21  S   UNL     1      33.703 -23.798 -14.889  0.00  0.00    -0.088 S 
ATOM     22  C   UNL     1      33.286 -23.182 -16.432  0.00  0.00    +0.032 C 
ATOM     23  C   UNL     1      31.925 -23.201 -16.645  0.00  0.00    +0.005 C 
ATOM     24  C   UNL     1      31.215 -23.727 -15.527  0.00  0.00    +0.007 C 
ATOM     25  C   UNL     1      32.061 -24.091 -14.502  0.00  0.00    +0.035 C 
ENDBRANCH  20  22
BRANCH  20  26
ATOM     26  O   UNL     1      35.631 -23.142 -16.841  0.00  0.00    -0.382 OA
ATOM     27  H   UNL     1      35.663 -22.968 -15.887  0.00  0.00    +0.211 HD
ENDBRANCH  20  26
ENDBRANCH  19  20
ENDBRANCH   1  19
TORSDOF 7
ENDMDL
MODEL 2
REMARK VINA RESULT:      -9.0      2.170      2.654
REMARK  Name = 117072582
REMARK  7 active torsions:
REMARK  status: ('A' for Active; 'I' for Inactive)
REMARK    1  A    between atoms: N_1  and  C_19
REMARK    2  A    between atoms: C_2  and  N_9
REMARK    3  A    between atoms: N_9  and  C_11
REMARK    4  A    between atoms: C_10  and  C_17
REMARK    5  A    between atoms: C_19  and  C_20
REMARK    6  A    between atoms: C_20  and  C_22
REMARK    7  A    between atoms: C_20  and  O_26
REMARK                            x       y       z     vdW  Elec       q    Type
REMARK                         _______ _______ _______ _____ _____    ______ ____
ROOT
ATOM      1  N   UNL     1      35.867 -20.578 -19.407  0.00  0.00    +0.389 N 
ATOM      2  C   UNL     1      35.119 -19.221 -21.888  0.00  0.00    +0.076 C 
ATOM      3  C   UNL     1      34.078 -19.757 -20.905  0.00  0.00    -0.003 C 
ATOM      4  C   UNL     1      36.429 -18.926 -21.161  0.00  0.00    -0.003 C 
ATOM      5  C   UNL     1      34.626 -20.941 -20.106  0.00  0.00    -0.076 C 
ATOM      6  C   UNL     1      36.901 -20.137 -20.353  0.00  0.00    -0.076 C 
ATOM      7  H   UNL     1      35.660 -19.798 -18.783  0.00  0.00    -0.080 HD
ENDROOT
BRANCH   2   9
ATOM      8  O   UNL     1      34.738 -18.764 -24.823  0.00  0.00    -0.275 OA
ATOM      9  N   UNL     1      34.633 -18.046 -22.568  0.00  0.00    -0.260 N 
ATOM     10  C   UNL     1      34.739 -17.865 -23.979  0.00  0.00    +0.229 C 
BRANCH   9  11
ATOM     11  C   UNL     1      34.103 -16.964 -21.743  0.00  0.00    +0.054 C 
ATOM     12  C   UNL     1      34.952 -15.957 -21.285  0.00  0.00    +0.015 C 
ATOM     13  C   UNL     1      32.748 -16.937 -21.414  0.00  0.00    +0.015 C 
ATOM     14  C   UNL     1      34.447 -14.923 -20.496  0.00  0.00    +0.001 C 
ATOM     15  C   UNL     1      32.242 -15.903 -20.625  0.00  0.00    +0.001 C 
ATOM     16  C   UNL     1      33.091 -14.896 -20.167  0.00  0.00    +0.000 C 
ENDBRANCH   9  11
BRANCH  10  17
ATOM     17  C   UNL     1      34.814 -16.411 -24.439  0.00  0.00    +0.086 C 
ATOM     18  C   UNL     1      33.724 -16.052 -25.438  0.00  0.00    +0.010 C 
ENDBRANCH  10  17
ENDBRANCH   2   9
BRANCH   1  19
ATOM     19  C   UNL     1      36.352 -21.704 -18.608  0.00  0.00    -0.042 C 
BRANCH  19  20
ATOM     20  C   UNL     1      36.431 -21.325 -17.124  0.00  0.00    +0.118 C 
BRANCH  20  22
ATOM     21  S   UNL     1      35.063 -23.348 -15.779  0.00  0.00    -0.088 S 
ATOM     22  C   UNL     1      36.507 -22.552 -16.242  0.00  0.00    +0.032 C 
ATOM     23  C   UNL     1      37.624 -23.165 -15.721  0.00  0.00    +0.005 C 
ATOM     24  C   UNL     1      37.291 -24.304 -14.931  0.00  0.00    +0.007 C 
ATOM     25  C   UNL     1      35.931 -24.517 -14.879  0.00  0.00    +0.035 C 
ENDBRANCH  20  22
BRANCH  20  26
ATOM     26  O   UNL     1      37.588 -20.527 -16.878  0.00  0.00    -0.382 OA
ATOM     27  H   UNL     1      37.473 -19.656 -17.289  0.00  0.00    +0.211 HD
ENDBRANCH  20  26
ENDBRANCH  19  20
ENDBRANCH   1  19
TORSDOF 7
ENDMDL
MODEL 3
REMARK VINA RESULT:      -9.0      4.564      8.971
REMARK  Name = 117072582
REMARK  7 active torsions:
REMARK  status: ('A' for Active; 'I' for Inactive)
REMARK    1  A    between atoms: N_1  and  C_19
REMARK    2  A    between atoms: C_2  and  N_9
REMARK    3  A    between atoms: N_9  and  C_11
REMARK    4  A    between atoms: C_10  and  C_17
REMARK    5  A    between atoms: C_19  and  C_20
REMARK    6  A    between atoms: C_20  and  C_22
REMARK    7  A    between atoms: C_20  and  O_26
REMARK                            x       y       z     vdW  Elec       q    Type
REMARK                         _______ _______ _______ _____ _____    ______ ____
ROOT
ATOM      1  N   UNL     1      32.800 -14.164 -20.911  0.00  0.00    +0.389 N 
ATOM      2  C   UNL     1      34.173 -16.746 -20.976  0.00  0.00    +0.076 C 
ATOM      3  C   UNL     1      32.666 -16.616 -21.203  0.00  0.00    -0.003 C 
ATOM      4  C   UNL     1      34.875 -15.440 -21.340  0.00  0.00    -0.003 C 
ATOM      5  C   UNL     1      32.101 -15.387 -20.490  0.00  0.00    -0.076 C 
ATOM      6  C   UNL     1      34.238 -14.248 -20.623  0.00  0.00    -0.076 C 
ATOM      7  H   UNL     1      32.686 -14.068 -21.920  0.00  0.00    -0.080 HD
ENDROOT
BRANCH   2   9
ATOM      8  O   UNL     1      35.199 -16.785 -23.789  0.00  0.00    -0.275 OA
ATOM      9  N   UNL     1      34.717 -17.849 -21.728  0.00  0.00    -0.260 N 
ATOM     10  C   UNL     1      34.933 -17.797 -23.138  0.00  0.00    +0.229 C 
BRANCH   9  11
ATOM     11  C   UNL     1      34.957 -19.098 -21.011  0.00  0.00    +0.054 C 
ATOM     12  C   UNL     1      33.882 -19.898 -20.626  0.00  0.00    +0.015 C 
ATOM     13  C   UNL     1      36.261 -19.490 -20.710  0.00  0.00    +0.015 C 
ATOM     14  C   UNL     1      34.110 -21.092 -19.940  0.00  0.00    +0.001 C 
ATOM     15  C   UNL     1      36.490 -20.683 -20.023  0.00  0.00    +0.001 C 
ATOM     16  C   UNL     1      35.414 -21.484 -19.639  0.00  0.00    +0.000 C 
ENDBRANCH   9  11
BRANCH  10  17
ATOM     17  C   UNL     1      34.862 -19.145 -23.851  0.00  0.00    +0.086 C 
ATOM     18  C   UNL     1      34.158 -19.063 -25.198  0.00  0.00    +0.010 C 
ENDBRANCH  10  17
ENDBRANCH   2   9
BRANCH   1  19
ATOM     19  C   UNL     1      32.215 -12.991 -20.259  0.00  0.00    -0.042 C 
BRANCH  19  20
ATOM     20  C   UNL     1      31.424 -12.146 -21.265  0.00  0.00    +0.118 C 
BRANCH  20  22
ATOM     21  S   UNL     1      31.888  -9.677 -22.474  0.00  0.00    -0.088 S 
ATOM     22  C   UNL     1      31.705 -10.670 -21.090  0.00  0.00    +0.032 C 
ATOM     23  C   UNL     1      31.845  -9.956 -19.921  0.00  0.00    +0.005 C 
ATOM     24  C   UNL     1      32.106  -8.576 -20.163  0.00  0.00    +0.007 C 
ATOM     25  C   UNL     1      32.156  -8.288 -21.510  0.00  0.00    +0.035 C 
ENDBRANCH  20  22
BRANCH  20  26
ATOM     26  O   UNL     1      31.771 -12.511 -22.599  0.00  0.00    -0.382 OA
ATOM     27  H   UNL     1      32.649 -12.925 -22.604  0.00  0.00    +0.211 HD
ENDBRANCH  20  26
ENDBRANCH  19  20
ENDBRANCH   1  19
TORSDOF 7
ENDMDL
MODEL 4
REMARK VINA RESULT:      -8.7      3.762      5.766
REMARK  Name = 117072582
REMARK  7 active torsions:
REMARK  status: ('A' for Active; 'I' for Inactive)
REMARK    1  A    between atoms: N_1  and  C_19
REMARK    2  A    between atoms: C_2  and  N_9
REMARK    3  A    between atoms: N_9  and  C_11
REMARK    4  A    between atoms: C_10  and  C_17
REMARK    5  A    between atoms: C_19  and  C_20
REMARK    6  A    between atoms: C_20  and  C_22
REMARK    7  A    between atoms: C_20  and  O_26
REMARK                            x       y       z     vdW  Elec       q    Type
REMARK                         _______ _______ _______ _____ _____    ______ ____
ROOT
ATOM      1  N   UNL     1      34.272 -16.779 -21.896  0.00  0.00    +0.389 N 
ATOM      2  C   UNL     1      34.147 -14.187 -23.247  0.00  0.00    +0.076 C 
ATOM      3  C   UNL     1      34.803 -15.411 -23.887  0.00  0.00    -0.003 C 
ATOM      4  C   UNL     1      33.101 -14.624 -22.224  0.00  0.00    -0.003 C 
ATOM      5  C   UNL     1      35.336 -16.374 -22.826  0.00  0.00    -0.076 C 
ATOM      6  C   UNL     1      33.689 -15.614 -21.217  0.00  0.00    -0.076 C 
ATOM      7  H   UNL     1      33.534 -17.227 -22.439  0.00  0.00    -0.080 HD
ENDROOT
BRANCH   2   9
ATOM      8  O   UNL     1      32.562 -14.935 -25.675  0.00  0.00    -0.275 OA
ATOM      9  N   UNL     1      33.560 -13.331 -24.247  0.00  0.00    -0.260 N 
ATOM     10  C   UNL     1      33.050 -13.819 -25.487  0.00  0.00    +0.229 C 
BRANCH   9  11
ATOM     11  C   UNL     1      33.591 -11.891 -24.000  0.00  0.00    +0.054 C 
ATOM     12  C   UNL     1      34.625 -11.116 -24.524  0.00  0.00    +0.015 C 
ATOM     13  C   UNL     1      32.586 -11.292 -23.242  0.00  0.00    +0.015 C 
ATOM     14  C   UNL     1      34.656  -9.741 -24.289  0.00  0.00    +0.001 C 
ATOM     15  C   UNL     1      32.616  -9.917 -23.006  0.00  0.00    +0.001 C 
ATOM     16  C   UNL     1      33.650  -9.142 -23.530  0.00  0.00    +0.000 C 
ENDBRANCH   9  11
BRANCH  10  17
ATOM     17  C   UNL     1      33.094 -12.820 -26.640  0.00  0.00    +0.086 C 
ATOM     18  C   UNL     1      34.210 -13.112 -27.632  0.00  0.00    +0.010 C 
ENDBRANCH  10  17
ENDBRANCH   2   9
BRANCH   1  19
ATOM     19  C   UNL     1      34.785 -17.739 -20.918  0.00  0.00    -0.042 C 
BRANCH  19  20
ATOM     20  C   UNL     1      34.995 -19.114 -21.563  0.00  0.00    +0.118 C 
BRANCH  20  22
ATOM     21  S   UNL     1      35.903 -21.172 -19.915  0.00  0.00    -0.088 S 
ATOM     22  C   UNL     1      34.648 -20.234 -20.606  0.00  0.00    +0.032 C 
ATOM     23  C   UNL     1      33.404 -20.641 -20.180  0.00  0.00    +0.005 C 
ATOM     24  C   UNL     1      33.481 -21.738 -19.273  0.00  0.00    +0.007 C 
ATOM     25  C   UNL     1      34.782 -22.127 -19.042  0.00  0.00    +0.035 C 
ENDBRANCH  20  22
BRANCH  20  26
ATOM     26  O   UNL     1      34.176 -19.248 -22.722  0.00  0.00    -0.382 OA
ATOM     27  H   UNL     1      33.328 -19.650 -22.474  0.00  0.00    +0.211 HD
ENDBRANCH  20  26
ENDBRANCH  19  20
ENDBRANCH   1  19
TORSDOF 7
ENDMDL
MODEL 5
REMARK VINA RESULT:      -8.7      3.506      5.796
REMARK  Name = 117072582
REMARK  7 active torsions:
REMARK  status: ('A' for Active; 'I' for Inactive)
REMARK    1  A    between atoms: N_1  and  C_19
REMARK    2  A    between atoms: C_2  and  N_9
REMARK    3  A    between atoms: N_9  and  C_11
REMARK    4  A    between atoms: C_10  and  C_17
REMARK    5  A    between atoms: C_19  and  C_20
REMARK    6  A    between atoms: C_20  and  C_22
REMARK    7  A    between atoms: C_20  and  O_26
REMARK                            x       y       z     vdW  Elec       q    Type
REMARK                         _______ _______ _______ _____ _____    ______ ____
ROOT
ATOM      1  N   UNL     1      35.513 -17.271 -22.550  0.00  0.00    +0.389 N 
ATOM      2  C   UNL     1      33.434 -15.214 -22.519  0.00  0.00    +0.076 C 
ATOM      3  C   UNL     1      34.450 -15.365 -21.387  0.00  0.00    -0.003 C 
ATOM      4  C   UNL     1      34.005 -15.776 -23.819  0.00  0.00    -0.003 C 
ATOM      5  C   UNL     1      34.948 -16.806 -21.275  0.00  0.00    -0.076 C 
ATOM      6  C   UNL     1      34.518 -17.205 -23.629  0.00  0.00    -0.076 C 
ATOM      7  H   UNL     1      36.285 -16.651 -22.796  0.00  0.00    -0.080 HD
ENDROOT
BRANCH   2   9
ATOM      8  O   UNL     1      32.400 -13.290 -20.470  0.00  0.00    -0.275 OA
ATOM      9  N   UNL     1      33.041 -13.837 -22.684  0.00  0.00    -0.260 N 
ATOM     10  C   UNL     1      32.327 -13.107 -21.687  0.00  0.00    +0.229 C 
BRANCH   9  11
ATOM     11  C   UNL     1      33.310 -13.212 -23.976  0.00  0.00    +0.054 C 
ATOM     12  C   UNL     1      34.019 -12.012 -24.037  0.00  0.00    +0.015 C 
ATOM     13  C   UNL     1      32.859 -13.814 -25.150  0.00  0.00    +0.015 C 
ATOM     14  C   UNL     1      34.276 -11.414 -25.271  0.00  0.00    +0.001 C 
ATOM     15  C   UNL     1      33.115 -13.217 -26.385  0.00  0.00    +0.001 C 
ATOM     16  C   UNL     1      33.824 -12.017 -26.445  0.00  0.00    +0.000 C 
ENDBRANCH   9  11
BRANCH  10  17
ATOM     17  C   UNL     1      31.444 -11.982 -22.220  0.00  0.00    +0.086 C 
ATOM     18  C   UNL     1      30.805 -11.159 -21.112  0.00  0.00    +0.010 C 
ENDBRANCH  10  17
ENDBRANCH   2   9
BRANCH   1  19
ATOM     19  C   UNL     1      36.031 -18.633 -22.414  0.00  0.00    -0.042 C 
BRANCH  19  20
ATOM     20  C   UNL     1      36.343 -18.953 -20.948  0.00  0.00    +0.118 C 
BRANCH  20  22
ATOM     21  S   UNL     1      36.134 -21.348 -19.535  0.00  0.00    -0.088 S 
ATOM     22  C   UNL     1      35.447 -20.050 -20.416  0.00  0.00    +0.032 C 
ATOM     23  C   UNL     1      34.081 -20.175 -20.538  0.00  0.00    +0.005 C 
ATOM     24  C   UNL     1      33.592 -21.351 -19.900  0.00  0.00    +0.007 C 
ATOM     25  C   UNL     1      34.603 -22.081 -19.315  0.00  0.00    +0.035 C 
ENDBRANCH  20  22
BRANCH  20  26
ATOM     26  O   UNL     1      37.698 -19.380 -20.812  0.00  0.00    -0.382 OA
ATOM     27  H   UNL     1      37.718 -20.315 -20.552  0.00  0.00    +0.211 HD
ENDBRANCH  20  26
ENDBRANCH  19  20
ENDBRANCH   1  19
TORSDOF 7
ENDMDL
MODEL 6
REMARK VINA RESULT:      -8.7      7.381     10.917
REMARK  Name = 117072582
REMARK  7 active torsions:
REMARK  status: ('A' for Active; 'I' for Inactive)
REMARK    1  A    between atoms: N_1  and  C_19
REMARK    2  A    between atoms: C_2  and  N_9
REMARK    3  A    between atoms: N_9  and  C_11
REMARK    4  A    between atoms: C_10  and  C_17
REMARK    5  A    between atoms: C_19  and  C_20
REMARK    6  A    between atoms: C_20  and  C_22
REMARK    7  A    between atoms: C_20  and  O_26
REMARK                            x       y       z     vdW  Elec       q    Type
REMARK                         _______ _______ _______ _____ _____    ______ ____
ROOT
ATOM      1  N   UNL     1      32.697 -12.096 -22.742  0.00  0.00    +0.389 N 
ATOM      2  C   UNL     1      32.404  -9.240 -23.303  0.00  0.00    +0.076 C 
ATOM      3  C   UNL     1      31.629  -9.937 -22.183  0.00  0.00    -0.003 C 
ATOM      4  C   UNL     1      33.692 -10.003 -23.605  0.00  0.00    -0.003 C 
ATOM      5  C   UNL     1      31.416 -11.419 -22.494  0.00  0.00    -0.076 C 
ATOM      6  C   UNL     1      33.413 -11.483 -23.868  0.00  0.00    -0.076 C 
ATOM      7  H   UNL     1      33.275 -11.991 -21.908  0.00  0.00    -0.080 HD
ENDROOT
BRANCH   2   9
ATOM      8  O   UNL     1      32.841  -8.020 -20.603  0.00  0.00    -0.275 OA
ATOM      9  N   UNL     1      32.687  -7.869 -22.962  0.00  0.00    -0.260 N 
ATOM     10  C   UNL     1      32.621  -7.369 -21.627  0.00  0.00    +0.229 C 
BRANCH   9  11
ATOM     11  C   UNL     1      32.953  -6.945 -24.061  0.00  0.00    +0.054 C 
ATOM     12  C   UNL     1      31.916  -6.184 -24.600  0.00  0.00    +0.015 C 
ATOM     13  C   UNL     1      34.245  -6.823 -24.573  0.00  0.00    +0.015 C 
ATOM     14  C   UNL     1      32.169  -5.301 -25.650  0.00  0.00    +0.001 C 
ATOM     15  C   UNL     1      34.499  -5.941 -25.623  0.00  0.00    +0.001 C 
ATOM     16  C   UNL     1      33.461  -5.180 -26.162  0.00  0.00    +0.000 C 
ENDBRANCH   9  11
BRANCH  10  17
ATOM     17  C   UNL     1      32.289  -5.884 -21.510  0.00  0.00    +0.086 C 
ATOM     18  C   UNL     1      30.798  -5.624 -21.356  0.00  0.00    +0.010 C 
ENDBRANCH  10  17
ENDBRANCH   2   9
BRANCH   1  19
ATOM     19  C   UNL     1      32.482 -13.523 -22.987  0.00  0.00    -0.042 C 
BRANCH  19  20
ATOM     20  C   UNL     1      33.745 -14.174 -23.561  0.00  0.00    +0.118 C 
BRANCH  20  22
ATOM     21  S   UNL     1      34.932 -16.688 -23.339  0.00  0.00    -0.088 S 
ATOM     22  C   UNL     1      34.268 -15.265 -22.653  0.00  0.00    +0.032 C 
ATOM     23  C   UNL     1      34.295 -15.295 -21.276  0.00  0.00    +0.005 C 
ATOM     24  C   UNL     1      34.868 -16.501 -20.777  0.00  0.00    +0.007 C 
ATOM     25  C   UNL     1      35.256 -17.347 -21.793  0.00  0.00    +0.035 C 
ENDBRANCH  20  22
BRANCH  20  26
ATOM     26  O   UNL     1      33.470 -14.750 -24.836  0.00  0.00    -0.382 OA
ATOM     27  H   UNL     1      33.697 -14.115 -25.534  0.00  0.00    +0.211 HD
ENDBRANCH  20  26
ENDBRANCH  19  20
ENDBRANCH   1  19
TORSDOF 7
ENDMDL
MODEL 7
REMARK VINA RESULT:      -8.6      3.582      5.914
REMARK  Name = 117072582
REMARK  7 active torsions:
REMARK  status: ('A' for Active; 'I' for Inactive)
REMARK    1  A    between atoms: N_1  and  C_19
REMARK    2  A    between atoms: C_2  and  N_9
REMARK    3  A    between atoms: N_9  and  C_11
REMARK    4  A    between atoms: C_10  and  C_17
REMARK    5  A    between atoms: C_19  and  C_20
REMARK    6  A    between atoms: C_20  and  C_22
REMARK    7  A    between atoms: C_20  and  O_26
REMARK                            x       y       z     vdW  Elec       q    Type
REMARK                         _______ _______ _______ _____ _____    ______ ____
ROOT
ATOM      1  N   UNL     1      35.270 -16.824 -23.205  0.00  0.00    +0.389 N 
ATOM      2  C   UNL     1      33.430 -14.551 -23.156  0.00  0.00    +0.076 C 
ATOM      3  C   UNL     1      34.559 -14.709 -22.138  0.00  0.00    -0.003 C 
ATOM      4  C   UNL     1      33.774 -15.294 -24.446  0.00  0.00    -0.003 C 
ATOM      5  C   UNL     1      34.918 -16.181 -21.931  0.00  0.00    -0.076 C 
ATOM      6  C   UNL     1      34.160 -16.747 -24.163  0.00  0.00    -0.076 C 
ATOM      7  H   UNL     1      36.064 -16.321 -23.602  0.00  0.00    -0.080 HD
ENDROOT
BRANCH   2   9
ATOM      8  O   UNL     1      33.834 -13.001 -25.687  0.00  0.00    -0.275 OA
ATOM      9  N   UNL     1      33.161 -13.160 -23.421  0.00  0.00    -0.260 N 
ATOM     10  C   UNL     1      33.634 -12.484 -24.586  0.00  0.00    +0.229 C 
BRANCH   9  11
ATOM     11  C   UNL     1      32.456 -12.403 -22.389  0.00  0.00    +0.054 C 
ATOM     12  C   UNL     1      31.892 -11.166 -22.696  0.00  0.00    +0.015 C 
ATOM     13  C   UNL     1      32.347 -12.919 -21.098  0.00  0.00    +0.015 C 
ATOM     14  C   UNL     1      31.218 -10.442 -21.711  0.00  0.00    +0.001 C 
ATOM     15  C   UNL     1      31.674 -12.196 -20.113  0.00  0.00    +0.001 C 
ATOM     16  C   UNL     1      31.109 -10.958 -20.419  0.00  0.00    +0.000 C 
ENDBRANCH   9  11
BRANCH  10  17
ATOM     17  C   UNL     1      33.855 -10.984 -24.415  0.00  0.00    +0.086 C 
ATOM     18  C   UNL     1      35.014 -10.460 -25.252  0.00  0.00    +0.010 C 
ENDBRANCH  10  17
ENDBRANCH   2   9
BRANCH   1  19
ATOM     19  C   UNL     1      35.660 -18.217 -22.984  0.00  0.00    -0.042 C 
BRANCH  19  20
ATOM     20  C   UNL     1      35.962 -18.471 -21.502  0.00  0.00    +0.118 C 
BRANCH  20  22
ATOM     21  S   UNL     1      35.620 -20.829 -20.053  0.00  0.00    -0.088 S 
ATOM     22  C   UNL     1      35.003 -19.477 -20.905  0.00  0.00    +0.032 C 
ATOM     23  C   UNL     1      33.626 -19.476 -20.943  0.00  0.00    +0.005 C 
ATOM     24  C   UNL     1      33.070 -20.598 -20.263  0.00  0.00    +0.007 C 
ATOM     25  C   UNL     1      34.045 -21.415 -19.733  0.00  0.00    +0.035 C 
ENDBRANCH  20  22
BRANCH  20  26
ATOM     26  O   UNL     1      37.288 -18.972 -21.345  0.00  0.00    -0.382 OA
ATOM     27  H   UNL     1      37.894 -18.465 -21.908  0.00  0.00    +0.211 HD
ENDBRANCH  20  26
ENDBRANCH  19  20
ENDBRANCH   1  19
TORSDOF 7
ENDMDL
MODEL 8
REMARK VINA RESULT:      -8.4      6.234      9.288
REMARK  Name = 117072582
REMARK  7 active torsions:
REMARK  status: ('A' for Active; 'I' for Inactive)
REMARK    1  A    between atoms: N_1  and  C_19
REMARK    2  A    between atoms: C_2  and  N_9
REMARK    3  A    between atoms: N_9  and  C_11
REMARK    4  A    between atoms: C_10  and  C_17
REMARK    5  A    between atoms: C_19  and  C_20
REMARK    6  A    between atoms: C_20  and  C_22
REMARK    7  A    between atoms: C_20  and  O_26
REMARK                            x       y       z     vdW  Elec       q    Type
REMARK                         _______ _______ _______ _____ _____    ______ ____
ROOT
ATOM      1  N   UNL     1      32.935 -13.394 -22.011  0.00  0.00    +0.389 N 
ATOM      2  C   UNL     1      32.642 -10.781 -23.294  0.00  0.00    +0.076 C 
ATOM      3  C   UNL     1      32.326 -11.005 -21.815  0.00  0.00    -0.003 C 
ATOM      4  C   UNL     1      33.650 -11.820 -23.781  0.00  0.00    -0.003 C 
ATOM      5  C   UNL     1      31.906 -12.450 -21.549  0.00  0.00    -0.076 C 
ATOM      6  C   UNL     1      33.188 -13.240 -23.450  0.00  0.00    -0.076 C 
ATOM      7  H   UNL     1      33.801 -13.182 -21.516  0.00  0.00    -0.080 HD
ENDROOT
BRANCH   2   9
ATOM      8  O   UNL     1      35.013  -9.888 -24.891  0.00  0.00    -0.275 OA
ATOM      9  N   UNL     1      33.130  -9.444 -23.524  0.00  0.00    -0.260 N 
ATOM     10  C   UNL     1      34.411  -9.171 -24.089  0.00  0.00    +0.229 C 
BRANCH   9  11
ATOM     11  C   UNL     1      32.300  -8.337 -23.058  0.00  0.00    +0.054 C 
ATOM     12  C   UNL     1      32.503  -7.801 -21.786  0.00  0.00    +0.015 C 
ATOM     13  C   UNL     1      31.306  -7.814 -23.884  0.00  0.00    +0.015 C 
ATOM     14  C   UNL     1      31.710  -6.743 -21.339  0.00  0.00    +0.001 C 
ATOM     15  C   UNL     1      30.512  -6.757 -23.437  0.00  0.00    +0.001 C 
ATOM     16  C   UNL     1      30.715  -6.221 -22.166  0.00  0.00    +0.000 C 
ENDBRANCH   9  11
BRANCH  10  17
ATOM     17  C   UNL     1      35.031  -7.841 -23.668  0.00  0.00    +0.086 C 
ATOM     18  C   UNL     1      34.778  -6.728 -24.675  0.00  0.00    +0.010 C 
ENDBRANCH  10  17
ENDBRANCH   2   9
BRANCH   1  19
ATOM     19  C   UNL     1      32.542 -14.769 -21.705  0.00  0.00    -0.042 C 
BRANCH  19  20
ATOM     20  C   UNL     1      33.628 -15.476 -20.884  0.00  0.00    +0.118 C 
BRANCH  20  22
ATOM     21  S   UNL     1      35.001 -16.425 -23.118  0.00  0.00    -0.088 S 
ATOM     22  C   UNL     1      34.196 -16.666 -21.625  0.00  0.00    +0.032 C 
ATOM     23  C   UNL     1      34.165 -17.995 -21.265  0.00  0.00    +0.005 C 
ATOM     24  C   UNL     1      34.810 -18.826 -22.226  0.00  0.00    +0.007 C 
ATOM     25  C   UNL     1      35.309 -18.100 -23.285  0.00  0.00    +0.035 C 
ENDBRANCH  20  22
BRANCH  20  26
ATOM     26  O   UNL     1      34.698 -14.577 -20.600  0.00  0.00    -0.382 OA
ATOM     27  H   UNL     1      34.730 -14.405 -19.645  0.00  0.00    +0.211 HD
ENDBRANCH  20  26
ENDBRANCH  19  20
ENDBRANCH   1  19
TORSDOF 7
ENDMDL
MODEL 9
REMARK VINA RESULT:      -8.4      3.360      5.381
REMARK  Name = 117072582
REMARK  7 active torsions:
REMARK  status: ('A' for Active; 'I' for Inactive)
REMARK    1  A    between atoms: N_1  and  C_19
REMARK    2  A    between atoms: C_2  and  N_9
REMARK    3  A    between atoms: N_9  and  C_11
REMARK    4  A    between atoms: C_10  and  C_17
REMARK    5  A    between atoms: C_19  and  C_20
REMARK    6  A    between atoms: C_20  and  C_22
REMARK    7  A    between atoms: C_20  and  O_26
REMARK                            x       y       z     vdW  Elec       q    Type
REMARK                         _______ _______ _______ _____ _____    ______ ____
ROOT
ATOM      1  N   UNL     1      35.831 -17.715 -23.295  0.00  0.00    +0.389 N 
ATOM      2  C   UNL     1      33.738 -15.846 -24.122  0.00  0.00    +0.076 C 
ATOM      3  C   UNL     1      34.811 -15.470 -23.100  0.00  0.00    -0.003 C 
ATOM      4  C   UNL     1      34.248 -16.956 -25.038  0.00  0.00    -0.003 C 
ATOM      5  C   UNL     1      35.326 -16.703 -22.356  0.00  0.00    -0.076 C 
ATOM      6  C   UNL     1      34.783 -18.141 -24.231  0.00  0.00    -0.076 C 
ATOM      7  H   UNL     1      36.584 -17.292 -23.838  0.00  0.00    -0.080 HD
ENDROOT
BRANCH   2   9
ATOM      8  O   UNL     1      32.873 -15.700 -26.985  0.00  0.00    -0.275 OA
ATOM      9  N   UNL     1      33.325 -14.697 -24.888  0.00  0.00    -0.260 N 
ATOM     10  C   UNL     1      33.183 -14.719 -26.307  0.00  0.00    +0.229 C 
BRANCH   9  11
ATOM     11  C   UNL     1      33.147 -13.439 -24.167  0.00  0.00    +0.054 C 
ATOM     12  C   UNL     1      33.902 -12.320 -24.521  0.00  0.00    +0.015 C 
ATOM     13  C   UNL     1      32.222 -13.355 -23.127  0.00  0.00    +0.015 C 
ATOM     14  C   UNL     1      33.733 -11.118 -23.833  0.00  0.00    +0.001 C 
ATOM     15  C   UNL     1      32.053 -12.153 -22.439  0.00  0.00    +0.001 C 
ATOM     16  C   UNL     1      32.807 -11.035 -22.792  0.00  0.00    +0.000 C 
ENDBRANCH   9  11
BRANCH  10  17
ATOM     17  C   UNL     1      33.401 -13.375 -26.997  0.00  0.00    +0.086 C 
ATOM     18  C   UNL     1      32.117 -12.792 -27.570  0.00  0.00    +0.010 C 
ENDBRANCH  10  17
ENDBRANCH   2   9
BRANCH   1  19
ATOM     19  C   UNL     1      36.367 -18.866 -22.567  0.00  0.00    -0.042 C 
BRANCH  19  20
ATOM     20  C   UNL     1      36.047 -18.762 -21.071  0.00  0.00    +0.118 C 
BRANCH  20  22
ATOM     21  S   UNL     1      35.248 -21.120 -19.815  0.00  0.00    -0.088 S 
ATOM     22  C   UNL     1      34.910 -19.682 -20.682  0.00  0.00    +0.032 C 
ATOM     23  C   UNL     1      33.564 -19.534 -20.933  0.00  0.00    +0.005 C 
ATOM     24  C   UNL     1      32.800 -20.615 -20.406  0.00  0.00    +0.007 C 
ATOM     25  C   UNL     1      33.591 -21.548 -19.773  0.00  0.00    +0.035 C 
ENDBRANCH  20  22
BRANCH  20  26
ATOM     26  O   UNL     1      37.190 -19.114 -20.295  0.00  0.00    -0.382 OA
ATOM     27  H   UNL     1      37.546 -18.320 -19.865  0.00  0.00    +0.211 HD
ENDBRANCH  20  26
ENDBRANCH  19  20
ENDBRANCH   1  19
TORSDOF 7
ENDMDL
