MODEL 1
REMARK VINA RESULT:      -8.5      0.000      0.000
REMARK  Name = 5289221
REMARK  8 active torsions:
REMARK  status: ('A' for Active; 'I' for Inactive)
REMARK    1  A    between atoms: C_1  and  C_7
REMARK    2  A    between atoms: C_6  and  O_19
REMARK    3  A    between atoms: C_8  and  C_12
REMARK    4  A    between atoms: C_9  and  C_16
REMARK    5  A    between atoms: C_16  and  O_17
REMARK    6  A    between atoms: O_19  and  P_20
REMARK    7  A    between atoms: P_20  and  O_22
REMARK    8  A    between atoms: P_20  and  O_24
REMARK                            x       y       z     vdW  Elec       q    Type
REMARK                         _______ _______ _______ _____ _____    ______ ____
ROOT
ATOM      1  C   UNL     1      37.083 -24.190 -14.872  0.00  0.00    -0.021 C 
ATOM      2  C   UNL     1      36.599 -22.897 -15.067  0.00  0.00    -0.001 C 
ATOM      3  C   UNL     1      36.206 -25.275 -14.901  0.00  0.00    -0.001 C 
ATOM      4  C   UNL     1      35.238 -22.689 -15.294  0.00  0.00    +0.037 C 
ATOM      5  C   UNL     1      34.846 -25.067 -15.127  0.00  0.00    +0.037 C 
ATOM      6  C   UNL     1      34.362 -23.773 -15.324  0.00  0.00    +0.149 C 
ENDROOT
BRANCH   1   7
ATOM      7  C   UNL     1      38.536 -24.413 -14.629  0.00  0.00    +0.043 C 
ATOM      8  C   UNL     1      39.002 -24.732 -13.241  0.00  0.00    +0.092 C 
ATOM      9  C   UNL     1      39.062 -25.779 -14.314  0.00  0.00    +0.112 C 
BRANCH   8  12
ATOM     10  O   UNL     1      37.662 -25.985 -11.797  0.00  0.00    -0.275 OA
ATOM     11  N   UNL     1      37.534 -23.663 -11.680  0.00  0.00    -0.303 N 
ATOM     12  C   UNL     1      38.001 -24.868 -12.169  0.00  0.00    +0.223 C 
ATOM     13  C   UNL     1      36.547 -23.566 -10.628  0.00  0.00    +0.111 C 
ATOM     14  H   UNL     1      37.889 -22.831 -12.067  0.00  0.00    +0.149 HD
ENDBRANCH   8  12
BRANCH   9  16
ATOM     15  O   UNL     1      41.215 -26.736 -14.076  0.00  0.00    -0.250 OA
ATOM     16  C   UNL     1      40.381 -26.218 -14.804  0.00  0.00    +0.314 C 
BRANCH  16  17
ATOM     17  O   UNL     1      40.545 -25.981 -16.127  0.00  0.00    -0.480 OA
ATOM     18  H   UNL     1      41.378 -26.130 -16.530  0.00  0.00    +0.295 HD
ENDBRANCH  16  17
ENDBRANCH   9  16
ENDBRANCH   1   7
BRANCH   6  19
ATOM     19  O   UNL     1      33.034 -23.570 -15.545  0.00  0.00    -0.403 OA
BRANCH  19  20
ATOM     20  P   UNL     1      31.865 -23.757 -14.441  0.00  0.00    +0.528 P 
ATOM     21  O   UNL     1      31.347 -25.157 -14.286  0.00  0.00    -0.216 OA
BRANCH  20  22
ATOM     22  O   UNL     1      32.475 -23.083 -13.103  0.00  0.00    -0.293 OA
ATOM     23  H   UNL     1      33.056 -22.346 -13.348  0.00  0.00    +0.223 HD
ENDBRANCH  20  22
BRANCH  20  24
ATOM     24  O   UNL     1      30.752 -22.680 -14.913  0.00  0.00    -0.293 OA
ATOM     25  H   UNL     1      30.155 -22.487 -14.173  0.00  0.00    +0.223 HD
ENDBRANCH  20  24
ENDBRANCH  19  20
ENDBRANCH   6  19
TORSDOF 8
ENDMDL
MODEL 2
REMARK VINA RESULT:      -8.1      2.712      6.917
REMARK  Name = 5289221
REMARK  8 active torsions:
REMARK  status: ('A' for Active; 'I' for Inactive)
REMARK    1  A    between atoms: C_1  and  C_7
REMARK    2  A    between atoms: C_6  and  O_19
REMARK    3  A    between atoms: C_8  and  C_12
REMARK    4  A    between atoms: C_9  and  C_16
REMARK    5  A    between atoms: C_16  and  O_17
REMARK    6  A    between atoms: O_19  and  P_20
REMARK    7  A    between atoms: P_20  and  O_22
REMARK    8  A    between atoms: P_20  and  O_24
REMARK                            x       y       z     vdW  Elec       q    Type
REMARK                         _______ _______ _______ _____ _____    ______ ____
ROOT
ATOM      1  C   UNL     1      35.392 -24.653 -13.956  0.00  0.00    -0.021 C 
ATOM      2  C   UNL     1      36.346 -24.353 -12.984  0.00  0.00    -0.001 C 
ATOM      3  C   UNL     1      35.670 -25.606 -14.936  0.00  0.00    -0.001 C 
ATOM      4  C   UNL     1      37.578 -25.008 -12.991  0.00  0.00    +0.037 C 
ATOM      5  C   UNL     1      36.901 -26.260 -14.943  0.00  0.00    +0.037 C 
ATOM      6  C   UNL     1      37.855 -25.961 -13.970  0.00  0.00    +0.149 C 
ENDROOT
BRANCH   1   7
ATOM      7  C   UNL     1      34.076 -23.953 -13.950  0.00  0.00    +0.043 C 
ATOM      8  C   UNL     1      33.714 -23.072 -15.106  0.00  0.00    +0.092 C 
ATOM      9  C   UNL     1      32.982 -24.364 -14.886  0.00  0.00    +0.112 C 
BRANCH   8  12
ATOM     10  O   UNL     1      34.356 -23.479 -17.314  0.00  0.00    -0.275 OA
ATOM     11  N   UNL     1      35.807 -22.272 -15.951  0.00  0.00    -0.303 N 
ATOM     12  C   UNL     1      34.648 -22.967 -16.240  0.00  0.00    +0.223 C 
ATOM     13  C   UNL     1      36.859 -22.052 -16.917  0.00  0.00    +0.111 C 
ATOM     14  H   UNL     1      35.921 -21.908 -15.043  0.00  0.00    +0.149 HD
ENDBRANCH   8  12
BRANCH   9  16
ATOM     15  O   UNL     1      30.652 -24.202 -15.273  0.00  0.00    -0.250 OA
ATOM     16  C   UNL     1      31.568 -24.317 -14.473  0.00  0.00    +0.314 C 
BRANCH  16  17
ATOM     17  O   UNL     1      31.420 -24.416 -13.131  0.00  0.00    -0.480 OA
ATOM     18  H   UNL     1      31.215 -23.654 -12.624  0.00  0.00    +0.295 HD
ENDBRANCH  16  17
ENDBRANCH   9  16
ENDBRANCH   1   7
BRANCH   6  19
ATOM     19  O   UNL     1      39.058 -26.600 -13.977  0.00  0.00    -0.403 OA
BRANCH  19  20
ATOM     20  P   UNL     1      40.464 -25.938 -14.430  0.00  0.00    +0.528 P 
ATOM     21  O   UNL     1      40.758 -24.591 -13.838  0.00  0.00    -0.216 OA
BRANCH  20  22
ATOM     22  O   UNL     1      41.558 -27.090 -14.130  0.00  0.00    -0.293 OA
ATOM     23  H   UNL     1      41.475 -27.382 -13.208  0.00  0.00    +0.223 HD
ENDBRANCH  20  22
BRANCH  20  24
ATOM     24  O   UNL     1      40.360 -25.950 -16.046  0.00  0.00    -0.293 OA
ATOM     25  H   UNL     1      41.146 -26.380 -16.417  0.00  0.00    +0.223 HD
ENDBRANCH  20  24
ENDBRANCH  19  20
ENDBRANCH   6  19
TORSDOF 8
ENDMDL
MODEL 3
REMARK VINA RESULT:      -7.7      3.158      7.200
REMARK  Name = 5289221
REMARK  8 active torsions:
REMARK  status: ('A' for Active; 'I' for Inactive)
REMARK    1  A    between atoms: C_1  and  C_7
REMARK    2  A    between atoms: C_6  and  O_19
REMARK    3  A    between atoms: C_8  and  C_12
REMARK    4  A    between atoms: C_9  and  C_16
REMARK    5  A    between atoms: C_16  and  O_17
REMARK    6  A    between atoms: O_19  and  P_20
REMARK    7  A    between atoms: P_20  and  O_22
REMARK    8  A    between atoms: P_20  and  O_24
REMARK                            x       y       z     vdW  Elec       q    Type
REMARK                         _______ _______ _______ _____ _____    ______ ____
ROOT
ATOM      1  C   UNL     1      34.680 -23.376 -15.353  0.00  0.00    -0.021 C 
ATOM      2  C   UNL     1      35.656 -22.384 -15.456  0.00  0.00    -0.001 C 
ATOM      3  C   UNL     1      35.055 -24.705 -15.151  0.00  0.00    -0.001 C 
ATOM      4  C   UNL     1      37.006 -22.721 -15.355  0.00  0.00    +0.037 C 
ATOM      5  C   UNL     1      36.404 -25.042 -15.051  0.00  0.00    +0.037 C 
ATOM      6  C   UNL     1      37.379 -24.049 -15.153  0.00  0.00    +0.149 C 
ENDROOT
BRANCH   1   7
ATOM      7  C   UNL     1      33.238 -23.016 -15.460  0.00  0.00    +0.043 C 
ATOM      8  C   UNL     1      32.624 -22.866 -16.819  0.00  0.00    +0.092 C 
ATOM      9  C   UNL     1      32.230 -24.015 -15.938  0.00  0.00    +0.112 C 
BRANCH   8  12
ATOM     10  O   UNL     1      33.560 -24.277 -18.426  0.00  0.00    -0.275 OA
ATOM     11  N   UNL     1      34.049 -22.004 -18.540  0.00  0.00    -0.303 N 
ATOM     12  C   UNL     1      33.454 -23.132 -18.007  0.00  0.00    +0.223 C 
ATOM     13  C   UNL     1      34.905 -22.038 -19.705  0.00  0.00    +0.111 C 
ATOM     14  H   UNL     1      33.883 -21.137 -18.106  0.00  0.00    +0.149 HD
ENDBRANCH   8  12
BRANCH   9  16
ATOM     15  O   UNL     1      30.513 -23.318 -14.465  0.00  0.00    -0.250 OA
ATOM     16  C   UNL     1      30.866 -24.046 -15.380  0.00  0.00    +0.314 C 
BRANCH  16  17
ATOM     17  O   UNL     1      30.078 -24.958 -15.997  0.00  0.00    -0.480 OA
ATOM     18  H   UNL     1      30.461 -25.613 -16.547  0.00  0.00    +0.295 HD
ENDBRANCH  16  17
ENDBRANCH   9  16
ENDBRANCH   1   7
BRANCH   6  19
ATOM     19  O   UNL     1      38.697 -24.379 -15.055  0.00  0.00    -0.403 OA
BRANCH  19  20
ATOM     20  P   UNL     1      39.322 -25.413 -13.978  0.00  0.00    +0.528 P 
ATOM     21  O   UNL     1      38.669 -25.404 -12.627  0.00  0.00    -0.216 OA
BRANCH  20  22
ATOM     22  O   UNL     1      39.319 -26.835 -14.748  0.00  0.00    -0.293 OA
ATOM     23  H   UNL     1      39.826 -26.757 -15.572  0.00  0.00    +0.223 HD
ENDBRANCH  20  22
BRANCH  20  24
ATOM     24  O   UNL     1      40.890 -25.012 -13.965  0.00  0.00    -0.293 OA
ATOM     25  H   UNL     1      41.285 -25.221 -14.826  0.00  0.00    +0.223 HD
ENDBRANCH  20  24
ENDBRANCH  19  20
ENDBRANCH   6  19
TORSDOF 8
ENDMDL
MODEL 4
REMARK VINA RESULT:      -7.6      3.592      5.286
REMARK  Name = 5289221
REMARK  8 active torsions:
REMARK  status: ('A' for Active; 'I' for Inactive)
REMARK    1  A    between atoms: C_1  and  C_7
REMARK    2  A    between atoms: C_6  and  O_19
REMARK    3  A    between atoms: C_8  and  C_12
REMARK    4  A    between atoms: C_9  and  C_16
REMARK    5  A    between atoms: C_16  and  O_17
REMARK    6  A    between atoms: O_19  and  P_20
REMARK    7  A    between atoms: P_20  and  O_22
REMARK    8  A    between atoms: P_20  and  O_24
REMARK                            x       y       z     vdW  Elec       q    Type
REMARK                         _______ _______ _______ _____ _____    ______ ____
ROOT
ATOM      1  C   UNL     1      32.536 -24.333 -13.762  0.00  0.00    -0.021 C 
ATOM      2  C   UNL     1      31.671 -25.302 -14.270  0.00  0.00    -0.001 C 
ATOM      3  C   UNL     1      32.134 -22.998 -13.707  0.00  0.00    -0.001 C 
ATOM      4  C   UNL     1      30.403 -24.937 -14.721  0.00  0.00    +0.037 C 
ATOM      5  C   UNL     1      30.866 -22.633 -14.159  0.00  0.00    +0.037 C 
ATOM      6  C   UNL     1      30.001 -23.603 -14.665  0.00  0.00    +0.149 C 
ENDROOT
BRANCH   1   7
ATOM      7  C   UNL     1      33.891 -24.723 -13.280  0.00  0.00    +0.043 C 
ATOM      8  C   UNL     1      35.097 -24.253 -14.037  0.00  0.00    +0.092 C 
ATOM      9  C   UNL     1      34.810 -23.712 -12.666  0.00  0.00    +0.112 C 
BRANCH   8  12
ATOM     10  O   UNL     1      35.398 -22.254 -15.203  0.00  0.00    -0.275 OA
ATOM     11  N   UNL     1      34.154 -23.941 -16.216  0.00  0.00    -0.303 N 
ATOM     12  C   UNL     1      34.905 -23.375 -15.204  0.00  0.00    +0.223 C 
ATOM     13  C   UNL     1      33.844 -23.254 -17.449  0.00  0.00    +0.111 C 
ATOM     14  H   UNL     1      33.814 -24.856 -16.091  0.00  0.00    +0.149 HD
ENDBRANCH   8  12
BRANCH   9  16
ATOM     15  O   UNL     1      36.768 -23.499 -11.353  0.00  0.00    -0.250 OA
ATOM     16  C   UNL     1      35.710 -24.076 -11.558  0.00  0.00    +0.314 C 
BRANCH  16  17
ATOM     17  O   UNL     1      35.227 -25.100 -10.816  0.00  0.00    -0.480 OA
ATOM     18  H   UNL     1      35.187 -25.963 -11.179  0.00  0.00    +0.295 HD
ENDBRANCH  16  17
ENDBRANCH   9  16
ENDBRANCH   1   7
BRANCH   6  19
ATOM     19  O   UNL     1      28.762 -23.246 -15.106  0.00  0.00    -0.403 OA
BRANCH  19  20
ATOM     20  P   UNL     1      28.373 -22.939 -16.647  0.00  0.00    +0.528 P 
ATOM     21  O   UNL     1      27.791 -24.097 -17.404  0.00  0.00    -0.216 OA
BRANCH  20  22
ATOM     22  O   UNL     1      27.444 -21.618 -16.564  0.00  0.00    -0.293 OA
ATOM     23  H   UNL     1      27.469 -21.262 -15.662  0.00  0.00    +0.223 HD
ENDBRANCH  20  22
BRANCH  20  24
ATOM     24  O   UNL     1      29.759 -22.368 -17.259  0.00  0.00    -0.293 OA
ATOM     25  H   UNL     1      30.344 -23.109 -17.480  0.00  0.00    +0.223 HD
ENDBRANCH  20  24
ENDBRANCH  19  20
ENDBRANCH   6  19
TORSDOF 8
ENDMDL
MODEL 5
REMARK VINA RESULT:      -7.5      2.466      3.733
REMARK  Name = 5289221
REMARK  8 active torsions:
REMARK  status: ('A' for Active; 'I' for Inactive)
REMARK    1  A    between atoms: C_1  and  C_7
REMARK    2  A    between atoms: C_6  and  O_19
REMARK    3  A    between atoms: C_8  and  C_12
REMARK    4  A    between atoms: C_9  and  C_16
REMARK    5  A    between atoms: C_16  and  O_17
REMARK    6  A    between atoms: O_19  and  P_20
REMARK    7  A    between atoms: P_20  and  O_22
REMARK    8  A    between atoms: P_20  and  O_24
REMARK                            x       y       z     vdW  Elec       q    Type
REMARK                         _______ _______ _______ _____ _____    ______ ____
ROOT
ATOM      1  C   UNL     1      34.275 -24.519 -14.989  0.00  0.00    -0.021 C 
ATOM      2  C   UNL     1      33.503 -24.358 -13.839  0.00  0.00    -0.001 C 
ATOM      3  C   UNL     1      33.861 -23.947 -16.193  0.00  0.00    -0.001 C 
ATOM      4  C   UNL     1      32.317 -23.624 -13.892  0.00  0.00    +0.037 C 
ATOM      5  C   UNL     1      32.676 -23.214 -16.246  0.00  0.00    +0.037 C 
ATOM      6  C   UNL     1      31.904 -23.053 -15.095  0.00  0.00    +0.149 C 
ENDROOT
BRANCH   1   7
ATOM      7  C   UNL     1      35.541 -25.303 -14.933  0.00  0.00    +0.043 C 
ATOM      8  C   UNL     1      36.848 -24.587 -15.091  0.00  0.00    +0.092 C 
ATOM      9  C   UNL     1      36.470 -25.181 -13.765  0.00  0.00    +0.112 C 
BRANCH   8  12
ATOM     10  O   UNL     1      36.573 -22.415 -14.279  0.00  0.00    -0.275 OA
ATOM     11  N   UNL     1      37.155 -22.688 -16.517  0.00  0.00    -0.303 N 
ATOM     12  C   UNL     1      36.843 -23.122 -15.242  0.00  0.00    +0.223 C 
ATOM     13  C   UNL     1      37.206 -21.291 -16.886  0.00  0.00    +0.111 C 
ATOM     14  H   UNL     1      37.352 -23.362 -17.206  0.00  0.00    +0.149 HD
ENDBRANCH   8  12
BRANCH   9  16
ATOM     15  O   UNL     1      37.809 -27.117 -14.012  0.00  0.00    -0.250 OA
ATOM     16  C   UNL     1      37.224 -26.345 -13.268  0.00  0.00    +0.314 C 
BRANCH  16  17
ATOM     17  O   UNL     1      37.188 -26.445 -11.918  0.00  0.00    -0.480 OA
ATOM     18  H   UNL     1      36.513 -26.010 -11.434  0.00  0.00    +0.295 HD
ENDBRANCH  16  17
ENDBRANCH   9  16
ENDBRANCH   1   7
BRANCH   6  19
ATOM     19  O   UNL     1      30.747 -22.336 -15.146  0.00  0.00    -0.403 OA
BRANCH  19  20
ATOM     20  P   UNL     1      29.319 -22.907 -15.651  0.00  0.00    +0.528 P 
ATOM     21  O   UNL     1      29.053 -24.347 -15.325  0.00  0.00    -0.216 OA
BRANCH  20  22
ATOM     22  O   UNL     1      28.243 -21.847 -15.072  0.00  0.00    -0.293 OA
ATOM     23  H   UNL     1      28.330 -21.794 -14.107  0.00  0.00    +0.223 HD
ENDBRANCH  20  22
BRANCH  20  24
ATOM     24  O   UNL     1      29.339 -22.572 -17.235  0.00  0.00    -0.293 OA
ATOM     25  H   UNL     1      28.439 -22.373 -17.535  0.00  0.00    +0.223 HD
ENDBRANCH  20  24
ENDBRANCH  19  20
ENDBRANCH   6  19
TORSDOF 8
ENDMDL
MODEL 6
REMARK VINA RESULT:      -7.5      2.825      4.559
REMARK  Name = 5289221
REMARK  8 active torsions:
REMARK  status: ('A' for Active; 'I' for Inactive)
REMARK    1  A    between atoms: C_1  and  C_7
REMARK    2  A    between atoms: C_6  and  O_19
REMARK    3  A    between atoms: C_8  and  C_12
REMARK    4  A    between atoms: C_9  and  C_16
REMARK    5  A    between atoms: C_16  and  O_17
REMARK    6  A    between atoms: O_19  and  P_20
REMARK    7  A    between atoms: P_20  and  O_22
REMARK    8  A    between atoms: P_20  and  O_24
REMARK                            x       y       z     vdW  Elec       q    Type
REMARK                         _______ _______ _______ _____ _____    ______ ____
ROOT
ATOM      1  C   UNL     1      35.249 -23.843 -14.180  0.00  0.00    -0.021 C 
ATOM      2  C   UNL     1      34.204 -24.182 -15.038  0.00  0.00    -0.001 C 
ATOM      3  C   UNL     1      36.267 -22.996 -14.621  0.00  0.00    -0.001 C 
ATOM      4  C   UNL     1      34.175 -23.673 -16.337  0.00  0.00    +0.037 C 
ATOM      5  C   UNL     1      36.238 -22.488 -15.919  0.00  0.00    +0.037 C 
ATOM      6  C   UNL     1      35.192 -22.827 -16.777  0.00  0.00    +0.149 C 
ENDROOT
BRANCH   1   7
ATOM      7  C   UNL     1      35.280 -24.387 -12.793  0.00  0.00    +0.043 C 
ATOM      8  C   UNL     1      36.328 -25.395 -12.429  0.00  0.00    +0.092 C 
ATOM      9  C   UNL     1      36.378 -24.014 -11.845  0.00  0.00    +0.112 C 
BRANCH   8  12
ATOM     10  O   UNL     1      36.983 -26.443 -14.410  0.00  0.00    -0.275 OA
ATOM     11  N   UNL     1      38.604 -25.323 -13.170  0.00  0.00    -0.303 N 
ATOM     12  C   UNL     1      37.327 -25.778 -13.441  0.00  0.00    +0.223 C 
ATOM     13  C   UNL     1      39.736 -25.585 -14.030  0.00  0.00    +0.111 C 
ATOM     14  H   UNL     1      38.749 -24.795 -12.352  0.00  0.00    +0.149 HD
ENDBRANCH   8  12
BRANCH   9  16
ATOM     15  O   UNL     1      35.363 -24.576  -9.782  0.00  0.00    -0.250 OA
ATOM     16  C   UNL     1      36.115 -23.842 -10.405  0.00  0.00    +0.314 C 
BRANCH  16  17
ATOM     17  O   UNL     1      36.796 -22.797  -9.878  0.00  0.00    -0.480 OA
ATOM     18  H   UNL     1      36.651 -21.931 -10.204  0.00  0.00    +0.295 HD
ENDBRANCH  16  17
ENDBRANCH   9  16
ENDBRANCH   1   7
BRANCH   6  19
ATOM     19  O   UNL     1      35.164 -22.330 -18.044  0.00  0.00    -0.403 OA
BRANCH  19  20
ATOM     20  P   UNL     1      33.888 -22.385 -19.040  0.00  0.00    +0.528 P 
ATOM     21  O   UNL     1      32.550 -22.238 -18.376  0.00  0.00    -0.216 OA
BRANCH  20  22
ATOM     22  O   UNL     1      34.230 -21.290 -20.180  0.00  0.00    -0.293 OA
ATOM     23  H   UNL     1      35.059 -21.531 -20.622  0.00  0.00    +0.223 HD
ENDBRANCH  20  22
BRANCH  20  24
ATOM     24  O   UNL     1      34.100 -23.791 -19.814  0.00  0.00    -0.293 OA
ATOM     25  H   UNL     1      33.255 -24.084 -20.190  0.00  0.00    +0.223 HD
ENDBRANCH  20  24
ENDBRANCH  19  20
ENDBRANCH   6  19
TORSDOF 8
ENDMDL
MODEL 7
REMARK VINA RESULT:      -7.4      8.318     10.861
REMARK  Name = 5289221
REMARK  8 active torsions:
REMARK  status: ('A' for Active; 'I' for Inactive)
REMARK    1  A    between atoms: C_1  and  C_7
REMARK    2  A    between atoms: C_6  and  O_19
REMARK    3  A    between atoms: C_8  and  C_12
REMARK    4  A    between atoms: C_9  and  C_16
REMARK    5  A    between atoms: C_16  and  O_17
REMARK    6  A    between atoms: O_19  and  P_20
REMARK    7  A    between atoms: P_20  and  O_22
REMARK    8  A    between atoms: P_20  and  O_24
REMARK                            x       y       z     vdW  Elec       q    Type
REMARK                         _______ _______ _______ _____ _____    ______ ____
ROOT
ATOM      1  C   UNL     1      34.661 -18.370 -21.122  0.00  0.00    -0.021 C 
ATOM      2  C   UNL     1      33.285 -18.567 -21.002  0.00  0.00    -0.001 C 
ATOM      3  C   UNL     1      35.543 -19.406 -20.813  0.00  0.00    -0.001 C 
ATOM      4  C   UNL     1      32.791 -19.800 -20.575  0.00  0.00    +0.037 C 
ATOM      5  C   UNL     1      35.049 -20.638 -20.385  0.00  0.00    +0.037 C 
ATOM      6  C   UNL     1      33.673 -20.835 -20.266  0.00  0.00    +0.149 C 
ENDROOT
BRANCH   1   7
ATOM      7  C   UNL     1      35.188 -17.054 -21.579  0.00  0.00    +0.043 C 
ATOM      8  C   UNL     1      35.246 -16.762 -23.048  0.00  0.00    +0.092 C 
ATOM      9  C   UNL     1      34.277 -16.024 -22.171  0.00  0.00    +0.112 C 
BRANCH   8  12
ATOM     10  O   UNL     1      33.810 -17.470 -24.747  0.00  0.00    -0.275 OA
ATOM     11  N   UNL     1      35.367 -18.989 -23.918  0.00  0.00    -0.303 N 
ATOM     12  C   UNL     1      34.728 -17.766 -23.993  0.00  0.00    +0.223 C 
ATOM     13  C   UNL     1      35.017 -20.116 -24.753  0.00  0.00    +0.111 C 
ATOM     14  H   UNL     1      36.095 -19.099 -23.264  0.00  0.00    +0.149 HD
ENDBRANCH   8  12
BRANCH   9  16
ATOM     15  O   UNL     1      34.261 -13.734 -22.772  0.00  0.00    -0.250 OA
ATOM     16  C   UNL     1      34.493 -14.586 -21.928  0.00  0.00    +0.314 C 
BRANCH  16  17
ATOM     17  O   UNL     1      34.967 -14.339 -20.684  0.00  0.00    -0.480 OA
ATOM     18  H   UNL     1      35.307 -13.492 -20.471  0.00  0.00    +0.295 HD
ENDBRANCH  16  17
ENDBRANCH   9  16
ENDBRANCH   1   7
BRANCH   6  19
ATOM     19  O   UNL     1      33.192 -22.038 -19.849  0.00  0.00    -0.403 OA
BRANCH  19  20
ATOM     20  P   UNL     1      33.728 -22.862 -18.563  0.00  0.00    +0.528 P 
ATOM     21  O   UNL     1      35.060 -22.421 -18.029  0.00  0.00    -0.216 OA
BRANCH  20  22
ATOM     22  O   UNL     1      32.498 -22.802 -17.514  0.00  0.00    -0.293 OA
ATOM     23  H   UNL     1      32.680 -22.129 -16.840  0.00  0.00    +0.223 HD
ENDBRANCH  20  22
BRANCH  20  24
ATOM     24  O   UNL     1      33.689 -24.396 -19.079  0.00  0.00    -0.293 OA
ATOM     25  H   UNL     1      32.899 -24.835 -18.726  0.00  0.00    +0.223 HD
ENDBRANCH  20  24
ENDBRANCH  19  20
ENDBRANCH   6  19
TORSDOF 8
ENDMDL
MODEL 8
REMARK VINA RESULT:      -7.3      2.956      4.345
REMARK  Name = 5289221
REMARK  8 active torsions:
REMARK  status: ('A' for Active; 'I' for Inactive)
REMARK    1  A    between atoms: C_1  and  C_7
REMARK    2  A    between atoms: C_6  and  O_19
REMARK    3  A    between atoms: C_8  and  C_12
REMARK    4  A    between atoms: C_9  and  C_16
REMARK    5  A    between atoms: C_16  and  O_17
REMARK    6  A    between atoms: O_19  and  P_20
REMARK    7  A    between atoms: P_20  and  O_22
REMARK    8  A    between atoms: P_20  and  O_24
REMARK                            x       y       z     vdW  Elec       q    Type
REMARK                         _______ _______ _______ _____ _____    ______ ____
ROOT
ATOM      1  C   UNL     1      33.446 -24.298 -13.727  0.00  0.00    -0.021 C 
ATOM      2  C   UNL     1      33.601 -23.165 -14.525  0.00  0.00    -0.001 C 
ATOM      3  C   UNL     1      32.284 -25.064 -13.822  0.00  0.00    -0.001 C 
ATOM      4  C   UNL     1      32.595 -22.798 -15.419  0.00  0.00    +0.037 C 
ATOM      5  C   UNL     1      31.278 -24.697 -14.714  0.00  0.00    +0.037 C 
ATOM      6  C   UNL     1      31.434 -23.564 -15.513  0.00  0.00    +0.149 C 
ENDROOT
BRANCH   1   7
ATOM      7  C   UNL     1      34.521 -24.690 -12.772  0.00  0.00    +0.043 C 
ATOM      8  C   UNL     1      35.931 -24.803 -13.269  0.00  0.00    +0.092 C 
ATOM      9  C   UNL     1      35.551 -23.699 -12.325  0.00  0.00    +0.112 C 
BRANCH   8  12
ATOM     10  O   UNL     1      35.896 -25.254 -15.559  0.00  0.00    -0.275 OA
ATOM     11  N   UNL     1      36.850 -23.253 -14.847  0.00  0.00    -0.303 N 
ATOM     12  C   UNL     1      36.218 -24.470 -14.675  0.00  0.00    +0.223 C 
ATOM     13  C   UNL     1      37.224 -22.733 -16.143  0.00  0.00    +0.111 C 
ATOM     14  H   UNL     1      37.055 -22.715 -14.049  0.00  0.00    +0.149 HD
ENDBRANCH   8  12
BRANCH   9  16
ATOM     15  O   UNL     1      35.555 -24.355 -10.050  0.00  0.00    -0.250 OA
ATOM     16  C   UNL     1      36.086 -23.724 -10.952  0.00  0.00    +0.314 C 
BRANCH  16  17
ATOM     17  O   UNL     1      37.210 -22.980 -10.823  0.00  0.00    -0.480 OA
ATOM     18  H   UNL     1      37.712 -23.023 -10.033  0.00  0.00    +0.295 HD
ENDBRANCH  16  17
ENDBRANCH   9  16
ENDBRANCH   1   7
BRANCH   6  19
ATOM     19  O   UNL     1      30.451 -23.207 -16.385  0.00  0.00    -0.403 OA
BRANCH  19  20
ATOM     20  P   UNL     1      28.862 -23.361 -16.115  0.00  0.00    +0.528 P 
ATOM     21  O   UNL     1      28.458 -24.594 -15.360  0.00  0.00    -0.216 OA
BRANCH  20  22
ATOM     22  O   UNL     1      28.438 -21.955 -15.440  0.00  0.00    -0.293 OA
ATOM     23  H   UNL     1      27.556 -22.039 -15.044  0.00  0.00    +0.223 HD
ENDBRANCH  20  22
BRANCH  20  24
ATOM     24  O   UNL     1      28.234 -23.252 -17.603  0.00  0.00    -0.293 OA
ATOM     25  H   UNL     1      27.285 -23.447 -17.569  0.00  0.00    +0.223 HD
ENDBRANCH  20  24
ENDBRANCH  19  20
ENDBRANCH   6  19
TORSDOF 8
ENDMDL
MODEL 9
REMARK VINA RESULT:      -7.0      8.932     11.671
REMARK  Name = 5289221
REMARK  8 active torsions:
REMARK  status: ('A' for Active; 'I' for Inactive)
REMARK    1  A    between atoms: C_1  and  C_7
REMARK    2  A    between atoms: C_6  and  O_19
REMARK    3  A    between atoms: C_8  and  C_12
REMARK    4  A    between atoms: C_9  and  C_16
REMARK    5  A    between atoms: C_16  and  O_17
REMARK    6  A    between atoms: O_19  and  P_20
REMARK    7  A    between atoms: P_20  and  O_22
REMARK    8  A    between atoms: P_20  and  O_24
REMARK                            x       y       z     vdW  Elec       q    Type
REMARK                         _______ _______ _______ _____ _____    ______ ____
ROOT
ATOM      1  C   UNL     1      34.351 -17.425 -20.961  0.00  0.00    -0.021 C 
ATOM      2  C   UNL     1      35.597 -18.033 -20.804  0.00  0.00    -0.001 C 
ATOM      3  C   UNL     1      33.193 -18.203 -20.982  0.00  0.00    -0.001 C 
ATOM      4  C   UNL     1      35.683 -19.419 -20.666  0.00  0.00    +0.037 C 
ATOM      5  C   UNL     1      33.280 -19.587 -20.845  0.00  0.00    +0.037 C 
ATOM      6  C   UNL     1      34.526 -20.195 -20.687  0.00  0.00    +0.149 C 
ENDROOT
BRANCH   1   7
ATOM      7  C   UNL     1      34.258 -15.945 -21.108  0.00  0.00    +0.043 C 
ATOM      8  C   UNL     1      34.495 -15.331 -22.454  0.00  0.00    +0.092 C 
ATOM      9  C   UNL     1      33.120 -15.316 -21.851  0.00  0.00    +0.112 C 
BRANCH   8  12
ATOM     10  O   UNL     1      35.742 -16.945 -23.589  0.00  0.00    -0.275 OA
ATOM     11  N   UNL     1      33.824 -16.115 -24.615  0.00  0.00    -0.303 N 
ATOM     12  C   UNL     1      34.759 -16.215 -23.602  0.00  0.00    +0.223 C 
ATOM     13  C   UNL     1      33.893 -16.891 -25.833  0.00  0.00    +0.111 C 
ATOM     14  H   UNL     1      33.076 -15.485 -24.502  0.00  0.00    +0.149 HD
ENDBRANCH   8  12
BRANCH   9  16
ATOM     15  O   UNL     1      32.624 -13.628 -20.268  0.00  0.00    -0.250 OA
ATOM     16  C   UNL     1      32.548 -14.028 -21.420  0.00  0.00    +0.314 C 
BRANCH  16  17
ATOM     17  O   UNL     1      31.946 -13.365 -22.435  0.00  0.00    -0.480 OA
ATOM     18  H   UNL     1      31.790 -12.444 -22.366  0.00  0.00    +0.295 HD
ENDBRANCH  16  17
ENDBRANCH   9  16
ENDBRANCH   1   7
BRANCH   6  19
ATOM     19  O   UNL     1      34.610 -21.548 -20.553  0.00  0.00    -0.403 OA
BRANCH  19  20
ATOM     20  P   UNL     1      34.270 -22.375 -19.203  0.00  0.00    +0.528 P 
ATOM     21  O   UNL     1      35.280 -22.245 -18.101  0.00  0.00    -0.216 OA
BRANCH  20  22
ATOM     22  O   UNL     1      32.763 -21.919 -18.831  0.00  0.00    -0.293 OA
ATOM     23  H   UNL     1      32.641 -20.985 -19.064  0.00  0.00    +0.223 HD
ENDBRANCH  20  22
BRANCH  20  24
ATOM     24  O   UNL     1      34.067 -23.884 -19.750  0.00  0.00    -0.293 OA
ATOM     25  H   UNL     1      34.892 -24.382 -19.640  0.00  0.00    +0.223 HD
ENDBRANCH  20  24
ENDBRANCH  19  20
ENDBRANCH   6  19
TORSDOF 8
ENDMDL
