MODEL 1
REMARK VINA RESULT:      -7.0      0.000      0.000
REMARK  Name = 446312
REMARK  0 active torsions:
REMARK  status: ('A' for Active; 'I' for Inactive)
REMARK                            x       y       z     vdW  Elec       q    Type
REMARK                         _______ _______ _______ _____ _____    ______ ____
ROOT
ATOM      1  O   UNL     1      34.193 -17.455 -25.546  0.00  0.00    -0.401 OA
ATOM      2  O   UNL     1      34.044 -13.876 -22.742  0.00  0.00    -0.267 OA
ATOM      3  N   UNL     1      33.423 -13.596 -24.973  0.00  0.00    -0.242 N 
ATOM      4  N   UNL     1      34.545 -16.715 -23.428  0.00  0.00    -0.360 NA
ATOM      5  N   UNL     1      33.449 -15.382 -26.567  0.00  0.00    -0.336 NA
ATOM      6  N   UNL     1      32.780 -13.222 -27.204  0.00  0.00    -0.321 N 
ATOM      7  C   UNL     1      34.107 -15.699 -24.222  0.00  0.00    +0.254 C 
ATOM      8  C   UNL     1      33.885 -16.119 -25.516  0.00  0.00    +0.321 C 
ATOM      9  C   UNL     1      33.871 -14.327 -23.867  0.00  0.00    +0.288 C 
ATOM     10  C   UNL     1      34.576 -17.728 -24.265  0.00  0.00    +0.260 C 
ATOM     11  C   UNL     1      33.225 -14.122 -26.270  0.00  0.00    +0.241 C 
ATOM     12  C   UNL     1      34.972 -19.121 -24.000  0.00  0.00    +0.110 C 
ATOM     13  H   UNL     1      33.230 -12.640 -24.837  0.00  0.00    +0.159 HD
ATOM     14  H   UNL     1      32.621 -12.284 -26.949  0.00  0.00    +0.146 HD
ATOM     15  H   UNL     1      32.617 -13.514 -28.130  0.00  0.00    +0.146 HD
ENDROOT
TORSDOF 0
ENDMDL
MODEL 2
REMARK VINA RESULT:      -6.9     14.496     15.022
REMARK  Name = 446312
REMARK  0 active torsions:
REMARK  status: ('A' for Active; 'I' for Inactive)
REMARK                            x       y       z     vdW  Elec       q    Type
REMARK                         _______ _______ _______ _____ _____    ______ ____
ROOT
ATOM      1  O   UNL     1      37.960 -25.560 -14.586  0.00  0.00    -0.401 OA
ATOM      2  O   UNL     1      37.533 -22.689 -11.085  0.00  0.00    -0.267 OA
ATOM      3  N   UNL     1      35.632 -23.289 -12.298  0.00  0.00    -0.242 N 
ATOM      4  N   UNL     1      39.044 -24.448 -12.928  0.00  0.00    -0.360 NA
ATOM      5  N   UNL     1      35.698 -24.787 -14.164  0.00  0.00    -0.336 NA
ATOM      6  N   UNL     1      33.666 -23.839 -13.464  0.00  0.00    -0.321 N 
ATOM      7  C   UNL     1      37.710 -24.168 -12.900  0.00  0.00    +0.254 C 
ATOM      8  C   UNL     1      37.026 -24.830 -13.897  0.00  0.00    +0.321 C 
ATOM      9  C   UNL     1      36.999 -23.310 -11.994  0.00  0.00    +0.288 C 
ATOM     10  C   UNL     1      39.131 -25.276 -13.947  0.00  0.00    +0.260 C 
ATOM     11  C   UNL     1      35.022 -24.008 -13.349  0.00  0.00    +0.241 C 
ATOM     12  C   UNL     1      40.331 -25.937 -14.486  0.00  0.00    +0.110 C 
ATOM     13  H   UNL     1      35.052 -22.728 -11.734  0.00  0.00    +0.159 HD
ATOM     14  H   UNL     1      33.188 -23.248 -12.838  0.00  0.00    +0.146 HD
ATOM     15  H   UNL     1      33.169 -24.308 -14.173  0.00  0.00    +0.146 HD
ENDROOT
TORSDOF 0
ENDMDL
MODEL 3
REMARK VINA RESULT:      -6.8      2.504      3.756
REMARK  Name = 446312
REMARK  0 active torsions:
REMARK  status: ('A' for Active; 'I' for Inactive)
REMARK                            x       y       z     vdW  Elec       q    Type
REMARK                         _______ _______ _______ _____ _____    ______ ____
ROOT
ATOM      1  O   UNL     1      35.216 -17.828 -20.872  0.00  0.00    -0.401 OA
ATOM      2  O   UNL     1      34.596 -17.800 -25.378  0.00  0.00    -0.267 OA
ATOM      3  N   UNL     1      34.470 -15.788 -24.203  0.00  0.00    -0.242 N 
ATOM      4  N   UNL     1      35.137 -19.084 -22.763  0.00  0.00    -0.360 NA
ATOM      5  N   UNL     1      34.774 -15.643 -21.833  0.00  0.00    -0.336 NA
ATOM      6  N   UNL     1      34.326 -13.717 -23.100  0.00  0.00    -0.321 N 
ATOM      7  C   UNL     1      34.911 -17.771 -23.051  0.00  0.00    +0.254 C 
ATOM      8  C   UNL     1      34.953 -16.984 -21.920  0.00  0.00    +0.321 C 
ATOM      9  C   UNL     1      34.650 -17.171 -24.329  0.00  0.00    +0.288 C 
ATOM     10  C   UNL     1      35.311 -19.056 -21.460  0.00  0.00    +0.260 C 
ATOM     11  C   UNL     1      34.534 -15.067 -22.989  0.00  0.00    +0.241 C 
ATOM     12  C   UNL     1      35.595 -20.180 -20.552  0.00  0.00    +0.110 C 
ATOM     13  H   UNL     1      34.285 -15.278 -25.025  0.00  0.00    +0.159 HD
ATOM     14  H   UNL     1      34.148 -13.316 -23.981  0.00  0.00    +0.146 HD
ATOM     15  H   UNL     1      34.355 -13.147 -22.297  0.00  0.00    +0.146 HD
ENDROOT
TORSDOF 0
ENDMDL
MODEL 4
REMARK VINA RESULT:      -6.8      1.346      3.879
REMARK  Name = 446312
REMARK  0 active torsions:
REMARK  status: ('A' for Active; 'I' for Inactive)
REMARK                            x       y       z     vdW  Elec       q    Type
REMARK                         _______ _______ _______ _____ _____    ______ ____
ROOT
ATOM      1  O   UNL     1      33.508 -15.498 -26.610  0.00  0.00    -0.401 OA
ATOM      2  O   UNL     1      34.208 -14.908 -22.155  0.00  0.00    -0.267 OA
ATOM      3  N   UNL     1      34.617 -17.001 -23.099  0.00  0.00    -0.242 N 
ATOM      4  N   UNL     1      33.431 -14.032 -24.876  0.00  0.00    -0.360 NA
ATOM      5  N   UNL     1      34.296 -17.465 -25.426  0.00  0.00    -0.336 NA
ATOM      6  N   UNL     1      35.055 -19.142 -23.967  0.00  0.00    -0.321 N 
ATOM      7  C   UNL     1      33.859 -15.254 -24.451  0.00  0.00    +0.254 C 
ATOM      8  C   UNL     1      33.917 -16.165 -25.484  0.00  0.00    +0.321 C 
ATOM      9  C   UNL     1      34.231 -15.655 -23.123  0.00  0.00    +0.288 C 
ATOM     10  C   UNL     1      33.239 -14.238 -26.161  0.00  0.00    +0.260 C 
ATOM     11  C   UNL     1      34.642 -17.860 -24.221  0.00  0.00    +0.241 C 
ATOM     12  C   UNL     1      32.770 -13.283 -27.179  0.00  0.00    +0.110 C 
ATOM     13  H   UNL     1      34.893 -17.378 -22.232  0.00  0.00    +0.159 HD
ATOM     14  H   UNL     1      35.308 -19.407 -23.053  0.00  0.00    +0.146 HD
ATOM     15  H   UNL     1      35.100 -19.799 -24.699  0.00  0.00    +0.146 HD
ENDROOT
TORSDOF 0
ENDMDL
MODEL 5
REMARK VINA RESULT:      -6.8      1.606      2.507
REMARK  Name = 446312
REMARK  0 active torsions:
REMARK  status: ('A' for Active; 'I' for Inactive)
REMARK                            x       y       z     vdW  Elec       q    Type
REMARK                         _______ _______ _______ _____ _____    ______ ____
ROOT
ATOM      1  O   UNL     1      34.834 -16.924 -23.326  0.00  0.00    -0.401 OA
ATOM      2  O   UNL     1      32.994 -15.209 -27.115  0.00  0.00    -0.267 OA
ATOM      3  N   UNL     1      33.411 -13.787 -25.313  0.00  0.00    -0.242 N 
ATOM      4  N   UNL     1      34.101 -17.378 -25.428  0.00  0.00    -0.360 NA
ATOM      5  N   UNL     1      34.374 -14.542 -23.256  0.00  0.00    -0.336 NA
ATOM      6  N   UNL     1      33.798 -12.284 -23.547  0.00  0.00    -0.321 N 
ATOM      7  C   UNL     1      33.943 -16.055 -25.141  0.00  0.00    +0.254 C 
ATOM      8  C   UNL     1      34.380 -15.750 -23.870  0.00  0.00    +0.321 C 
ATOM      9  C   UNL     1      33.403 -15.020 -25.977  0.00  0.00    +0.288 C 
ATOM     10  C   UNL     1      34.632 -17.840 -24.317  0.00  0.00    +0.260 C 
ATOM     11  C   UNL     1      33.884 -13.575 -23.999  0.00  0.00    +0.241 C 
ATOM     12  C   UNL     1      35.038 -19.221 -24.005  0.00  0.00    +0.110 C 
ATOM     13  H   UNL     1      33.060 -13.007 -25.801  0.00  0.00    +0.159 HD
ATOM     14  H   UNL     1      33.425 -11.582 -24.129  0.00  0.00    +0.146 HD
ATOM     15  H   UNL     1      34.108 -12.057 -22.641  0.00  0.00    +0.146 HD
ENDROOT
TORSDOF 0
ENDMDL
MODEL 6
REMARK VINA RESULT:      -6.7      1.439      4.417
REMARK  Name = 446312
REMARK  0 active torsions:
REMARK  status: ('A' for Active; 'I' for Inactive)
REMARK                            x       y       z     vdW  Elec       q    Type
REMARK                         _______ _______ _______ _____ _____    ______ ____
ROOT
ATOM      1  O   UNL     1      33.386 -13.811 -24.925  0.00  0.00    -0.401 OA
ATOM      2  O   UNL     1      34.528 -18.172 -25.534  0.00  0.00    -0.267 OA
ATOM      3  N   UNL     1      34.703 -17.240 -23.402  0.00  0.00    -0.242 N 
ATOM      4  N   UNL     1      33.569 -15.512 -26.420  0.00  0.00    -0.360 NA
ATOM      5  N   UNL     1      34.140 -14.963 -22.926  0.00  0.00    -0.336 NA
ATOM      6  N   UNL     1      34.910 -16.384 -21.222  0.00  0.00    -0.321 N 
ATOM      7  C   UNL     1      33.949 -15.924 -25.178  0.00  0.00    +0.254 C 
ATOM      8  C   UNL     1      33.848 -14.911 -24.248  0.00  0.00    +0.321 C 
ATOM      9  C   UNL     1      34.411 -17.221 -24.771  0.00  0.00    +0.288 C 
ATOM     10  C   UNL     1      33.247 -14.255 -26.208  0.00  0.00    +0.260 C 
ATOM     11  C   UNL     1      34.566 -16.140 -22.526  0.00  0.00    +0.241 C 
ATOM     12  C   UNL     1      32.755 -13.262 -27.178  0.00  0.00    +0.110 C 
ATOM     13  H   UNL     1      35.030 -18.087 -23.020  0.00  0.00    +0.159 HD
ATOM     14  H   UNL     1      35.227 -17.278 -20.954  0.00  0.00    +0.146 HD
ATOM     15  H   UNL     1      34.841 -15.667 -20.552  0.00  0.00    +0.146 HD
ENDROOT
TORSDOF 0
ENDMDL
MODEL 7
REMARK VINA RESULT:      -6.7      2.354      4.698
REMARK  Name = 446312
REMARK  0 active torsions:
REMARK  status: ('A' for Active; 'I' for Inactive)
REMARK                            x       y       z     vdW  Elec       q    Type
REMARK                         _______ _______ _______ _____ _____    ______ ____
ROOT
ATOM      1  O   UNL     1      34.382 -17.228 -24.434  0.00  0.00    -0.401 OA
ATOM      2  O   UNL     1      34.720 -15.038 -20.462  0.00  0.00    -0.267 OA
ATOM      3  N   UNL     1      35.330 -17.287 -20.573  0.00  0.00    -0.242 N 
ATOM      4  N   UNL     1      34.086 -15.255 -23.348  0.00  0.00    -0.360 NA
ATOM      5  N   UNL     1      35.207 -18.572 -22.589  0.00  0.00    -0.336 NA
ATOM      6  N   UNL     1      35.965 -19.551 -20.593  0.00  0.00    -0.321 N 
ATOM      7  C   UNL     1      34.560 -16.205 -22.494  0.00  0.00    +0.254 C 
ATOM      8  C   UNL     1      34.750 -17.415 -23.127  0.00  0.00    +0.321 C 
ATOM      9  C   UNL     1      34.861 -16.076 -21.096  0.00  0.00    +0.288 C 
ATOM     10  C   UNL     1      34.000 -15.918 -24.480  0.00  0.00    +0.260 C 
ATOM     11  C   UNL     1      35.490 -18.483 -21.309  0.00  0.00    +0.241 C 
ATOM     12  C   UNL     1      33.546 -15.430 -25.793  0.00  0.00    +0.110 C 
ATOM     13  H   UNL     1      35.566 -17.307 -19.617  0.00  0.00    +0.159 HD
ATOM     14  H   UNL     1      36.168 -19.451 -19.635  0.00  0.00    +0.146 HD
ATOM     15  H   UNL     1      36.104 -20.418 -21.037  0.00  0.00    +0.146 HD
ENDROOT
TORSDOF 0
ENDMDL
MODEL 8
REMARK VINA RESULT:      -6.7     13.122     15.111
REMARK  Name = 446312
REMARK  0 active torsions:
REMARK  status: ('A' for Active; 'I' for Inactive)
REMARK                            x       y       z     vdW  Elec       q    Type
REMARK                         _______ _______ _______ _____ _____    ______ ____
ROOT
ATOM      1  O   UNL     1      36.144 -24.285 -15.731  0.00  0.00    -0.401 OA
ATOM      2  O   UNL     1      36.160 -25.476 -11.341  0.00  0.00    -0.267 OA
ATOM      3  N   UNL     1      38.092 -25.795 -12.609  0.00  0.00    -0.242 N 
ATOM      4  N   UNL     1      34.935 -24.389 -13.811  0.00  0.00    -0.360 NA
ATOM      5  N   UNL     1      38.236 -25.219 -14.928  0.00  0.00    -0.336 NA
ATOM      6  N   UNL     1      40.080 -26.152 -13.812  0.00  0.00    -0.321 N 
ATOM      7  C   UNL     1      36.193 -24.874 -13.611  0.00  0.00    +0.254 C 
ATOM      8  C   UNL     1      36.951 -24.823 -14.761  0.00  0.00    +0.321 C 
ATOM      9  C   UNL     1      36.765 -25.397 -12.402  0.00  0.00    +0.288 C 
ATOM     10  C   UNL     1      34.965 -24.056 -15.082  0.00  0.00    +0.260 C 
ATOM     11  C   UNL     1      38.786 -25.702 -13.837  0.00  0.00    +0.241 C 
ATOM     12  C   UNL     1      33.890 -23.468 -15.898  0.00  0.00    +0.110 C 
ATOM     13  H   UNL     1      38.578 -26.169 -11.840  0.00  0.00    +0.159 HD
ATOM     14  H   UNL     1      40.463 -26.508 -12.977  0.00  0.00    +0.146 HD
ATOM     15  H   UNL     1      40.629 -26.118 -14.629  0.00  0.00    +0.146 HD
ENDROOT
TORSDOF 0
ENDMDL
MODEL 9
REMARK VINA RESULT:      -6.6      1.911      4.830
REMARK  Name = 446312
REMARK  0 active torsions:
REMARK  status: ('A' for Active; 'I' for Inactive)
REMARK                            x       y       z     vdW  Elec       q    Type
REMARK                         _______ _______ _______ _____ _____    ______ ____
ROOT
ATOM      1  O   UNL     1      33.603 -14.721 -21.920  0.00  0.00    -0.401 OA
ATOM      2  O   UNL     1      34.735 -16.767 -25.822  0.00  0.00    -0.267 OA
ATOM      3  N   UNL     1      35.527 -17.644 -23.810  0.00  0.00    -0.242 N 
ATOM      4  N   UNL     1      33.395 -14.694 -24.182  0.00  0.00    -0.360 NA
ATOM      5  N   UNL     1      35.018 -16.679 -21.679  0.00  0.00    -0.336 NA
ATOM      6  N   UNL     1      36.369 -18.594 -21.831  0.00  0.00    -0.321 N 
ATOM      7  C   UNL     1      34.173 -15.740 -23.786  0.00  0.00    +0.254 C 
ATOM      8  C   UNL     1      34.317 -15.782 -22.415  0.00  0.00    +0.321 C 
ATOM      9  C   UNL     1      34.813 -16.734 -24.601  0.00  0.00    +0.288 C 
ATOM     10  C   UNL     1      33.087 -14.128 -23.036  0.00  0.00    +0.260 C 
ATOM     11  C   UNL     1      35.614 -17.601 -22.400  0.00  0.00    +0.241 C 
ATOM     12  C   UNL     1      32.257 -12.935 -22.800  0.00  0.00    +0.110 C 
ATOM     13  H   UNL     1      36.005 -18.369 -24.273  0.00  0.00    +0.159 HD
ATOM     14  H   UNL     1      36.804 -19.271 -22.400  0.00  0.00    +0.146 HD
ATOM     15  H   UNL     1      36.476 -18.632 -20.853  0.00  0.00    +0.146 HD
ENDROOT
TORSDOF 0
ENDMDL
