MODEL 1
REMARK VINA RESULT:      -5.4      0.000      0.000
REMARK  Name = 6115
REMARK  1 active torsions:
REMARK  status: ('A' for Active; 'I' for Inactive)
REMARK    1  A    between atoms: C_1  and  N_7
REMARK                            x       y       z     vdW  Elec       q    Type
REMARK                         _______ _______ _______ _____ _____    ______ ____
ROOT
ATOM      1  C   UNL     1      33.616 -21.419 -19.472  0.00  0.00    +0.042 C 
ATOM      2  C   UNL     1      33.069 -20.400 -20.252  0.00  0.00    +0.014 C 
ATOM      3  C   UNL     1      34.999 -21.602 -19.433  0.00  0.00    +0.014 C 
ATOM      4  C   UNL     1      33.905 -19.565 -20.993  0.00  0.00    +0.001 C 
ATOM      5  C   UNL     1      35.834 -20.767 -20.174  0.00  0.00    +0.001 C 
ATOM      6  C   UNL     1      35.288 -19.748 -20.955  0.00  0.00    +0.000 C 
ENDROOT
BRANCH   1   7
ATOM      7  N   UNL     1      32.771 -22.263 -18.721  0.00  0.00    -0.357 N 
ATOM      8  H   UNL     1      33.001 -23.214 -18.607  0.00  0.00    +0.142 HD
ATOM      9  H   UNL     1      31.953 -21.901 -18.311  0.00  0.00    +0.142 HD
ENDBRANCH   1   7
TORSDOF 1
ENDMDL
MODEL 2
REMARK VINA RESULT:      -5.4      0.002      1.826
REMARK  Name = 6115
REMARK  1 active torsions:
REMARK  status: ('A' for Active; 'I' for Inactive)
REMARK    1  A    between atoms: C_1  and  N_7
REMARK                            x       y       z     vdW  Elec       q    Type
REMARK                         _______ _______ _______ _____ _____    ______ ____
ROOT
ATOM      1  C   UNL     1      33.616 -21.418 -19.471  0.00  0.00    +0.042 C 
ATOM      2  C   UNL     1      34.999 -21.601 -19.433  0.00  0.00    +0.014 C 
ATOM      3  C   UNL     1      33.069 -20.400 -20.252  0.00  0.00    +0.014 C 
ATOM      4  C   UNL     1      35.833 -20.765 -20.176  0.00  0.00    +0.001 C 
ATOM      5  C   UNL     1      33.903 -19.565 -20.995  0.00  0.00    +0.001 C 
ATOM      6  C   UNL     1      35.285 -19.747 -20.957  0.00  0.00    +0.000 C 
ENDROOT
BRANCH   1   7
ATOM      7  N   UNL     1      32.772 -22.264 -18.721  0.00  0.00    -0.357 N 
ATOM      8  H   UNL     1      33.042 -22.553 -17.819  0.00  0.00    +0.142 HD
ATOM      9  H   UNL     1      31.913 -22.562 -19.099  0.00  0.00    +0.142 HD
ENDBRANCH   1   7
TORSDOF 1
ENDMDL
MODEL 3
REMARK VINA RESULT:      -5.2      2.150      2.818
REMARK  Name = 6115
REMARK  1 active torsions:
REMARK  status: ('A' for Active; 'I' for Inactive)
REMARK    1  A    between atoms: C_1  and  N_7
REMARK                            x       y       z     vdW  Elec       q    Type
REMARK                         _______ _______ _______ _____ _____    ______ ____
ROOT
ATOM      1  C   UNL     1      35.251 -19.584 -20.911  0.00  0.00    +0.042 C 
ATOM      2  C   UNL     1      33.879 -19.363 -21.028  0.00  0.00    +0.014 C 
ATOM      3  C   UNL     1      35.723 -20.667 -20.169  0.00  0.00    +0.014 C 
ATOM      4  C   UNL     1      32.978 -20.226 -20.403  0.00  0.00    +0.001 C 
ATOM      5  C   UNL     1      34.823 -21.529 -19.544  0.00  0.00    +0.001 C 
ATOM      6  C   UNL     1      33.450 -21.310 -19.661  0.00  0.00    +0.000 C 
ENDROOT
BRANCH   1   7
ATOM      7  N   UNL     1      36.161 -18.711 -21.544  0.00  0.00    -0.357 N 
ATOM      8  H   UNL     1      36.137 -18.599 -22.522  0.00  0.00    +0.142 HD
ATOM      9  H   UNL     1      36.820 -18.213 -21.007  0.00  0.00    +0.142 HD
ENDBRANCH   1   7
TORSDOF 1
ENDMDL
MODEL 4
REMARK VINA RESULT:      -5.0      1.677      2.641
REMARK  Name = 6115
REMARK  1 active torsions:
REMARK  status: ('A' for Active; 'I' for Inactive)
REMARK    1  A    between atoms: C_1  and  N_7
REMARK                            x       y       z     vdW  Elec       q    Type
REMARK                         _______ _______ _______ _____ _____    ______ ____
ROOT
ATOM      1  C   UNL     1      35.431 -20.825 -20.093  0.00  0.00    +0.042 C 
ATOM      2  C   UNL     1      34.351 -21.477 -19.498  0.00  0.00    +0.014 C 
ATOM      3  C   UNL     1      35.210 -19.729 -20.927  0.00  0.00    +0.014 C 
ATOM      4  C   UNL     1      33.050 -21.033 -19.737  0.00  0.00    +0.001 C 
ATOM      5  C   UNL     1      33.910 -19.285 -21.166  0.00  0.00    +0.001 C 
ATOM      6  C   UNL     1      32.829 -19.937 -20.571  0.00  0.00    +0.000 C 
ENDROOT
BRANCH   1   7
ATOM      7  N   UNL     1      36.746 -21.274 -19.850  0.00  0.00    -0.357 N 
ATOM      8  H   UNL     1      37.126 -21.217 -18.944  0.00  0.00    +0.142 HD
ATOM      9  H   UNL     1      37.283 -21.646 -20.587  0.00  0.00    +0.142 HD
ENDBRANCH   1   7
TORSDOF 1
ENDMDL
MODEL 5
REMARK VINA RESULT:      -5.0      1.308      2.277
REMARK  Name = 6115
REMARK  1 active torsions:
REMARK  status: ('A' for Active; 'I' for Inactive)
REMARK    1  A    between atoms: C_1  and  N_7
REMARK                            x       y       z     vdW  Elec       q    Type
REMARK                         _______ _______ _______ _____ _____    ______ ____
ROOT
ATOM      1  C   UNL     1      33.624 -20.601 -20.264  0.00  0.00    +0.042 C 
ATOM      2  C   UNL     1      33.591 -21.647 -19.343  0.00  0.00    +0.014 C 
ATOM      3  C   UNL     1      34.847 -20.067 -20.670  0.00  0.00    +0.014 C 
ATOM      4  C   UNL     1      34.782 -22.160 -18.828  0.00  0.00    +0.001 C 
ATOM      5  C   UNL     1      36.037 -20.579 -20.155  0.00  0.00    +0.001 C 
ATOM      6  C   UNL     1      36.005 -21.626 -19.234  0.00  0.00    +0.000 C 
ENDROOT
BRANCH   1   7
ATOM      7  N   UNL     1      32.420 -20.083 -20.785  0.00  0.00    -0.357 N 
ATOM      8  H   UNL     1      31.803 -19.586 -20.200  0.00  0.00    +0.142 HD
ATOM      9  H   UNL     1      32.197 -20.217 -21.735  0.00  0.00    +0.142 HD
ENDBRANCH   1   7
TORSDOF 1
ENDMDL
MODEL 6
REMARK VINA RESULT:      -4.9     10.734     11.603
REMARK  Name = 6115
REMARK  1 active torsions:
REMARK  status: ('A' for Active; 'I' for Inactive)
REMARK    1  A    between atoms: C_1  and  N_7
REMARK                            x       y       z     vdW  Elec       q    Type
REMARK                         _______ _______ _______ _____ _____    ______ ____
ROOT
ATOM      1  C   UNL     1      32.245  -9.012 -20.220  0.00  0.00    +0.042 C 
ATOM      2  C   UNL     1      31.864  -9.979 -19.290  0.00  0.00    +0.014 C 
ATOM      3  C   UNL     1      32.011  -9.221 -21.579  0.00  0.00    +0.014 C 
ATOM      4  C   UNL     1      31.249 -11.155 -19.719  0.00  0.00    +0.001 C 
ATOM      5  C   UNL     1      31.396 -10.397 -22.008  0.00  0.00    +0.001 C 
ATOM      6  C   UNL     1      31.015 -11.364 -21.078  0.00  0.00    +0.000 C 
ENDROOT
BRANCH   1   7
ATOM      7  N   UNL     1      32.865  -7.822 -19.785  0.00  0.00    -0.357 N 
ATOM      8  H   UNL     1      33.530  -7.850 -19.059  0.00  0.00    +0.142 HD
ATOM      9  H   UNL     1      32.636  -6.963 -20.210  0.00  0.00    +0.142 HD
ENDBRANCH   1   7
TORSDOF 1
ENDMDL
MODEL 7
REMARK VINA RESULT:      -4.9     10.735     11.542
REMARK  Name = 6115
REMARK  1 active torsions:
REMARK  status: ('A' for Active; 'I' for Inactive)
REMARK    1  A    between atoms: C_1  and  N_7
REMARK                            x       y       z     vdW  Elec       q    Type
REMARK                         _______ _______ _______ _____ _____    ______ ____
ROOT
ATOM      1  C   UNL     1      32.246  -9.010 -20.221  0.00  0.00    +0.042 C 
ATOM      2  C   UNL     1      32.011  -9.220 -21.579  0.00  0.00    +0.014 C 
ATOM      3  C   UNL     1      31.866  -9.977 -19.290  0.00  0.00    +0.014 C 
ATOM      4  C   UNL     1      31.395 -10.397 -22.007  0.00  0.00    +0.001 C 
ATOM      5  C   UNL     1      31.251 -11.153 -19.717  0.00  0.00    +0.001 C 
ATOM      6  C   UNL     1      31.015 -11.363 -21.075  0.00  0.00    +0.000 C 
ENDROOT
BRANCH   1   7
ATOM      7  N   UNL     1      32.870  -7.821 -19.789  0.00  0.00    -0.357 N 
ATOM      8  H   UNL     1      32.974  -7.641 -18.826  0.00  0.00    +0.142 HD
ATOM      9  H   UNL     1      33.203  -7.172 -20.450  0.00  0.00    +0.142 HD
ENDBRANCH   1   7
TORSDOF 1
ENDMDL
MODEL 8
REMARK VINA RESULT:      -4.8      3.957      4.848
REMARK  Name = 6115
REMARK  1 active torsions:
REMARK  status: ('A' for Active; 'I' for Inactive)
REMARK    1  A    between atoms: C_1  and  N_7
REMARK                            x       y       z     vdW  Elec       q    Type
REMARK                         _______ _______ _______ _____ _____    ______ ____
ROOT
ATOM      1  C   UNL     1      35.124 -17.717 -22.247  0.00  0.00    +0.042 C 
ATOM      2  C   UNL     1      35.067 -16.527 -22.971  0.00  0.00    +0.014 C 
ATOM      3  C   UNL     1      34.925 -18.937 -22.893  0.00  0.00    +0.014 C 
ATOM      4  C   UNL     1      34.811 -16.556 -24.342  0.00  0.00    +0.001 C 
ATOM      5  C   UNL     1      34.669 -18.967 -24.263  0.00  0.00    +0.001 C 
ATOM      6  C   UNL     1      34.612 -17.776 -24.988  0.00  0.00    +0.000 C 
ENDROOT
BRANCH   1   7
ATOM      7  N   UNL     1      35.384 -17.687 -20.860  0.00  0.00    -0.357 N 
ATOM      8  H   UNL     1      35.680 -18.504 -20.397  0.00  0.00    +0.142 HD
ATOM      9  H   UNL     1      35.272 -16.849 -20.356  0.00  0.00    +0.142 HD
ENDBRANCH   1   7
TORSDOF 1
ENDMDL
MODEL 9
REMARK VINA RESULT:      -4.7      4.092      5.048
REMARK  Name = 6115
REMARK  1 active torsions:
REMARK  status: ('A' for Active; 'I' for Inactive)
REMARK    1  A    between atoms: C_1  and  N_7
REMARK                            x       y       z     vdW  Elec       q    Type
REMARK                         _______ _______ _______ _____ _____    ______ ____
ROOT
ATOM      1  C   UNL     1      35.003 -17.440 -23.687  0.00  0.00    +0.042 C 
ATOM      2  C   UNL     1      34.791 -18.814 -23.572  0.00  0.00    +0.014 C 
ATOM      3  C   UNL     1      35.101 -16.651 -22.541  0.00  0.00    +0.014 C 
ATOM      4  C   UNL     1      34.677 -19.398 -22.310  0.00  0.00    +0.001 C 
ATOM      5  C   UNL     1      34.988 -17.235 -21.280  0.00  0.00    +0.001 C 
ATOM      6  C   UNL     1      34.776 -18.609 -21.164  0.00  0.00    +0.000 C 
ENDROOT
BRANCH   1   7
ATOM      7  N   UNL     1      35.119 -16.849 -24.963  0.00  0.00    -0.357 N 
ATOM      8  H   UNL     1      35.256 -17.415 -25.757  0.00  0.00    +0.142 HD
ATOM      9  H   UNL     1      35.061 -15.871 -25.059  0.00  0.00    +0.142 HD
ENDBRANCH   1   7
TORSDOF 1
ENDMDL
