MODEL 1
REMARK VINA RESULT:      -9.7      0.000      0.000
REMARK  Name = 11273
REMARK  1 active torsions:
REMARK  status: ('A' for Active; 'I' for Inactive)
REMARK    1  A    between atoms: C_20  and  O_22
REMARK                            x       y       z     vdW  Elec       q    Type
REMARK                         _______ _______ _______ _____ _____    ______ ____
ROOT
ATOM      1  O   UNL     1      34.355 -24.211 -12.493  0.00  0.00    -0.296 OA
ATOM      2  O   UNL     1      33.846 -18.802 -21.517  0.00  0.00    -0.288 OA
ATOM      3  C   UNL     1      35.808 -22.730 -16.875  0.00  0.00    +0.001 C 
ATOM      4  C   UNL     1      34.396 -22.259 -17.346  0.00  0.00    +0.004 C 
ATOM      5  C   UNL     1      35.792 -22.851 -15.349  0.00  0.00    +0.007 C 
ATOM      6  C   UNL     1      34.765 -23.896 -14.871  0.00  0.00    +0.052 C 
ATOM      7  C   UNL     1      34.309 -22.049 -18.909  0.00  0.00    +0.019 C 
ATOM      8  C   UNL     1      33.263 -23.148 -16.760  0.00  0.00    +0.001 C 
ATOM      9  C   UNL     1      33.376 -23.386 -15.242  0.00  0.00    +0.007 C 
ATOM     10  C   UNL     1      36.876 -21.744 -17.355  0.00  0.00    +0.004 C 
ATOM     11  C   UNL     1      37.070 -23.214 -14.600  0.00  0.00    +0.008 C 
ATOM     12  C   UNL     1      35.484 -21.159 -19.383  0.00  0.00    -0.008 C 
ATOM     13  C   UNL     1      36.844 -21.603 -18.872  0.00  0.00    +0.025 C 
ATOM     14  C   UNL     1      35.119 -23.894 -13.395  0.00  0.00    +0.150 C 
ATOM     15  C   UNL     1      36.563 -23.475 -13.174  0.00  0.00    +0.064 C 
ATOM     16  C   UNL     1      32.949 -21.366 -19.221  0.00  0.00    +0.012 C 
ATOM     17  C   UNL     1      34.984 -25.336 -15.372  0.00  0.00    +0.007 C 
ATOM     18  C   UNL     1      34.373 -23.392 -19.675  0.00  0.00    +0.004 C 
ATOM     19  C   UNL     1      32.879 -20.783 -20.617  0.00  0.00    +0.073 C 
ATOM     20  C   UNL     1      35.327 -20.098 -20.208  0.00  0.00    +0.160 C 
ATOM     21  C   UNL     1      33.997 -19.800 -20.814  0.00  0.00    +0.206 C 
ENDROOT
BRANCH  20  22
ATOM     22  O   UNL     1      36.333 -19.245 -20.610  0.00  0.00    -0.503 OA
ATOM     23  H   UNL     1      36.682 -19.309 -21.478  0.00  0.00    +0.292 HD
ENDBRANCH  20  22
TORSDOF 1
ENDMDL
MODEL 2
REMARK VINA RESULT:      -9.7      3.804      6.445
REMARK  Name = 11273
REMARK  1 active torsions:
REMARK  status: ('A' for Active; 'I' for Inactive)
REMARK    1  A    between atoms: C_20  and  O_22
REMARK                            x       y       z     vdW  Elec       q    Type
REMARK                         _______ _______ _______ _____ _____    ______ ____
ROOT
ATOM      1  O   UNL     1      29.737 -24.470 -15.207  0.00  0.00    -0.296 OA
ATOM      2  O   UNL     1      40.057 -26.097 -13.872  0.00  0.00    -0.288 OA
ATOM      3  C   UNL     1      34.442 -23.305 -15.097  0.00  0.00    +0.001 C 
ATOM      4  C   UNL     1      34.864 -24.488 -14.170  0.00  0.00    +0.004 C 
ATOM      5  C   UNL     1      33.071 -23.628 -15.699  0.00  0.00    +0.007 C 
ATOM      6  C   UNL     1      31.991 -23.779 -14.609  0.00  0.00    +0.052 C 
ATOM      7  C   UNL     1      36.294 -24.287 -13.530  0.00  0.00    +0.019 C 
ATOM      8  C   UNL     1      33.752 -24.844 -13.142  0.00  0.00    +0.001 C 
ATOM      9  C   UNL     1      32.351 -24.998 -13.765  0.00  0.00    +0.007 C 
ATOM     10  C   UNL     1      35.500 -23.086 -16.181  0.00  0.00    +0.004 C 
ATOM     11  C   UNL     1      32.444 -22.683 -16.718  0.00  0.00    +0.008 C 
ATOM     12  C   UNL     1      37.315 -23.931 -14.637  0.00  0.00    -0.008 C 
ATOM     13  C   UNL     1      36.865 -22.813 -15.561  0.00  0.00    +0.025 C 
ATOM     14  C   UNL     1      30.781 -23.912 -15.515  0.00  0.00    +0.150 C 
ATOM     15  C   UNL     1      31.016 -23.232 -16.854  0.00  0.00    +0.064 C 
ATOM     16  C   UNL     1      36.691 -25.615 -12.829  0.00  0.00    +0.012 C 
ATOM     17  C   UNL     1      31.746 -22.541 -13.727  0.00  0.00    +0.007 C 
ATOM     18  C   UNL     1      36.298 -23.153 -12.477  0.00  0.00    +0.004 C 
ATOM     19  C   UNL     1      38.164 -25.692 -12.486  0.00  0.00    +0.073 C 
ATOM     20  C   UNL     1      38.521 -24.534 -14.757  0.00  0.00    +0.160 C 
ATOM     21  C   UNL     1      38.986 -25.510 -13.729  0.00  0.00    +0.206 C 
ENDROOT
BRANCH  20  22
ATOM     22  O   UNL     1      39.438 -24.290 -15.757  0.00  0.00    -0.503 OA
ATOM     23  H   UNL     1      40.322 -24.066 -15.539  0.00  0.00    +0.292 HD
ENDBRANCH  20  22
TORSDOF 1
ENDMDL
MODEL 3
REMARK VINA RESULT:      -8.7     14.280     18.547
REMARK  Name = 11273
REMARK  1 active torsions:
REMARK  status: ('A' for Active; 'I' for Inactive)
REMARK    1  A    between atoms: C_20  and  O_22
REMARK                            x       y       z     vdW  Elec       q    Type
REMARK                         _______ _______ _______ _____ _____    ______ ____
ROOT
ATOM      1  O   UNL     1      30.603  -2.138 -27.079  0.00  0.00    -0.296 OA
ATOM      2  O   UNL     1      32.800 -11.619 -23.051  0.00  0.00    -0.288 OA
ATOM      3  C   UNL     1      33.279  -5.503 -24.839  0.00  0.00    +0.001 C 
ATOM      4  C   UNL     1      32.071  -6.401 -24.427  0.00  0.00    +0.004 C 
ATOM      5  C   UNL     1      32.824  -4.564 -25.959  0.00  0.00    +0.007 C 
ATOM      6  C   UNL     1      31.684  -3.634 -25.495  0.00  0.00    +0.052 C 
ATOM      7  C   UNL     1      32.439  -7.452 -23.307  0.00  0.00    +0.019 C 
ATOM      8  C   UNL     1      30.802  -5.558 -24.115  0.00  0.00    +0.001 C 
ATOM      9  C   UNL     1      30.470  -4.506 -25.190  0.00  0.00    +0.007 C 
ATOM     10  C   UNL     1      34.457  -6.378 -25.276  0.00  0.00    +0.004 C 
ATOM     11  C   UNL     1      33.826  -3.624 -26.620  0.00  0.00    +0.008 C 
ATOM     12  C   UNL     1      33.716  -8.226 -23.717  0.00  0.00    -0.008 C 
ATOM     13  C   UNL     1      34.864  -7.338 -24.164  0.00  0.00    +0.025 C 
ATOM     14  C   UNL     1      31.599  -2.757 -26.730  0.00  0.00    +0.150 C 
ATOM     15  C   UNL     1      32.926  -2.715 -27.470  0.00  0.00    +0.064 C 
ATOM     16  C   UNL     1      31.238  -8.425 -23.155  0.00  0.00    +0.012 C 
ATOM     17  C   UNL     1      32.014  -2.701 -24.315  0.00  0.00    +0.007 C 
ATOM     18  C   UNL     1      32.698  -6.771 -21.942  0.00  0.00    +0.004 C 
ATOM     19  C   UNL     1      31.583  -9.684 -22.386  0.00  0.00    +0.073 C 
ATOM     20  C   UNL     1      33.820  -9.574 -23.654  0.00  0.00    +0.160 C 
ATOM     21  C   UNL     1      32.726 -10.391 -23.055  0.00  0.00    +0.206 C 
ENDROOT
BRANCH  20  22
ATOM     22  O   UNL     1      34.914 -10.309 -24.060  0.00  0.00    -0.503 OA
ATOM     23  H   UNL     1      34.908 -10.736 -24.895  0.00  0.00    +0.292 HD
ENDBRANCH  20  22
TORSDOF 1
ENDMDL
MODEL 4
REMARK VINA RESULT:      -8.3      6.137      9.665
REMARK  Name = 11273
REMARK  1 active torsions:
REMARK  status: ('A' for Active; 'I' for Inactive)
REMARK    1  A    between atoms: C_20  and  O_22
REMARK                            x       y       z     vdW  Elec       q    Type
REMARK                         _______ _______ _______ _____ _____    ______ ____
ROOT
ATOM      1  O   UNL     1      35.946 -19.133 -20.263  0.00  0.00    -0.296 OA
ATOM      2  O   UNL     1      34.387 -10.426 -25.981  0.00  0.00    -0.288 OA
ATOM      3  C   UNL     1      33.910 -16.371 -23.687  0.00  0.00    +0.001 C 
ATOM      4  C   UNL     1      34.323 -15.010 -23.043  0.00  0.00    +0.004 C 
ATOM      5  C   UNL     1      34.783 -17.475 -23.085  0.00  0.00    +0.007 C 
ATOM      6  C   UNL     1      34.579 -17.596 -21.562  0.00  0.00    +0.052 C 
ATOM      7  C   UNL     1      33.519 -13.784 -23.629  0.00  0.00    +0.019 C 
ATOM      8  C   UNL     1      34.330 -15.083 -21.490  0.00  0.00    +0.001 C 
ATOM      9  C   UNL     1      35.079 -16.304 -20.923  0.00  0.00    +0.007 C 
ATOM     10  C   UNL     1      34.058 -16.296 -25.209  0.00  0.00    +0.004 C 
ATOM     11  C   UNL     1      34.657 -18.908 -23.593  0.00  0.00    +0.008 C 
ATOM     12  C   UNL     1      33.573 -13.815 -25.176  0.00  0.00    -0.008 C 
ATOM     13  C   UNL     1      33.218 -15.161 -25.783  0.00  0.00    +0.025 C 
ATOM     14  C   UNL     1      35.417 -18.839 -21.326  0.00  0.00    +0.150 C 
ATOM     15  C   UNL     1      35.491 -19.701 -22.576  0.00  0.00    +0.064 C 
ATOM     16  C   UNL     1      34.175 -12.484 -23.087  0.00  0.00    +0.012 C 
ATOM     17  C   UNL     1      33.151 -17.933 -21.097  0.00  0.00    +0.007 C 
ATOM     18  C   UNL     1      32.035 -13.807 -23.191  0.00  0.00    +0.004 C 
ATOM     19  C   UNL     1      33.745 -11.240 -23.838  0.00  0.00    +0.073 C 
ATOM     20  C   UNL     1      33.875 -12.733 -25.931  0.00  0.00    +0.160 C 
ATOM     21  C   UNL     1      34.056 -11.394 -25.299  0.00  0.00    +0.206 C 
ENDROOT
BRANCH  20  22
ATOM     22  O   UNL     1      33.990 -12.727 -27.305  0.00  0.00    -0.503 OA
ATOM     23  H   UNL     1      33.696 -11.985 -27.796  0.00  0.00    +0.292 HD
ENDBRANCH  20  22
TORSDOF 1
ENDMDL
MODEL 5
REMARK VINA RESULT:      -7.7     15.341     19.671
REMARK  Name = 11273
REMARK  1 active torsions:
REMARK  status: ('A' for Active; 'I' for Inactive)
REMARK    1  A    between atoms: C_20  and  O_22
REMARK                            x       y       z     vdW  Elec       q    Type
REMARK                         _______ _______ _______ _____ _____    ______ ____
ROOT
ATOM      1  O   UNL     1      35.226  -2.952 -28.863  0.00  0.00    -0.296 OA
ATOM      2  O   UNL     1      32.694  -7.543 -19.727  0.00  0.00    -0.288 OA
ATOM      3  C   UNL     1      32.282  -4.548 -25.357  0.00  0.00    +0.001 C 
ATOM      4  C   UNL     1      33.298  -5.577 -24.769  0.00  0.00    +0.004 C 
ATOM      5  C   UNL     1      33.055  -3.543 -26.216  0.00  0.00    +0.007 C 
ATOM      6  C   UNL     1      33.763  -4.231 -27.400  0.00  0.00    +0.052 C 
ATOM      7  C   UNL     1      32.618  -6.638 -23.818  0.00  0.00    +0.019 C 
ATOM      8  C   UNL     1      34.198  -6.198 -25.875  0.00  0.00    +0.001 C 
ATOM      9  C   UNL     1      34.826  -5.162 -26.826  0.00  0.00    +0.007 C 
ATOM     10  C   UNL     1      31.522  -3.857 -24.222  0.00  0.00    +0.004 C 
ATOM     11  C   UNL     1      32.325  -2.365 -26.852  0.00  0.00    +0.008 C 
ATOM     12  C   UNL     1      31.744  -5.912 -22.766  0.00  0.00    -0.008 C 
ATOM     13  C   UNL     1      30.799  -4.878 -23.351  0.00  0.00    +0.025 C 
ATOM     14  C   UNL     1      34.260  -2.987 -28.112  0.00  0.00    +0.150 C 
ATOM     15  C   UNL     1      33.383  -1.786 -27.802  0.00  0.00    +0.064 C 
ATOM     16  C   UNL     1      33.748  -7.447 -23.124  0.00  0.00    +0.012 C 
ATOM     17  C   UNL     1      32.849  -4.971 -28.394  0.00  0.00    +0.007 C 
ATOM     18  C   UNL     1      31.719  -7.622 -24.605  0.00  0.00    +0.004 C 
ATOM     19  C   UNL     1      33.264  -8.245 -21.930  0.00  0.00    +0.073 C 
ATOM     20  C   UNL     1      31.789  -6.193 -21.443  0.00  0.00    +0.160 C 
ATOM     21  C   UNL     1      32.612  -7.328 -20.936  0.00  0.00    +0.206 C 
ENDROOT
BRANCH  20  22
ATOM     22  O   UNL     1      31.073  -5.536 -20.464  0.00  0.00    -0.503 OA
ATOM     23  H   UNL     1      30.841  -4.634 -20.579  0.00  0.00    +0.292 HD
ENDBRANCH  20  22
TORSDOF 1
ENDMDL
MODEL 6
REMARK VINA RESULT:      -7.5      3.457      5.090
REMARK  Name = 11273
REMARK  1 active torsions:
REMARK  status: ('A' for Active; 'I' for Inactive)
REMARK    1  A    between atoms: C_20  and  O_22
REMARK                            x       y       z     vdW  Elec       q    Type
REMARK                         _______ _______ _______ _____ _____    ______ ____
ROOT
ATOM      1  O   UNL     1      38.394 -23.667 -12.446  0.00  0.00    -0.296 OA
ATOM      2  O   UNL     1      28.395 -21.924 -15.261  0.00  0.00    -0.288 OA
ATOM      3  C   UNL     1      34.474 -23.891 -15.290  0.00  0.00    +0.001 C 
ATOM      4  C   UNL     1      33.447 -23.622 -14.146  0.00  0.00    +0.004 C 
ATOM      5  C   UNL     1      35.859 -23.447 -14.811  0.00  0.00    +0.007 C 
ATOM      6  C   UNL     1      36.316 -24.243 -13.573  0.00  0.00    +0.052 C 
ATOM      7  C   UNL     1      31.967 -23.996 -14.549  0.00  0.00    +0.019 C 
ATOM      8  C   UNL     1      33.913 -24.233 -12.794  0.00  0.00    +0.001 C 
ATOM      9  C   UNL     1      35.371 -23.900 -12.426  0.00  0.00    +0.007 C 
ATOM     10  C   UNL     1      34.049 -23.151 -16.561  0.00  0.00    +0.004 C 
ATOM     11  C   UNL     1      37.052 -23.514 -15.759  0.00  0.00    +0.008 C 
ATOM     12  C   UNL     1      31.615 -23.343 -15.908  0.00  0.00    -0.008 C 
ATOM     13  C   UNL     1      32.650 -23.573 -16.994  0.00  0.00    +0.025 C 
ATOM     14  C   UNL     1      37.731 -23.703 -13.473  0.00  0.00    +0.150 C 
ATOM     15  C   UNL     1      38.240 -23.236 -14.827  0.00  0.00    +0.064 C 
ATOM     16  C   UNL     1      31.024 -23.471 -13.431  0.00  0.00    +0.012 C 
ATOM     17  C   UNL     1      36.440 -25.766 -13.759  0.00  0.00    +0.007 C 
ATOM     18  C   UNL     1      31.775 -25.526 -14.677  0.00  0.00    +0.004 C 
ATOM     19  C   UNL     1      29.567 -23.438 -13.846  0.00  0.00    +0.073 C 
ATOM     20  C   UNL     1      30.469 -22.656 -16.126  0.00  0.00    +0.160 C 
ATOM     21  C   UNL     1      29.409 -22.597 -15.079  0.00  0.00    +0.206 C 
ENDROOT
BRANCH  20  22
ATOM     22  O   UNL     1      30.139 -22.011 -17.300  0.00  0.00    -0.503 OA
ATOM     23  H   UNL     1      29.340 -21.524 -17.358  0.00  0.00    +0.292 HD
ENDBRANCH  20  22
TORSDOF 1
ENDMDL
MODEL 7
REMARK VINA RESULT:      -7.5      3.873      5.689
REMARK  Name = 11273
REMARK  1 active torsions:
REMARK  status: ('A' for Active; 'I' for Inactive)
REMARK    1  A    between atoms: C_20  and  O_22
REMARK                            x       y       z     vdW  Elec       q    Type
REMARK                         _______ _______ _______ _____ _____    ______ ____
ROOT
ATOM      1  O   UNL     1      38.850 -24.173 -15.377  0.00  0.00    -0.296 OA
ATOM      2  O   UNL     1      28.400 -24.458 -16.665  0.00  0.00    -0.288 OA
ATOM      3  C   UNL     1      34.206 -24.361 -13.998  0.00  0.00    +0.001 C 
ATOM      4  C   UNL     1      33.634 -23.777 -15.328  0.00  0.00    +0.004 C 
ATOM      5  C   UNL     1      35.631 -24.855 -14.261  0.00  0.00    +0.007 C 
ATOM      6  C   UNL     1      36.559 -23.706 -14.705  0.00  0.00    +0.052 C 
ATOM      7  C   UNL     1      32.141 -23.281 -15.189  0.00  0.00    +0.019 C 
ATOM      8  C   UNL     1      34.595 -22.731 -15.961  0.00  0.00    +0.001 C 
ATOM      9  C   UNL     1      36.059 -23.202 -16.056  0.00  0.00    +0.007 C 
ATOM     10  C   UNL     1      33.301 -25.486 -13.490  0.00  0.00    +0.004 C 
ATOM     11  C   UNL     1      36.411 -25.557 -13.154  0.00  0.00    +0.008 C 
ATOM     12  C   UNL     1      31.280 -24.393 -14.544  0.00  0.00    -0.008 C 
ATOM     13  C   UNL     1      31.877 -24.987 -13.280  0.00  0.00    +0.025 C 
ATOM     14  C   UNL     1      37.870 -24.470 -14.707  0.00  0.00    +0.150 C 
ATOM     15  C   UNL     1      37.828 -25.642 -13.742  0.00  0.00    +0.064 C 
ATOM     16  C   UNL     1      31.619 -22.945 -16.613  0.00  0.00    +0.012 C 
ATOM     17  C   UNL     1      36.726 -22.549 -13.704  0.00  0.00    +0.007 C 
ATOM     18  C   UNL     1      32.036 -22.010 -14.313  0.00  0.00    +0.004 C 
ATOM     19  C   UNL     1      30.112 -22.803 -16.678  0.00  0.00    +0.073 C 
ATOM     20  C   UNL     1      30.082 -24.786 -15.037  0.00  0.00    +0.160 C 
ATOM     21  C   UNL     1      29.461 -24.063 -16.184  0.00  0.00    +0.206 C 
ENDROOT
BRANCH  20  22
ATOM     22  O   UNL     1      29.307 -25.808 -14.530  0.00  0.00    -0.503 OA
ATOM     23  H   UNL     1      29.673 -26.412 -13.914  0.00  0.00    +0.292 HD
ENDBRANCH  20  22
TORSDOF 1
ENDMDL
MODEL 8
REMARK VINA RESULT:      -7.3      1.026      6.763
REMARK  Name = 11273
REMARK  1 active torsions:
REMARK  status: ('A' for Active; 'I' for Inactive)
REMARK    1  A    between atoms: C_20  and  O_22
REMARK                            x       y       z     vdW  Elec       q    Type
REMARK                         _______ _______ _______ _____ _____    ______ ____
ROOT
ATOM      1  O   UNL     1      36.088 -19.381 -20.536  0.00  0.00    -0.296 OA
ATOM      2  O   UNL     1      35.064 -24.024 -11.137  0.00  0.00    -0.288 OA
ATOM      3  C   UNL     1      34.809 -22.864 -17.416  0.00  0.00    +0.001 C 
ATOM      4  C   UNL     1      35.796 -22.422 -16.290  0.00  0.00    +0.004 C 
ATOM      5  C   UNL     1      34.636 -21.698 -18.393  0.00  0.00    +0.007 C 
ATOM      6  C   UNL     1      35.971 -21.313 -19.062  0.00  0.00    +0.052 C 
ATOM      7  C   UNL     1      36.011 -23.534 -15.190  0.00  0.00    +0.019 C 
ATOM      8  C   UNL     1      37.115 -21.838 -16.871  0.00  0.00    +0.001 C 
ATOM      9  C   UNL     1      36.900 -20.784 -17.974  0.00  0.00    +0.007 C 
ATOM     10  C   UNL     1      33.474 -23.294 -16.803  0.00  0.00    +0.004 C 
ATOM     11  C   UNL     1      33.656 -21.816 -19.555  0.00  0.00    +0.008 C 
ATOM     12  C   UNL     1      34.639 -24.046 -14.689  0.00  0.00    -0.008 C 
ATOM     13  C   UNL     1      33.674 -24.423 -15.800  0.00  0.00    +0.025 C 
ATOM     14  C   UNL     1      35.435 -20.296 -20.052  0.00  0.00    +0.150 C 
ATOM     15  C   UNL     1      33.981 -20.574 -20.398  0.00  0.00    +0.064 C 
ATOM     16  C   UNL     1      36.814 -22.898 -14.022  0.00  0.00    +0.012 C 
ATOM     17  C   UNL     1      36.652 -22.417 -19.892  0.00  0.00    +0.007 C 
ATOM     18  C   UNL     1      36.812 -24.739 -15.739  0.00  0.00    +0.004 C 
ATOM     19  C   UNL     1      36.786 -23.728 -12.756  0.00  0.00    +0.073 C 
ATOM     20  C   UNL     1      34.330 -24.182 -13.379  0.00  0.00    +0.160 C 
ATOM     21  C   UNL     1      35.364 -23.956 -12.328  0.00  0.00    +0.206 C 
ENDROOT
BRANCH  20  22
ATOM     22  O   UNL     1      33.104 -24.579 -12.885  0.00  0.00    -0.503 OA
ATOM     23  H   UNL     1      32.316 -24.237 -13.259  0.00  0.00    +0.292 HD
ENDBRANCH  20  22
TORSDOF 1
ENDMDL
MODEL 9
REMARK VINA RESULT:      -7.3      9.195     13.506
REMARK  Name = 11273
REMARK  1 active torsions:
REMARK  status: ('A' for Active; 'I' for Inactive)
REMARK    1  A    between atoms: C_20  and  O_22
REMARK                            x       y       z     vdW  Elec       q    Type
REMARK                         _______ _______ _______ _____ _____    ______ ____
ROOT
ATOM      1  O   UNL     1      33.499  -6.178 -23.405  0.00  0.00    -0.296 OA
ATOM      2  O   UNL     1      34.559 -16.494 -21.558  0.00  0.00    -0.288 OA
ATOM      3  C   UNL     1      32.105 -10.612 -22.028  0.00  0.00    +0.001 C 
ATOM      4  C   UNL     1      33.219 -11.368 -22.818  0.00  0.00    +0.004 C 
ATOM      5  C   UNL     1      32.523  -9.146 -21.886  0.00  0.00    +0.007 C 
ATOM      6  C   UNL     1      32.672  -8.461 -23.259  0.00  0.00    +0.052 C 
ATOM      7  C   UNL     1      32.918 -12.910 -22.981  0.00  0.00    +0.019 C 
ATOM      8  C   UNL     1      33.577 -10.646 -24.148  0.00  0.00    +0.001 C 
ATOM      9  C   UNL     1      33.829  -9.134 -23.991  0.00  0.00    +0.007 C 
ATOM     10  C   UNL     1      31.889 -11.275 -20.665  0.00  0.00    +0.004 C 
ATOM     11  C   UNL     1      31.661  -8.182 -21.079  0.00  0.00    +0.008 C 
ATOM     12  C   UNL     1      32.568 -13.522 -21.603  0.00  0.00    -0.008 C 
ATOM     13  C   UNL     1      31.520 -12.744 -20.826  0.00  0.00    +0.025 C 
ATOM     14  C   UNL     1      32.908  -7.043 -22.773  0.00  0.00    +0.150 C 
ATOM     15  C   UNL     1      32.284  -6.817 -21.406  0.00  0.00    +0.064 C 
ATOM     16  C   UNL     1      34.189 -13.582 -23.569  0.00  0.00    +0.012 C 
ATOM     17  C   UNL     1      31.405  -8.421 -24.133  0.00  0.00    +0.007 C 
ATOM     18  C   UNL     1      31.735 -13.166 -23.945  0.00  0.00    +0.004 C 
ATOM     19  C   UNL     1      34.177 -15.092 -23.445  0.00  0.00    +0.073 C 
ATOM     20  C   UNL     1      33.117 -14.668 -21.138  0.00  0.00    +0.160 C 
ATOM     21  C   UNL     1      34.017 -15.483 -22.004  0.00  0.00    +0.206 C 
ENDROOT
BRANCH  20  22
ATOM     22  O   UNL     1      32.879 -15.220 -19.897  0.00  0.00    -0.503 OA
ATOM     23  H   UNL     1      33.329 -16.000 -19.637  0.00  0.00    +0.292 HD
ENDBRANCH  20  22
TORSDOF 1
ENDMDL
