MODEL 1
REMARK VINA RESULT:      -9.5      0.000      0.000
REMARK  Name = 108092
REMARK  8 active torsions:
REMARK  status: ('A' for Active; 'I' for Inactive)
REMARK    1  A    between atoms: C_1  and  C_16
REMARK    2  A    between atoms: C_2  and  O_7
REMARK    3  A    between atoms: O_7  and  C_8
REMARK    4  A    between atoms: C_8  and  C_9
REMARK    5  A    between atoms: C_9  and  N_10
REMARK    6  A    between atoms: N_10  and  C_12
REMARK    7  A    between atoms: N_10  and  C_14
REMARK    8  A    between atoms: C_16  and  C_17
REMARK                            x       y       z     vdW  Elec       q    Type
REMARK                         _______ _______ _______ _____ _____    ______ ____
ROOT
ATOM      1  C   UNL     1      35.221 -19.655 -20.868  0.00  0.00    -0.018 C 
ATOM      2  C   UNL     1      33.629 -21.506 -19.539  0.00  0.00    +0.138 C 
ATOM      3  C   UNL     1      33.835 -19.504 -20.860  0.00  0.00    -0.001 C 
ATOM      4  C   UNL     1      35.809 -20.735 -20.209  0.00  0.00    -0.001 C 
ATOM      5  C   UNL     1      33.036 -20.433 -20.193  0.00  0.00    +0.037 C 
ATOM      6  C   UNL     1      35.010 -21.664 -19.541  0.00  0.00    +0.037 C 
ENDROOT
BRANCH   2   7
ATOM      7  O   UNL     1      32.843 -22.418 -18.884  0.00  0.00    -0.478 OA
BRANCH   7   8
ATOM      8  C   UNL     1      33.365 -22.966 -17.680  0.00  0.00    +0.183 C 
BRANCH   8   9
ATOM      9  C   UNL     1      32.211 -23.254 -16.734  0.00  0.00    -0.029 C 
BRANCH   9  10
ATOM     10  N   UNL     1      32.707 -23.641 -15.414  0.00  0.00    +0.389 N 
ATOM     11  H   UNL     1      32.617 -24.652 -15.319  0.00  0.00    -0.080 HD
BRANCH  10  12
ATOM     12  C   UNL     1      34.121 -23.289 -15.277  0.00  0.00    -0.077 C 
ATOM     13  C   UNL     1      34.916 -24.434 -14.673  0.00  0.00    -0.025 C 
ENDBRANCH  10  12
BRANCH  10  14
ATOM     14  C   UNL     1      31.917 -23.002 -14.363  0.00  0.00    -0.077 C 
ATOM     15  C   UNL     1      30.452 -22.909 -14.756  0.00  0.00    -0.025 C 
ENDBRANCH  10  14
ENDBRANCH   9  10
ENDBRANCH   8   9
ENDBRANCH   7   8
ENDBRANCH   2   7
BRANCH   1  16
ATOM     16  C   UNL     1      36.077 -18.662 -21.580  0.00  0.00    +0.053 C 
BRANCH  16  17
ATOM     17  C   UNL     1      35.442 -18.087 -22.830  0.00  0.00    -0.018 C 
ATOM     18  C   UNL     1      35.087 -18.940 -23.859  0.00  0.00    -0.004 C 
ATOM     19  C   UNL     1      35.233 -16.722 -22.912  0.00  0.00    -0.004 C 
ATOM     20  C   UNL     1      34.504 -18.411 -25.010  0.00  0.00    -0.000 C 
ATOM     21  C   UNL     1      34.649 -16.193 -24.064  0.00  0.00    -0.000 C 
ATOM     22  C   UNL     1      34.284 -17.037 -25.112  0.00  0.00    -0.000 C 
ENDBRANCH  16  17
ENDBRANCH   1  16
TORSDOF 8
ENDMDL
MODEL 2
REMARK VINA RESULT:      -9.5      0.315      1.522
REMARK  Name = 108092
REMARK  8 active torsions:
REMARK  status: ('A' for Active; 'I' for Inactive)
REMARK    1  A    between atoms: C_1  and  C_16
REMARK    2  A    between atoms: C_2  and  O_7
REMARK    3  A    between atoms: O_7  and  C_8
REMARK    4  A    between atoms: C_8  and  C_9
REMARK    5  A    between atoms: C_9  and  N_10
REMARK    6  A    between atoms: N_10  and  C_12
REMARK    7  A    between atoms: N_10  and  C_14
REMARK    8  A    between atoms: C_16  and  C_17
REMARK                            x       y       z     vdW  Elec       q    Type
REMARK                         _______ _______ _______ _____ _____    ______ ____
ROOT
ATOM      1  C   UNL     1      35.204 -19.587 -20.952  0.00  0.00    -0.018 C 
ATOM      2  C   UNL     1      33.530 -21.323 -19.569  0.00  0.00    +0.138 C 
ATOM      3  C   UNL     1      35.746 -20.639 -20.213  0.00  0.00    -0.001 C 
ATOM      4  C   UNL     1      33.822 -19.407 -20.998  0.00  0.00    -0.001 C 
ATOM      5  C   UNL     1      34.906 -21.509 -19.519  0.00  0.00    +0.037 C 
ATOM      6  C   UNL     1      32.981 -20.278 -20.304  0.00  0.00    +0.037 C 
ENDROOT
BRANCH   2   7
ATOM      7  O   UNL     1      32.705 -22.178 -18.886  0.00  0.00    -0.478 OA
BRANCH   7   8
ATOM      8  C   UNL     1      33.320 -23.038 -17.934  0.00  0.00    +0.183 C 
BRANCH   8   9
ATOM      9  C   UNL     1      32.371 -23.226 -16.762  0.00  0.00    -0.029 C 
BRANCH   9  10
ATOM     10  N   UNL     1      33.099 -23.669 -15.573  0.00  0.00    +0.389 N 
ATOM     11  H   UNL     1      33.135 -24.688 -15.578  0.00  0.00    -0.080 HD
BRANCH  10  12
ATOM     12  C   UNL     1      34.470 -23.157 -15.594  0.00  0.00    -0.077 C 
ATOM     13  C   UNL     1      35.435 -24.152 -14.972  0.00  0.00    -0.025 C 
ENDBRANCH  10  12
BRANCH  10  14
ATOM     14  C   UNL     1      32.410 -23.233 -14.360  0.00  0.00    -0.077 C 
ATOM     15  C   UNL     1      30.972 -22.840 -14.655  0.00  0.00    -0.025 C 
ENDBRANCH  10  14
ENDBRANCH   9  10
ENDBRANCH   8   9
ENDBRANCH   7   8
ENDBRANCH   2   7
BRANCH   1  16
ATOM     16  C   UNL     1      36.102 -18.656 -21.695  0.00  0.00    +0.053 C 
BRANCH  16  17
ATOM     17  C   UNL     1      35.445 -17.987 -22.885  0.00  0.00    -0.018 C 
ATOM     18  C   UNL     1      35.203 -16.626 -22.844  0.00  0.00    -0.004 C 
ATOM     19  C   UNL     1      35.101 -18.754 -23.984  0.00  0.00    -0.004 C 
ATOM     20  C   UNL     1      34.597 -16.010 -23.939  0.00  0.00    -0.000 C 
ATOM     21  C   UNL     1      34.495 -18.138 -25.080  0.00  0.00    -0.000 C 
ATOM     22  C   UNL     1      34.243 -16.767 -25.057  0.00  0.00    -0.000 C 
ENDBRANCH  16  17
ENDBRANCH   1  16
TORSDOF 8
ENDMDL
MODEL 3
REMARK VINA RESULT:      -9.5      0.484      1.583
REMARK  Name = 108092
REMARK  8 active torsions:
REMARK  status: ('A' for Active; 'I' for Inactive)
REMARK    1  A    between atoms: C_1  and  C_16
REMARK    2  A    between atoms: C_2  and  O_7
REMARK    3  A    between atoms: O_7  and  C_8
REMARK    4  A    between atoms: C_8  and  C_9
REMARK    5  A    between atoms: C_9  and  N_10
REMARK    6  A    between atoms: N_10  and  C_12
REMARK    7  A    between atoms: N_10  and  C_14
REMARK    8  A    between atoms: C_16  and  C_17
REMARK                            x       y       z     vdW  Elec       q    Type
REMARK                         _______ _______ _______ _____ _____    ______ ____
ROOT
ATOM      1  C   UNL     1      35.215 -19.596 -20.930  0.00  0.00    -0.018 C 
ATOM      2  C   UNL     1      33.578 -21.361 -19.541  0.00  0.00    +0.138 C 
ATOM      3  C   UNL     1      33.831 -19.422 -20.943  0.00  0.00    -0.001 C 
ATOM      4  C   UNL     1      35.778 -20.656 -20.218  0.00  0.00    -0.001 C 
ATOM      5  C   UNL     1      33.010 -20.308 -20.247  0.00  0.00    +0.037 C 
ATOM      6  C   UNL     1      34.956 -21.541 -19.521  0.00  0.00    +0.037 C 
ENDROOT
BRANCH   2   7
ATOM      7  O   UNL     1      32.770 -22.231 -18.857  0.00  0.00    -0.478 OA
BRANCH   7   8
ATOM      8  C   UNL     1      33.410 -23.132 -17.961  0.00  0.00    +0.183 C 
BRANCH   8   9
ATOM      9  C   UNL     1      32.531 -23.308 -16.733  0.00  0.00    -0.029 C 
BRANCH   9  10
ATOM     10  N   UNL     1      33.326 -23.209 -15.510  0.00  0.00    +0.389 N 
ATOM     11  H   UNL     1      33.326 -22.237 -15.202  0.00  0.00    -0.080 HD
BRANCH  10  12
ATOM     12  C   UNL     1      32.738 -24.031 -14.452  0.00  0.00    -0.077 C 
ATOM     13  C   UNL     1      31.608 -23.296 -13.751  0.00  0.00    -0.025 C 
ENDBRANCH  10  12
BRANCH  10  14
ATOM     14  C   UNL     1      34.708 -23.615 -15.764  0.00  0.00    -0.077 C 
ATOM     15  C   UNL     1      35.126 -24.749 -14.842  0.00  0.00    -0.025 C 
ENDBRANCH  10  14
ENDBRANCH   9  10
ENDBRANCH   8   9
ENDBRANCH   7   8
ENDBRANCH   2   7
BRANCH   1  16
ATOM     16  C   UNL     1      36.094 -18.648 -21.674  0.00  0.00    +0.053 C 
BRANCH  16  17
ATOM     17  C   UNL     1      35.441 -18.032 -22.895  0.00  0.00    -0.018 C 
ATOM     18  C   UNL     1      35.087 -18.848 -23.953  0.00  0.00    -0.004 C 
ATOM     19  C   UNL     1      35.217 -16.667 -22.921  0.00  0.00    -0.004 C 
ATOM     20  C   UNL     1      34.487 -18.280 -25.077  0.00  0.00    -0.000 C 
ATOM     21  C   UNL     1      34.615 -16.100 -24.045  0.00  0.00    -0.000 C 
ATOM     22  C   UNL     1      34.251 -16.906 -25.123  0.00  0.00    -0.000 C 
ENDBRANCH  16  17
ENDBRANCH   1  16
TORSDOF 8
ENDMDL
MODEL 4
REMARK VINA RESULT:      -9.3      5.130     10.094
REMARK  Name = 108092
REMARK  8 active torsions:
REMARK  status: ('A' for Active; 'I' for Inactive)
REMARK    1  A    between atoms: C_1  and  C_16
REMARK    2  A    between atoms: C_2  and  O_7
REMARK    3  A    between atoms: O_7  and  C_8
REMARK    4  A    between atoms: C_8  and  C_9
REMARK    5  A    between atoms: C_9  and  N_10
REMARK    6  A    between atoms: N_10  and  C_12
REMARK    7  A    between atoms: N_10  and  C_14
REMARK    8  A    between atoms: C_16  and  C_17
REMARK                            x       y       z     vdW  Elec       q    Type
REMARK                         _______ _______ _______ _____ _____    ______ ____
ROOT
ATOM      1  C   UNL     1      35.253 -17.426 -22.040  0.00  0.00    -0.018 C 
ATOM      2  C   UNL     1      34.205 -14.864 -22.297  0.00  0.00    +0.138 C 
ATOM      3  C   UNL     1      35.005 -16.657 -20.904  0.00  0.00    -0.001 C 
ATOM      4  C   UNL     1      34.974 -16.910 -23.306  0.00  0.00    -0.001 C 
ATOM      5  C   UNL     1      34.480 -15.371 -21.033  0.00  0.00    +0.037 C 
ATOM      6  C   UNL     1      34.448 -15.624 -23.435  0.00  0.00    +0.037 C 
ENDROOT
BRANCH   2   7
ATOM      7  O   UNL     1      33.690 -13.600 -22.422  0.00  0.00    -0.478 OA
BRANCH   7   8
ATOM      8  C   UNL     1      33.512 -13.108 -23.744  0.00  0.00    +0.183 C 
BRANCH   8   9
ATOM      9  C   UNL     1      33.324 -11.601 -23.684  0.00  0.00    -0.029 C 
BRANCH   9  10
ATOM     10  N   UNL     1      34.494 -10.912 -24.225  0.00  0.00    +0.389 N 
ATOM     11  H   UNL     1      35.327 -11.283 -23.769  0.00  0.00    -0.080 HD
BRANCH  10  12
ATOM     12  C   UNL     1      34.608 -11.152 -25.664  0.00  0.00    -0.077 C 
ATOM     13  C   UNL     1      35.701 -10.293 -26.278  0.00  0.00    -0.025 C 
ENDBRANCH  10  12
BRANCH  10  14
ATOM     14  C   UNL     1      34.414  -9.478 -23.951  0.00  0.00    -0.077 C 
ATOM     15  C   UNL     1      33.063  -9.105 -23.365  0.00  0.00    -0.025 C 
ENDBRANCH  10  14
ENDBRANCH   9  10
ENDBRANCH   8   9
ENDBRANCH   7   8
ENDBRANCH   2   7
BRANCH   1  16
ATOM     16  C   UNL     1      35.813 -18.802 -21.904  0.00  0.00    +0.053 C 
BRANCH  16  17
ATOM     17  C   UNL     1      34.975 -19.725 -21.044  0.00  0.00    -0.018 C 
ATOM     18  C   UNL     1      33.597 -19.614 -21.080  0.00  0.00    -0.004 C 
ATOM     19  C   UNL     1      35.608 -20.657 -20.241  0.00  0.00    -0.004 C 
ATOM     20  C   UNL     1      32.825 -20.464 -20.288  0.00  0.00    -0.000 C 
ATOM     21  C   UNL     1      34.836 -21.508 -19.449  0.00  0.00    -0.000 C 
ATOM     22  C   UNL     1      33.445 -21.411 -19.472  0.00  0.00    -0.000 C 
ENDBRANCH  16  17
ENDBRANCH   1  16
TORSDOF 8
ENDMDL
MODEL 5
REMARK VINA RESULT:      -9.2      5.199      9.116
REMARK  Name = 108092
REMARK  8 active torsions:
REMARK  status: ('A' for Active; 'I' for Inactive)
REMARK    1  A    between atoms: C_1  and  C_16
REMARK    2  A    between atoms: C_2  and  O_7
REMARK    3  A    between atoms: O_7  and  C_8
REMARK    4  A    between atoms: C_8  and  C_9
REMARK    5  A    between atoms: C_9  and  N_10
REMARK    6  A    between atoms: N_10  and  C_12
REMARK    7  A    between atoms: N_10  and  C_14
REMARK    8  A    between atoms: C_16  and  C_17
REMARK                            x       y       z     vdW  Elec       q    Type
REMARK                         _______ _______ _______ _____ _____    ______ ____
ROOT
ATOM      1  C   UNL     1      35.306 -17.331 -22.057  0.00  0.00    -0.018 C 
ATOM      2  C   UNL     1      34.263 -14.760 -22.233  0.00  0.00    +0.138 C 
ATOM      3  C   UNL     1      35.105 -16.743 -23.305  0.00  0.00    -0.001 C 
ATOM      4  C   UNL     1      34.984 -16.627 -20.895  0.00  0.00    -0.001 C 
ATOM      5  C   UNL     1      34.581 -15.454 -23.394  0.00  0.00    +0.037 C 
ATOM      6  C   UNL     1      34.461 -15.337 -20.984  0.00  0.00    +0.037 C 
ENDROOT
BRANCH   2   7
ATOM      7  O   UNL     1      33.749 -13.493 -22.321  0.00  0.00    -0.478 OA
BRANCH   7   8
ATOM      8  C   UNL     1      32.416 -13.308 -21.860  0.00  0.00    +0.183 C 
BRANCH   8   9
ATOM      9  C   UNL     1      31.868 -12.020 -22.452  0.00  0.00    -0.029 C 
BRANCH   9  10
ATOM     10  N   UNL     1      31.266 -11.188 -21.412  0.00  0.00    +0.389 N 
ATOM     11  H   UNL     1      30.254 -11.190 -21.542  0.00  0.00    -0.080 HD
BRANCH  10  12
ATOM     12  C   UNL     1      31.563 -11.732 -20.087  0.00  0.00    -0.077 C 
ATOM     13  C   UNL     1      31.420 -10.668 -19.012  0.00  0.00    -0.025 C 
ENDBRANCH  10  12
BRANCH  10  14
ATOM     14  C   UNL     1      31.745  -9.811 -21.518  0.00  0.00    -0.077 C 
ATOM     15  C   UNL     1      32.404  -9.560 -22.864  0.00  0.00    -0.025 C 
ENDBRANCH  10  14
ENDBRANCH   9  10
ENDBRANCH   8   9
ENDBRANCH   7   8
ENDBRANCH   2   7
BRANCH   1  16
ATOM     16  C   UNL     1      35.866 -18.710 -21.961  0.00  0.00    +0.053 C 
BRANCH  16  17
ATOM     17  C   UNL     1      35.033 -19.655 -21.119  0.00  0.00    -0.018 C 
ATOM     18  C   UNL     1      35.672 -20.564 -20.295  0.00  0.00    -0.004 C 
ATOM     19  C   UNL     1      33.654 -19.588 -21.197  0.00  0.00    -0.004 C 
ATOM     20  C   UNL     1      34.905 -21.435 -19.521  0.00  0.00    -0.000 C 
ATOM     21  C   UNL     1      32.887 -20.459 -20.422  0.00  0.00    -0.000 C 
ATOM     22  C   UNL     1      33.512 -21.382 -19.585  0.00  0.00    -0.000 C 
ENDBRANCH  16  17
ENDBRANCH   1  16
TORSDOF 8
ENDMDL
MODEL 6
REMARK VINA RESULT:      -9.1      1.052      1.735
REMARK  Name = 108092
REMARK  8 active torsions:
REMARK  status: ('A' for Active; 'I' for Inactive)
REMARK    1  A    between atoms: C_1  and  C_16
REMARK    2  A    between atoms: C_2  and  O_7
REMARK    3  A    between atoms: O_7  and  C_8
REMARK    4  A    between atoms: C_8  and  C_9
REMARK    5  A    between atoms: C_9  and  N_10
REMARK    6  A    between atoms: N_10  and  C_12
REMARK    7  A    between atoms: N_10  and  C_14
REMARK    8  A    between atoms: C_16  and  C_17
REMARK                            x       y       z     vdW  Elec       q    Type
REMARK                         _______ _______ _______ _____ _____    ______ ____
ROOT
ATOM      1  C   UNL     1      35.065 -19.556 -21.050  0.00  0.00    -0.018 C 
ATOM      2  C   UNL     1      33.479 -21.366 -19.659  0.00  0.00    +0.138 C 
ATOM      3  C   UNL     1      33.676 -19.493 -21.158  0.00  0.00    -0.001 C 
ATOM      4  C   UNL     1      35.659 -20.527 -20.243  0.00  0.00    -0.001 C 
ATOM      5  C   UNL     1      32.881 -20.401 -20.460  0.00  0.00    +0.037 C 
ATOM      6  C   UNL     1      34.863 -21.435 -19.545  0.00  0.00    +0.037 C 
ENDROOT
BRANCH   2   7
ATOM      7  O   UNL     1      32.696 -22.258 -18.974  0.00  0.00    -0.478 OA
BRANCH   7   8
ATOM      8  C   UNL     1      33.260 -22.841 -17.806  0.00  0.00    +0.183 C 
BRANCH   8   9
ATOM      9  C   UNL     1      32.141 -23.147 -16.824  0.00  0.00    -0.029 C 
BRANCH   9  10
ATOM     10  N   UNL     1      32.686 -23.577 -15.537  0.00  0.00    +0.389 N 
ATOM     11  H   UNL     1      32.566 -24.586 -15.456  0.00  0.00    -0.080 HD
BRANCH  10  12
ATOM     12  C   UNL     1      34.116 -23.275 -15.461  0.00  0.00    -0.077 C 
ATOM     13  C   UNL     1      34.785 -24.065 -14.349  0.00  0.00    -0.025 C 
ENDBRANCH  10  12
BRANCH  10  14
ATOM     14  C   UNL     1      31.969 -22.933 -14.437  0.00  0.00    -0.077 C 
ATOM     15  C   UNL     1      30.969 -23.885 -13.802  0.00  0.00    -0.025 C 
ENDBRANCH  10  14
ENDBRANCH   9  10
ENDBRANCH   8   9
ENDBRANCH   7   8
ENDBRANCH   2   7
BRANCH   1  16
ATOM     16  C   UNL     1      35.918 -18.584 -21.795  0.00  0.00    +0.053 C 
BRANCH  16  17
ATOM     17  C   UNL     1      35.313 -17.200 -21.914  0.00  0.00    -0.018 C 
ATOM     18  C   UNL     1      34.949 -16.523 -20.765  0.00  0.00    -0.004 C 
ATOM     19  C   UNL     1      35.138 -16.647 -23.170  0.00  0.00    -0.004 C 
ATOM     20  C   UNL     1      34.391 -15.249 -20.874  0.00  0.00    -0.000 C 
ATOM     21  C   UNL     1      34.581 -15.373 -23.279  0.00  0.00    -0.000 C 
ATOM     22  C   UNL     1      34.207 -14.674 -22.132  0.00  0.00    -0.000 C 
ENDBRANCH  16  17
ENDBRANCH   1  16
TORSDOF 8
ENDMDL
MODEL 7
REMARK VINA RESULT:      -9.1      1.101      2.429
REMARK  Name = 108092
REMARK  8 active torsions:
REMARK  status: ('A' for Active; 'I' for Inactive)
REMARK    1  A    between atoms: C_1  and  C_16
REMARK    2  A    between atoms: C_2  and  O_7
REMARK    3  A    between atoms: O_7  and  C_8
REMARK    4  A    between atoms: C_8  and  C_9
REMARK    5  A    between atoms: C_9  and  N_10
REMARK    6  A    between atoms: N_10  and  C_12
REMARK    7  A    between atoms: N_10  and  C_14
REMARK    8  A    between atoms: C_16  and  C_17
REMARK                            x       y       z     vdW  Elec       q    Type
REMARK                         _______ _______ _______ _____ _____    ______ ____
ROOT
ATOM      1  C   UNL     1      35.043 -19.603 -21.106  0.00  0.00    -0.018 C 
ATOM      2  C   UNL     1      33.539 -21.375 -19.582  0.00  0.00    +0.138 C 
ATOM      3  C   UNL     1      35.680 -20.580 -20.341  0.00  0.00    -0.001 C 
ATOM      4  C   UNL     1      33.651 -19.516 -21.108  0.00  0.00    -0.001 C 
ATOM      5  C   UNL     1      34.925 -21.468 -19.575  0.00  0.00    +0.037 C 
ATOM      6  C   UNL     1      32.896 -20.405 -20.343  0.00  0.00    +0.037 C 
ENDROOT
BRANCH   2   7
ATOM      7  O   UNL     1      32.798 -22.248 -18.829  0.00  0.00    -0.478 OA
BRANCH   7   8
ATOM      8  C   UNL     1      33.492 -22.978 -17.825  0.00  0.00    +0.183 C 
BRANCH   8   9
ATOM      9  C   UNL     1      32.533 -23.274 -16.684  0.00  0.00    -0.029 C 
BRANCH   9  10
ATOM     10  N   UNL     1      33.209 -23.150 -15.394  0.00  0.00    +0.389 N 
ATOM     11  H   UNL     1      33.086 -22.196 -15.055  0.00  0.00    -0.080 HD
BRANCH  10  12
ATOM     12  C   UNL     1      32.620 -24.067 -14.418  0.00  0.00    -0.077 C 
ATOM     13  C   UNL     1      31.187 -24.413 -14.787  0.00  0.00    -0.025 C 
ENDBRANCH  10  12
BRANCH  10  14
ATOM     14  C   UNL     1      34.641 -23.410 -15.540  0.00  0.00    -0.077 C 
ATOM     15  C   UNL     1      35.031 -24.722 -14.880  0.00  0.00    -0.025 C 
ENDBRANCH  10  14
ENDBRANCH   9  10
ENDBRANCH   8   9
ENDBRANCH   7   8
ENDBRANCH   2   7
BRANCH   1  16
ATOM     16  C   UNL     1      35.850 -18.653 -21.926  0.00  0.00    +0.053 C 
BRANCH  16  17
ATOM     17  C   UNL     1      35.267 -17.256 -22.000  0.00  0.00    -0.018 C 
ATOM     18  C   UNL     1      35.087 -16.666 -23.238  0.00  0.00    -0.004 C 
ATOM     19  C   UNL     1      34.929 -16.605 -20.828  0.00  0.00    -0.004 C 
ATOM     20  C   UNL     1      34.551 -15.380 -23.306  0.00  0.00    -0.000 C 
ATOM     21  C   UNL     1      34.393 -15.318 -20.896  0.00  0.00    -0.000 C 
ATOM     22  C   UNL     1      34.204 -14.706 -22.135  0.00  0.00    -0.000 C 
ENDBRANCH  16  17
ENDBRANCH   1  16
TORSDOF 8
ENDMDL
MODEL 8
REMARK VINA RESULT:      -9.1      5.078     10.033
REMARK  Name = 108092
REMARK  8 active torsions:
REMARK  status: ('A' for Active; 'I' for Inactive)
REMARK    1  A    between atoms: C_1  and  C_16
REMARK    2  A    between atoms: C_2  and  O_7
REMARK    3  A    between atoms: O_7  and  C_8
REMARK    4  A    between atoms: C_8  and  C_9
REMARK    5  A    between atoms: C_9  and  N_10
REMARK    6  A    between atoms: N_10  and  C_12
REMARK    7  A    between atoms: N_10  and  C_14
REMARK    8  A    between atoms: C_16  and  C_17
REMARK                            x       y       z     vdW  Elec       q    Type
REMARK                         _______ _______ _______ _____ _____    ______ ____
ROOT
ATOM      1  C   UNL     1      35.191 -17.410 -22.087  0.00  0.00    -0.018 C 
ATOM      2  C   UNL     1      33.705 -15.175 -22.810  0.00  0.00    +0.138 C 
ATOM      3  C   UNL     1      34.985 -17.116 -23.434  0.00  0.00    -0.001 C 
ATOM      4  C   UNL     1      34.652 -16.583 -21.101  0.00  0.00    -0.001 C 
ATOM      5  C   UNL     1      34.239 -15.995 -23.797  0.00  0.00    +0.037 C 
ATOM      6  C   UNL     1      33.907 -15.461 -21.464  0.00  0.00    +0.037 C 
ENDROOT
BRANCH   2   7
ATOM      7  O   UNL     1      32.972 -14.074 -23.167  0.00  0.00    -0.478 OA
BRANCH   7   8
ATOM      8  C   UNL     1      33.574 -13.175 -24.090  0.00  0.00    +0.183 C 
BRANCH   8   9
ATOM      9  C   UNL     1      33.424 -11.758 -23.560  0.00  0.00    -0.029 C 
BRANCH   9  10
ATOM     10  N   UNL     1      34.430 -10.876 -24.151  0.00  0.00    +0.389 N 
ATOM     11  H   UNL     1      35.331 -11.079 -23.720  0.00  0.00    -0.080 HD
BRANCH  10  12
ATOM     12  C   UNL     1      34.540 -11.119 -25.589  0.00  0.00    -0.077 C 
ATOM     13  C   UNL     1      35.702 -10.345 -26.189  0.00  0.00    -0.025 C 
ENDBRANCH  10  12
BRANCH  10  14
ATOM     14  C   UNL     1      34.096  -9.476 -23.894  0.00  0.00    -0.077 C 
ATOM     15  C   UNL     1      32.625  -9.317 -23.545  0.00  0.00    -0.025 C 
ENDBRANCH  10  14
ENDBRANCH   9  10
ENDBRANCH   8   9
ENDBRANCH   7   8
ENDBRANCH   2   7
BRANCH   1  16
ATOM     16  C   UNL     1      35.990 -18.609 -21.698  0.00  0.00    +0.053 C 
BRANCH  16  17
ATOM     17  C   UNL     1      35.205 -19.645 -20.919  0.00  0.00    -0.018 C 
ATOM     18  C   UNL     1      35.886 -20.552 -20.128  0.00  0.00    -0.004 C 
ATOM     19  C   UNL     1      33.825 -19.659 -21.019  0.00  0.00    -0.004 C 
ATOM     20  C   UNL     1      35.163 -21.506 -19.412  0.00  0.00    -0.000 C 
ATOM     21  C   UNL     1      33.102 -20.613 -20.302  0.00  0.00    -0.000 C 
ATOM     22  C   UNL     1      33.771 -21.537 -19.499  0.00  0.00    -0.000 C 
ENDBRANCH  16  17
ENDBRANCH   1  16
TORSDOF 8
ENDMDL
MODEL 9
REMARK VINA RESULT:      -9.1      5.111      9.103
REMARK  Name = 108092
REMARK  8 active torsions:
REMARK  status: ('A' for Active; 'I' for Inactive)
REMARK    1  A    between atoms: C_1  and  C_16
REMARK    2  A    between atoms: C_2  and  O_7
REMARK    3  A    between atoms: O_7  and  C_8
REMARK    4  A    between atoms: C_8  and  C_9
REMARK    5  A    between atoms: C_9  and  N_10
REMARK    6  A    between atoms: N_10  and  C_12
REMARK    7  A    between atoms: N_10  and  C_14
REMARK    8  A    between atoms: C_16  and  C_17
REMARK                            x       y       z     vdW  Elec       q    Type
REMARK                         _______ _______ _______ _____ _____    ______ ____
ROOT
ATOM      1  C   UNL     1      35.263 -17.461 -21.951  0.00  0.00    -0.018 C 
ATOM      2  C   UNL     1      33.818 -15.230 -22.766  0.00  0.00    +0.138 C 
ATOM      3  C   UNL     1      34.808 -16.541 -21.006  0.00  0.00    -0.001 C 
ATOM      4  C   UNL     1      34.992 -17.262 -23.305  0.00  0.00    -0.001 C 
ATOM      5  C   UNL     1      34.083 -15.422 -21.415  0.00  0.00    +0.037 C 
ATOM      6  C   UNL     1      34.267 -16.142 -23.714  0.00  0.00    +0.037 C 
ENDROOT
BRANCH   2   7
ATOM      7  O   UNL     1      33.106 -14.130 -23.167  0.00  0.00    -0.478 OA
BRANCH   7   8
ATOM      8  C   UNL     1      32.295 -13.498 -22.184  0.00  0.00    +0.183 C 
BRANCH   8   9
ATOM      9  C   UNL     1      32.253 -12.006 -22.470  0.00  0.00    -0.029 C 
BRANCH   9  10
ATOM     10  N   UNL     1      31.407 -11.316 -21.498  0.00  0.00    +0.389 N 
ATOM     11  H   UNL     1      30.432 -11.496 -21.733  0.00  0.00    -0.080 HD
BRANCH  10  12
ATOM     12  C   UNL     1      31.659 -11.826 -20.150  0.00  0.00    -0.077 C 
ATOM     13  C   UNL     1      31.435 -10.746 -19.104  0.00  0.00    -0.025 C 
ENDBRANCH  10  12
BRANCH  10  14
ATOM     14  C   UNL     1      31.640  -9.873 -21.550  0.00  0.00    -0.077 C 
ATOM     15  C   UNL     1      32.524  -9.502 -22.729  0.00  0.00    -0.025 C 
ENDBRANCH  10  14
ENDBRANCH   9  10
ENDBRANCH   8   9
ENDBRANCH   7   8
ENDBRANCH   2   7
BRANCH   1  16
ATOM     16  C   UNL     1      36.037 -18.659 -21.514  0.00  0.00    +0.053 C 
BRANCH  16  17
ATOM     17  C   UNL     1      35.203 -19.704 -20.802  0.00  0.00    -0.018 C 
ATOM     18  C   UNL     1      33.825 -19.649 -20.900  0.00  0.00    -0.004 C 
ATOM     19  C   UNL     1      35.841 -20.688 -20.067  0.00  0.00    -0.004 C 
ATOM     20  C   UNL     1      33.058 -20.611 -20.244  0.00  0.00    -0.000 C 
ATOM     21  C   UNL     1      35.074 -21.650 -19.411  0.00  0.00    -0.000 C 
ATOM     22  C   UNL     1      33.682 -21.612 -19.499  0.00  0.00    -0.000 C 
ENDBRANCH  16  17
ENDBRANCH   1  16
TORSDOF 8
ENDMDL
