MODEL 1
REMARK VINA RESULT:      -8.1      0.000      0.000
REMARK  Name = 15942673
REMARK  4 active torsions:
REMARK  status: ('A' for Active; 'I' for Inactive)
REMARK    1  A    between atoms: C_4  and  C_11
REMARK    2  A    between atoms: C_5  and  C_20
REMARK    3  A    between atoms: C_14  and  O_17
REMARK    4  A    between atoms: C_20  and  C_21
REMARK                            x       y       z     vdW  Elec       q    Type
REMARK                         _______ _______ _______ _____ _____    ______ ____
ROOT
ATOM      1  S   UNL     1      37.105 -21.285 -17.441  0.00  0.00    -0.018 S 
ATOM      2  N   UNL     1      36.040 -22.409 -15.335  0.00  0.00    -0.310 N 
ATOM      3  N   UNL     1      34.682 -22.622 -17.269  0.00  0.00    -0.272 N 
ATOM      4  C   UNL     1      35.209 -23.289 -14.534  0.00  0.00    +0.120 C 
ATOM      5  C   UNL     1      33.873 -23.489 -15.192  0.00  0.00    +0.048 C 
ATOM      6  C   UNL     1      33.641 -23.175 -16.485  0.00  0.00    +0.032 C 
ATOM      7  C   UNL     1      35.877 -22.157 -16.680  0.00  0.00    +0.139 C 
ATOM      8  C   UNL     1      32.296 -23.362 -17.154  0.00  0.00    +0.047 C 
ATOM      9  C   UNL     1      34.455 -22.470 -18.718  0.00  0.00    +0.119 C 
ATOM     10  H   UNL     1      36.781 -21.953 -14.877  0.00  0.00    +0.149 HD
ENDROOT
BRANCH   4  11
ATOM     11  C   UNL     1      35.921 -24.586 -14.316  0.00  0.00    +0.003 C 
ATOM     12  C   UNL     1      36.060 -25.486 -15.369  0.00  0.00    +0.034 C 
ATOM     13  C   UNL     1      36.441 -24.889 -13.060  0.00  0.00    -0.002 C 
ATOM     14  C   UNL     1      36.724 -26.696 -15.167  0.00  0.00    +0.133 C 
ATOM     15  C   UNL     1      37.105 -26.098 -12.857  0.00  0.00    +0.003 C 
ATOM     16  C   UNL     1      37.246 -27.002 -13.909  0.00  0.00    +0.037 C 
BRANCH  14  17
ATOM     17  O   UNL     1      36.862 -27.578 -16.194  0.00  0.00    -0.506 OA
ATOM     18  H   UNL     1      37.045 -28.479 -16.015  0.00  0.00    +0.292 HD
ENDBRANCH  14  17
ENDBRANCH   4  11
BRANCH   5  20
ATOM     19  O   UNL     1      33.169 -24.664 -13.290  0.00  0.00    -0.287 OA
ATOM     20  C   UNL     1      32.843 -24.077 -14.313  0.00  0.00    +0.194 C 
BRANCH  20  21
ATOM     21  C   UNL     1      31.416 -23.920 -14.682  0.00  0.00    +0.039 C 
ATOM     22  C   UNL     1      30.849 -22.662 -14.653  0.00  0.00    +0.003 C 
ATOM     23  C   UNL     1      30.692 -25.040 -15.045  0.00  0.00    +0.003 C 
ATOM     24  C   UNL     1      29.505 -22.516 -14.999  0.00  0.00    +0.000 C 
ATOM     25  C   UNL     1      29.349 -24.894 -15.392  0.00  0.00    +0.000 C 
ATOM     26  C   UNL     1      28.755 -23.632 -15.369  0.00  0.00    +0.000 C 
ENDBRANCH  20  21
ENDBRANCH   5  20
TORSDOF 4
ENDMDL
MODEL 2
REMARK VINA RESULT:      -8.1     14.514     16.513
REMARK  Name = 15942673
REMARK  4 active torsions:
REMARK  status: ('A' for Active; 'I' for Inactive)
REMARK    1  A    between atoms: C_4  and  C_11
REMARK    2  A    between atoms: C_5  and  C_20
REMARK    3  A    between atoms: C_14  and  O_17
REMARK    4  A    between atoms: C_20  and  C_21
REMARK                            x       y       z     vdW  Elec       q    Type
REMARK                         _______ _______ _______ _____ _____    ______ ____
ROOT
ATOM      1  S   UNL     1      31.551  -6.260 -24.260  0.00  0.00    -0.018 S 
ATOM      2  N   UNL     1      31.438  -8.811 -23.697  0.00  0.00    -0.310 N 
ATOM      3  N   UNL     1      33.635  -8.090 -24.228  0.00  0.00    -0.272 N 
ATOM      4  C   UNL     1      31.865 -10.136 -23.286  0.00  0.00    +0.120 C 
ATOM      5  C   UNL     1      33.262 -10.407 -23.770  0.00  0.00    +0.048 C 
ATOM      6  C   UNL     1      34.087  -9.431 -24.206  0.00  0.00    +0.032 C 
ATOM      7  C   UNL     1      32.272  -7.772 -24.046  0.00  0.00    +0.139 C 
ATOM      8  C   UNL     1      35.491  -9.697 -24.705  0.00  0.00    +0.047 C 
ATOM      9  C   UNL     1      34.617  -7.030 -24.525  0.00  0.00    +0.119 C 
ATOM     10  H   UNL     1      30.469  -8.641 -23.728  0.00  0.00    +0.149 HD
ENDROOT
BRANCH   4  11
ATOM     11  C   UNL     1      31.759 -10.257 -21.799  0.00  0.00    +0.003 C 
ATOM     12  C   UNL     1      32.118  -9.183 -20.989  0.00  0.00    +0.034 C 
ATOM     13  C   UNL     1      31.301 -11.442 -21.232  0.00  0.00    -0.002 C 
ATOM     14  C   UNL     1      32.019  -9.295 -19.603  0.00  0.00    +0.133 C 
ATOM     15  C   UNL     1      31.200 -11.556 -19.846  0.00  0.00    +0.003 C 
ATOM     16  C   UNL     1      31.560 -10.482 -19.031  0.00  0.00    +0.037 C 
BRANCH  14  17
ATOM     17  O   UNL     1      32.369  -8.248 -18.807  0.00  0.00    -0.506 OA
ATOM     18  H   UNL     1      33.267  -7.989 -18.742  0.00  0.00    +0.292 HD
ENDBRANCH  14  17
ENDBRANCH   4  11
BRANCH   5  20
ATOM     19  O   UNL     1      34.149 -12.285 -22.683  0.00  0.00    -0.287 OA
ATOM     20  C   UNL     1      33.662 -11.827 -23.709  0.00  0.00    +0.194 C 
BRANCH  20  21
ATOM     21  C   UNL     1      33.442 -12.683 -24.898  0.00  0.00    +0.039 C 
ATOM     22  C   UNL     1      33.583 -12.133 -26.157  0.00  0.00    +0.003 C 
ATOM     23  C   UNL     1      33.101 -14.010 -24.713  0.00  0.00    +0.003 C 
ATOM     24  C   UNL     1      33.374 -12.939 -27.276  0.00  0.00    +0.000 C 
ATOM     25  C   UNL     1      32.893 -14.815 -25.833  0.00  0.00    +0.000 C 
ATOM     26  C   UNL     1      33.030 -14.281 -27.114  0.00  0.00    +0.000 C 
ENDBRANCH  20  21
ENDBRANCH   5  20
TORSDOF 4
ENDMDL
MODEL 3
REMARK VINA RESULT:      -7.8      2.444      5.911
REMARK  Name = 15942673
REMARK  4 active torsions:
REMARK  status: ('A' for Active; 'I' for Inactive)
REMARK    1  A    between atoms: C_4  and  C_11
REMARK    2  A    between atoms: C_5  and  C_20
REMARK    3  A    between atoms: C_14  and  O_17
REMARK    4  A    between atoms: C_20  and  C_21
REMARK                            x       y       z     vdW  Elec       q    Type
REMARK                         _______ _______ _______ _____ _____    ______ ____
ROOT
ATOM      1  S   UNL     1      35.731 -24.092 -10.793  0.00  0.00    -0.018 S 
ATOM      2  N   UNL     1      34.565 -23.185 -12.950  0.00  0.00    -0.310 N 
ATOM      3  N   UNL     1      35.933 -25.076 -13.378  0.00  0.00    -0.272 N 
ATOM      4  C   UNL     1      34.009 -23.161 -14.290  0.00  0.00    +0.120 C 
ATOM      5  C   UNL     1      34.837 -24.008 -15.214  0.00  0.00    +0.048 C 
ATOM      6  C   UNL     1      35.736 -24.912 -14.769  0.00  0.00    +0.032 C 
ATOM      7  C   UNL     1      35.404 -24.156 -12.447  0.00  0.00    +0.139 C 
ATOM      8  C   UNL     1      36.582 -25.761 -15.694  0.00  0.00    +0.047 C 
ATOM      9  C   UNL     1      36.776 -26.197 -12.922  0.00  0.00    +0.119 C 
ATOM     10  H   UNL     1      34.323 -22.444 -12.350  0.00  0.00    +0.149 HD
ENDROOT
BRANCH   4  11
ATOM     11  C   UNL     1      32.584 -23.613 -14.248  0.00  0.00    +0.003 C 
ATOM     12  C   UNL     1      31.572 -22.759 -14.679  0.00  0.00    +0.034 C 
ATOM     13  C   UNL     1      32.275 -24.886 -13.776  0.00  0.00    -0.002 C 
ATOM     14  C   UNL     1      30.244 -23.180 -14.640  0.00  0.00    +0.133 C 
ATOM     15  C   UNL     1      30.947 -25.309 -13.737  0.00  0.00    +0.003 C 
ATOM     16  C   UNL     1      29.931 -24.456 -14.168  0.00  0.00    +0.037 C 
BRANCH  14  17
ATOM     17  O   UNL     1      29.252 -22.348 -15.060  0.00  0.00    -0.506 OA
ATOM     18  H   UNL     1      28.380 -22.458 -14.736  0.00  0.00    +0.292 HD
ENDBRANCH  14  17
ENDBRANCH   4  11
BRANCH   5  20
ATOM     19  O   UNL     1      33.702 -24.433 -17.221  0.00  0.00    -0.287 OA
ATOM     20  C   UNL     1      34.568 -23.785 -16.649  0.00  0.00    +0.194 C 
BRANCH  20  21
ATOM     21  C   UNL     1      35.349 -22.751 -17.369  0.00  0.00    +0.039 C 
ATOM     22  C   UNL     1      36.450 -22.190 -16.752  0.00  0.00    +0.003 C 
ATOM     23  C   UNL     1      34.951 -22.376 -18.639  0.00  0.00    +0.003 C 
ATOM     24  C   UNL     1      37.183 -21.216 -17.430  0.00  0.00    +0.000 C 
ATOM     25  C   UNL     1      35.685 -21.402 -19.316  0.00  0.00    +0.000 C 
ATOM     26  C   UNL     1      36.801 -20.821 -18.712  0.00  0.00    +0.000 C 
ENDBRANCH  20  21
ENDBRANCH   5  20
TORSDOF 4
ENDMDL
MODEL 4
REMARK VINA RESULT:      -7.8      2.467      4.340
REMARK  Name = 15942673
REMARK  4 active torsions:
REMARK  status: ('A' for Active; 'I' for Inactive)
REMARK    1  A    between atoms: C_4  and  C_11
REMARK    2  A    between atoms: C_5  and  C_20
REMARK    3  A    between atoms: C_14  and  O_17
REMARK    4  A    between atoms: C_20  and  C_21
REMARK                            x       y       z     vdW  Elec       q    Type
REMARK                         _______ _______ _______ _____ _____    ______ ____
ROOT
ATOM      1  S   UNL     1      37.644 -27.000 -14.761  0.00  0.00    -0.018 S 
ATOM      2  N   UNL     1      35.357 -25.842 -15.272  0.00  0.00    -0.310 N 
ATOM      3  N   UNL     1      36.307 -25.122 -13.220  0.00  0.00    -0.272 N 
ATOM      4  C   UNL     1      34.289 -24.859 -15.236  0.00  0.00    +0.120 C 
ATOM      5  C   UNL     1      34.164 -24.274 -13.858  0.00  0.00    +0.048 C 
ATOM      6  C   UNL     1      35.127 -24.401 -12.919  0.00  0.00    +0.032 C 
ATOM      7  C   UNL     1      36.403 -25.922 -14.379  0.00  0.00    +0.139 C 
ATOM      8  C   UNL     1      35.004 -23.824 -11.525  0.00  0.00    +0.047 C 
ATOM      9  C   UNL     1      37.414 -25.081 -12.247  0.00  0.00    +0.119 C 
ATOM     10  H   UNL     1      35.329 -26.508 -15.995  0.00  0.00    +0.149 HD
ENDROOT
BRANCH   4  11
ATOM     11  C   UNL     1      34.546 -23.805 -16.266  0.00  0.00    +0.003 C 
ATOM     12  C   UNL     1      33.634 -23.611 -17.301  0.00  0.00    +0.034 C 
ATOM     13  C   UNL     1      35.696 -23.025 -16.187  0.00  0.00    -0.002 C 
ATOM     14  C   UNL     1      33.873 -22.628 -18.261  0.00  0.00    +0.133 C 
ATOM     15  C   UNL     1      35.936 -22.042 -17.147  0.00  0.00    +0.003 C 
ATOM     16  C   UNL     1      35.025 -21.844 -18.185  0.00  0.00    +0.037 C 
BRANCH  14  17
ATOM     17  O   UNL     1      32.984 -22.435 -19.274  0.00  0.00    -0.506 OA
ATOM     18  H   UNL     1      32.766 -23.143 -19.847  0.00  0.00    +0.292 HD
ENDBRANCH  14  17
ENDBRANCH   4  11
BRANCH   5  20
ATOM     19  O   UNL     1      32.888 -22.595 -12.833  0.00  0.00    -0.287 OA
ATOM     20  C   UNL     1      32.910 -23.530 -13.624  0.00  0.00    +0.194 C 
BRANCH  20  21
ATOM     21  C   UNL     1      31.696 -23.922 -14.378  0.00  0.00    +0.039 C 
ATOM     22  C   UNL     1      31.173 -25.187 -14.197  0.00  0.00    +0.003 C 
ATOM     23  C   UNL     1      31.122 -23.009 -15.242  0.00  0.00    +0.003 C 
ATOM     24  C   UNL     1      30.031 -25.555 -14.908  0.00  0.00    +0.000 C 
ATOM     25  C   UNL     1      29.979 -23.378 -15.952  0.00  0.00    +0.000 C 
ATOM     26  C   UNL     1      29.433 -24.651 -15.786  0.00  0.00    +0.000 C 
ENDBRANCH  20  21
ENDBRANCH   5  20
TORSDOF 4
ENDMDL
MODEL 5
REMARK VINA RESULT:      -7.1     16.166     18.681
REMARK  Name = 15942673
REMARK  4 active torsions:
REMARK  status: ('A' for Active; 'I' for Inactive)
REMARK    1  A    between atoms: C_4  and  C_11
REMARK    2  A    between atoms: C_5  and  C_20
REMARK    3  A    between atoms: C_14  and  O_17
REMARK    4  A    between atoms: C_20  and  C_21
REMARK                            x       y       z     vdW  Elec       q    Type
REMARK                         _______ _______ _______ _____ _____    ______ ____
ROOT
ATOM      1  S   UNL     1      32.327  -9.926 -19.036  0.00  0.00    -0.018 S 
ATOM      2  N   UNL     1      31.708  -9.833 -21.574  0.00  0.00    -0.310 N 
ATOM      3  N   UNL     1      32.100  -7.683 -20.650  0.00  0.00    -0.272 N 
ATOM      4  C   UNL     1      31.610  -9.339 -22.935  0.00  0.00    +0.120 C 
ATOM      5  C   UNL     1      31.423  -7.848 -22.937  0.00  0.00    +0.048 C 
ATOM      6  C   UNL     1      31.664  -7.079 -21.854  0.00  0.00    +0.032 C 
ATOM      7  C   UNL     1      32.052  -9.082 -20.471  0.00  0.00    +0.139 C 
ATOM      8  C   UNL     1      31.468  -5.578 -21.844  0.00  0.00    +0.047 C 
ATOM      9  C   UNL     1      32.536  -6.803 -19.550  0.00  0.00    +0.119 C 
ATOM     10  H   UNL     1      31.510 -10.785 -21.426  0.00  0.00    +0.149 HD
ENDROOT
BRANCH   4  11
ATOM     11  C   UNL     1      32.826  -9.748 -23.703  0.00  0.00    +0.003 C 
ATOM     12  C   UNL     1      32.802 -10.908 -24.474  0.00  0.00    +0.034 C 
ATOM     13  C   UNL     1      33.978  -8.968 -23.644  0.00  0.00    -0.002 C 
ATOM     14  C   UNL     1      33.935 -11.289 -25.191  0.00  0.00    +0.133 C 
ATOM     15  C   UNL     1      35.112  -9.349 -24.360  0.00  0.00    +0.003 C 
ATOM     16  C   UNL     1      35.091 -10.510 -25.133  0.00  0.00    +0.037 C 
BRANCH  14  17
ATOM     17  O   UNL     1      33.915 -12.422 -25.945  0.00  0.00    -0.506 OA
ATOM     18  H   UNL     1      33.693 -13.243 -25.552  0.00  0.00    +0.292 HD
ENDBRANCH  14  17
ENDBRANCH   4  11
BRANCH   5  20
ATOM     19  O   UNL     1      30.002  -7.769 -24.801  0.00  0.00    -0.287 OA
ATOM     20  C   UNL     1      30.975  -7.293 -24.230  0.00  0.00    +0.194 C 
BRANCH  20  21
ATOM     21  C   UNL     1      31.708  -6.140 -24.805  0.00  0.00    +0.039 C 
ATOM     22  C   UNL     1      31.085  -4.909 -24.862  0.00  0.00    +0.003 C 
ATOM     23  C   UNL     1      32.996  -6.331 -25.269  0.00  0.00    +0.003 C 
ATOM     24  C   UNL     1      31.776  -3.825 -25.404  0.00  0.00    +0.000 C 
ATOM     25  C   UNL     1      33.686  -5.247 -25.811  0.00  0.00    +0.000 C 
ATOM     26  C   UNL     1      33.077  -3.994 -25.879  0.00  0.00    +0.000 C 
ENDBRANCH  20  21
ENDBRANCH   5  20
TORSDOF 4
ENDMDL
MODEL 6
REMARK VINA RESULT:      -6.8     13.863     16.104
REMARK  Name = 15942673
REMARK  4 active torsions:
REMARK  status: ('A' for Active; 'I' for Inactive)
REMARK    1  A    between atoms: C_4  and  C_11
REMARK    2  A    between atoms: C_5  and  C_20
REMARK    3  A    between atoms: C_14  and  O_17
REMARK    4  A    between atoms: C_20  and  C_21
REMARK                            x       y       z     vdW  Elec       q    Type
REMARK                         _______ _______ _______ _____ _____    ______ ____
ROOT
ATOM      1  S   UNL     1      31.473  -6.480 -23.862  0.00  0.00    -0.018 S 
ATOM      2  N   UNL     1      31.455  -9.072 -23.525  0.00  0.00    -0.310 N 
ATOM      3  N   UNL     1      33.621  -8.229 -23.999  0.00  0.00    -0.272 N 
ATOM      4  C   UNL     1      31.932 -10.412 -23.235  0.00  0.00    +0.120 C 
ATOM      5  C   UNL     1      33.334 -10.589 -23.746  0.00  0.00    +0.048 C 
ATOM      6  C   UNL     1      34.121  -9.549 -24.097  0.00  0.00    +0.032 C 
ATOM      7  C   UNL     1      32.249  -7.977 -23.785  0.00  0.00    +0.139 C 
ATOM      8  C   UNL     1      35.530  -9.719 -24.624  0.00  0.00    +0.047 C 
ATOM      9  C   UNL     1      34.563  -7.112 -24.205  0.00  0.00    +0.119 C 
ATOM     10  H   UNL     1      30.481  -8.936 -23.538  0.00  0.00    +0.149 HD
ENDROOT
BRANCH   4  11
ATOM     11  C   UNL     1      31.840 -10.667 -21.764  0.00  0.00    +0.003 C 
ATOM     12  C   UNL     1      31.951 -11.968 -21.278  0.00  0.00    +0.034 C 
ATOM     13  C   UNL     1      31.644  -9.604 -20.888  0.00  0.00    -0.002 C 
ATOM     14  C   UNL     1      31.866 -12.206 -19.907  0.00  0.00    +0.133 C 
ATOM     15  C   UNL     1      31.559  -9.841 -19.516  0.00  0.00    +0.003 C 
ATOM     16  C   UNL     1      31.669 -11.142 -19.025  0.00  0.00    +0.037 C 
BRANCH  14  17
ATOM     17  O   UNL     1      31.973 -13.476 -19.428  0.00  0.00    -0.506 OA
ATOM     18  H   UNL     1      32.223 -14.173 -20.002  0.00  0.00    +0.292 HD
ENDBRANCH  14  17
ENDBRANCH   4  11
BRANCH   5  20
ATOM     19  O   UNL     1      34.385 -12.492 -22.868  0.00  0.00    -0.287 OA
ATOM     20  C   UNL     1      33.785 -11.993 -23.812  0.00  0.00    +0.194 C 
BRANCH  20  21
ATOM     21  C   UNL     1      33.478 -12.786 -25.026  0.00  0.00    +0.039 C 
ATOM     22  C   UNL     1      33.105 -14.109 -24.887  0.00  0.00    +0.003 C 
ATOM     23  C   UNL     1      33.574 -12.179 -26.264  0.00  0.00    +0.003 C 
ATOM     24  C   UNL     1      32.817 -14.855 -26.030  0.00  0.00    +0.000 C 
ATOM     25  C   UNL     1      33.285 -12.926 -27.406  0.00  0.00    +0.000 C 
ATOM     26  C   UNL     1      32.907 -14.264 -27.290  0.00  0.00    +0.000 C 
ENDBRANCH  20  21
ENDBRANCH   5  20
TORSDOF 4
ENDMDL
MODEL 7
REMARK VINA RESULT:      -6.5      2.531      4.234
REMARK  Name = 15942673
REMARK  4 active torsions:
REMARK  status: ('A' for Active; 'I' for Inactive)
REMARK    1  A    between atoms: C_4  and  C_11
REMARK    2  A    between atoms: C_5  and  C_20
REMARK    3  A    between atoms: C_14  and  O_17
REMARK    4  A    between atoms: C_20  and  C_21
REMARK                            x       y       z     vdW  Elec       q    Type
REMARK                         _______ _______ _______ _____ _____    ______ ____
ROOT
ATOM      1  S   UNL     1      37.083 -25.679 -13.308  0.00  0.00    -0.018 S 
ATOM      2  N   UNL     1      35.587 -24.988 -15.338  0.00  0.00    -0.310 N 
ATOM      3  N   UNL     1      34.802 -24.102 -13.281  0.00  0.00    -0.272 N 
ATOM      4  C   UNL     1      34.641 -24.232 -16.138  0.00  0.00    +0.120 C 
ATOM      5  C   UNL     1      33.542 -23.687 -15.270  0.00  0.00    +0.048 C 
ATOM      6  C   UNL     1      33.635 -23.626 -13.924  0.00  0.00    +0.032 C 
ATOM      7  C   UNL     1      35.765 -24.865 -13.977  0.00  0.00    +0.139 C 
ATOM      8  C   UNL     1      32.529 -23.088 -13.042  0.00  0.00    +0.047 C 
ATOM      9  C   UNL     1      34.952 -23.848 -11.836  0.00  0.00    +0.119 C 
ATOM     10  H   UNL     1      36.148 -25.645 -15.808  0.00  0.00    +0.149 HD
ENDROOT
BRANCH   4  11
ATOM     11  C   UNL     1      35.362 -23.146 -16.871  0.00  0.00    +0.003 C 
ATOM     12  C   UNL     1      34.944 -22.775 -18.146  0.00  0.00    +0.034 C 
ATOM     13  C   UNL     1      36.448 -22.511 -16.275  0.00  0.00    -0.002 C 
ATOM     14  C   UNL     1      35.616 -21.762 -18.830  0.00  0.00    +0.133 C 
ATOM     15  C   UNL     1      37.121 -21.498 -16.958  0.00  0.00    +0.003 C 
ATOM     16  C   UNL     1      36.706 -21.124 -18.235  0.00  0.00    +0.037 C 
BRANCH  14  17
ATOM     17  O   UNL     1      35.211 -21.397 -20.077  0.00  0.00    -0.506 OA
ATOM     18  H   UNL     1      35.587 -21.808 -20.830  0.00  0.00    +0.292 HD
ENDBRANCH  14  17
ENDBRANCH   4  11
BRANCH   5  20
ATOM     19  O   UNL     1      32.493 -22.363 -16.896  0.00  0.00    -0.287 OA
ATOM     20  C   UNL     1      32.362 -23.202 -16.014  0.00  0.00    +0.194 C 
BRANCH  20  21
ATOM     21  C   UNL     1      31.031 -23.767 -15.689  0.00  0.00    +0.039 C 
ATOM     22  C   UNL     1      30.942 -25.084 -15.283  0.00  0.00    +0.003 C 
ATOM     23  C   UNL     1      29.916 -22.959 -15.801  0.00  0.00    +0.003 C 
ATOM     24  C   UNL     1      29.689 -25.616 -14.979  0.00  0.00    +0.000 C 
ATOM     25  C   UNL     1      28.663 -23.491 -15.496  0.00  0.00    +0.000 C 
ATOM     26  C   UNL     1      28.549 -24.819 -15.085  0.00  0.00    +0.000 C 
ENDBRANCH  20  21
ENDBRANCH   5  20
TORSDOF 4
ENDMDL
MODEL 8
REMARK VINA RESULT:      -6.4      9.046     11.752
REMARK  Name = 15942673
REMARK  4 active torsions:
REMARK  status: ('A' for Active; 'I' for Inactive)
REMARK    1  A    between atoms: C_4  and  C_11
REMARK    2  A    between atoms: C_5  and  C_20
REMARK    3  A    between atoms: C_14  and  O_17
REMARK    4  A    between atoms: C_20  and  C_21
REMARK                            x       y       z     vdW  Elec       q    Type
REMARK                         _______ _______ _______ _____ _____    ______ ____
ROOT
ATOM      1  S   UNL     1      33.256 -11.340 -24.422  0.00  0.00    -0.018 S 
ATOM      2  N   UNL     1      34.590 -13.401 -23.523  0.00  0.00    -0.310 N 
ATOM      3  N   UNL     1      32.616 -12.976 -22.276  0.00  0.00    -0.272 N 
ATOM      4  C   UNL     1      34.867 -14.653 -22.844  0.00  0.00    +0.120 C 
ATOM      5  C   UNL     1      34.055 -14.755 -21.584  0.00  0.00    +0.048 C 
ATOM      6  C   UNL     1      32.992 -13.961 -21.332  0.00  0.00    +0.032 C 
ATOM      7  C   UNL     1      33.461 -12.630 -23.353  0.00  0.00    +0.139 C 
ATOM      8  C   UNL     1      32.176 -14.050 -20.061  0.00  0.00    +0.047 C 
ATOM      9  C   UNL     1      31.345 -12.259 -22.063  0.00  0.00    +0.119 C 
ATOM     10  H   UNL     1      35.266 -13.075 -24.158  0.00  0.00    +0.149 HD
ENDROOT
BRANCH   4  11
ATOM     11  C   UNL     1      34.599 -15.795 -23.772  0.00  0.00    +0.003 C 
ATOM     12  C   UNL     1      33.652 -15.657 -24.784  0.00  0.00    +0.034 C 
ATOM     13  C   UNL     1      35.296 -16.990 -23.620  0.00  0.00    -0.002 C 
ATOM     14  C   UNL     1      33.402 -16.721 -25.650  0.00  0.00    +0.133 C 
ATOM     15  C   UNL     1      35.046 -18.055 -24.486  0.00  0.00    +0.003 C 
ATOM     16  C   UNL     1      34.099 -17.920 -25.500  0.00  0.00    +0.037 C 
BRANCH  14  17
ATOM     17  O   UNL     1      32.477 -16.590 -26.641  0.00  0.00    -0.506 OA
ATOM     18  H   UNL     1      31.635 -16.226 -26.450  0.00  0.00    +0.292 HD
ENDBRANCH  14  17
ENDBRANCH   4  11
BRANCH   5  20
ATOM     19  O   UNL     1      35.263 -15.537 -19.732  0.00  0.00    -0.287 OA
ATOM     20  C   UNL     1      34.505 -15.810 -20.653  0.00  0.00    +0.194 C 
BRANCH  20  21
ATOM     21  C   UNL     1      34.003 -17.191 -20.844  0.00  0.00    +0.039 C 
ATOM     22  C   UNL     1      32.641 -17.406 -20.923  0.00  0.00    +0.003 C 
ATOM     23  C   UNL     1      34.913 -18.227 -20.938  0.00  0.00    +0.003 C 
ATOM     24  C   UNL     1      32.169 -18.706 -21.102  0.00  0.00    +0.000 C 
ATOM     25  C   UNL     1      34.440 -19.527 -21.117  0.00  0.00    +0.000 C 
ATOM     26  C   UNL     1      33.069 -19.767 -21.199  0.00  0.00    +0.000 C 
ENDBRANCH  20  21
ENDBRANCH   5  20
TORSDOF 4
ENDMDL
MODEL 9
REMARK VINA RESULT:      -6.4     10.742     13.569
REMARK  Name = 15942673
REMARK  4 active torsions:
REMARK  status: ('A' for Active; 'I' for Inactive)
REMARK    1  A    between atoms: C_4  and  C_11
REMARK    2  A    between atoms: C_5  and  C_20
REMARK    3  A    between atoms: C_14  and  O_17
REMARK    4  A    between atoms: C_20  and  C_21
REMARK                            x       y       z     vdW  Elec       q    Type
REMARK                         _______ _______ _______ _____ _____    ______ ____
ROOT
ATOM      1  S   UNL     1      32.324  -9.513 -21.800  0.00  0.00    -0.018 S 
ATOM      2  N   UNL     1      31.939 -11.977 -22.583  0.00  0.00    -0.310 N 
ATOM      3  N   UNL     1      33.608 -10.866 -23.852  0.00  0.00    -0.272 N 
ATOM      4  C   UNL     1      32.198 -13.269 -23.192  0.00  0.00    +0.120 C 
ATOM      5  C   UNL     1      33.010 -13.103 -24.445  0.00  0.00    +0.048 C 
ATOM      6  C   UNL     1      33.675 -11.966 -24.740  0.00  0.00    +0.032 C 
ATOM      7  C   UNL     1      32.672 -10.830 -22.796  0.00  0.00    +0.139 C 
ATOM      8  C   UNL     1      34.486 -11.786 -26.005  0.00  0.00    +0.047 C 
ATOM      9  C   UNL     1      34.493  -9.713 -24.105  0.00  0.00    +0.119 C 
ATOM     10  H   UNL     1      31.175 -11.916 -21.967  0.00  0.00    +0.149 HD
ENDROOT
BRANCH   4  11
ATOM     11  C   UNL     1      32.878 -14.160 -22.202  0.00  0.00    +0.003 C 
ATOM     12  C   UNL     1      32.320 -15.396 -21.883  0.00  0.00    +0.034 C 
ATOM     13  C   UNL     1      34.066 -13.751 -21.603  0.00  0.00    -0.002 C 
ATOM     14  C   UNL     1      32.954 -16.227 -20.960  0.00  0.00    +0.133 C 
ATOM     15  C   UNL     1      34.701 -14.582 -20.680  0.00  0.00    +0.003 C 
ATOM     16  C   UNL     1      34.145 -15.819 -20.358  0.00  0.00    +0.037 C 
BRANCH  14  17
ATOM     17  O   UNL     1      32.411 -17.435 -20.646  0.00  0.00    -0.506 OA
ATOM     18  H   UNL     1      32.687 -18.205 -21.102  0.00  0.00    +0.292 HD
ENDBRANCH  14  17
ENDBRANCH   4  11
BRANCH   5  20
ATOM     19  O   UNL     1      32.436 -14.295 -26.381  0.00  0.00    -0.287 OA
ATOM     20  C   UNL     1      33.038 -14.296 -25.315  0.00  0.00    +0.194 C 
BRANCH  20  21
ATOM     21  C   UNL     1      33.823 -15.477 -24.883  0.00  0.00    +0.039 C 
ATOM     22  C   UNL     1      33.445 -16.731 -25.322  0.00  0.00    +0.003 C 
ATOM     23  C   UNL     1      34.911 -15.289 -24.053  0.00  0.00    +0.003 C 
ATOM     24  C   UNL     1      34.184 -17.841 -24.914  0.00  0.00    +0.000 C 
ATOM     25  C   UNL     1      35.650 -16.400 -23.646  0.00  0.00    +0.000 C 
ATOM     26  C   UNL     1      35.287 -17.676 -24.076  0.00  0.00    +0.000 C 
ENDBRANCH  20  21
ENDBRANCH   5  20
TORSDOF 4
ENDMDL
