MODEL 1
REMARK VINA RESULT:     -11.4      0.000      0.000
REMARK  Name = 25134248
REMARK  7 active torsions:
REMARK  status: ('A' for Active; 'I' for Inactive)
REMARK    1  A    between atoms: N_2  and  C_20
REMARK    2  A    between atoms: C_3  and  C_7
REMARK    3  A    between atoms: C_11  and  C_12
REMARK    4  A    between atoms: C_12  and  C_13
REMARK    5  A    between atoms: C_13  and  C_14
REMARK    6  A    between atoms: C_20  and  C_21
REMARK    7  A    between atoms: C_26  and  C_29
REMARK                            x       y       z     vdW  Elec       q    Type
REMARK                         _______ _______ _______ _____ _____    ______ ____
ROOT
ATOM      1  O   UNL     1      34.900 -23.656 -13.241  0.00  0.00    -0.273 OA
ATOM      2  N   UNL     1      33.415 -25.037 -14.383  0.00  0.00    -0.299 N 
ATOM      3  C   UNL     1      34.637 -24.426 -14.160  0.00  0.00    +0.241 C 
ATOM      4  H   UNL     1      33.326 -25.638 -15.158  0.00  0.00    +0.150 HD
ENDROOT
BRANCH   3   7
ATOM      5  O   UNL     1      36.773 -21.745 -16.843  0.00  0.00    -0.275 OA
ATOM      6  N   UNL     1      36.412 -23.631 -15.558  0.00  0.00    -0.273 N 
ATOM      7  C   UNL     1      35.665 -24.826 -15.176  0.00  0.00    +0.152 C 
ATOM      8  C   UNL     1      36.710 -25.746 -14.551  0.00  0.00    +0.031 C 
ATOM      9  C   UNL     1      37.746 -23.636 -14.970  0.00  0.00    +0.094 C 
ATOM     10  C   UNL     1      37.731 -24.775 -13.964  0.00  0.00    +0.024 C 
ATOM     11  C   UNL     1      36.034 -22.658 -16.469  0.00  0.00    +0.226 C 
BRANCH  11  12
ATOM     12  C   UNL     1      34.629 -22.762 -17.006  0.00  0.00    +0.085 C 
BRANCH  12  13
ATOM     13  C   UNL     1      34.642 -22.790 -18.525  0.00  0.00    +0.010 C 
BRANCH  13  14
ATOM     14  C   UNL     1      34.478 -21.405 -19.146  0.00  0.00    +0.000 C 
ATOM     15  C   UNL     1      35.629 -21.106 -20.116  0.00  0.00    +0.000 C 
ATOM     16  C   UNL     1      33.122 -21.284 -19.853  0.00  0.00    +0.000 C 
ATOM     17  C   UNL     1      35.459 -19.747 -20.791  0.00  0.00    +0.000 C 
ATOM     18  C   UNL     1      32.957 -19.925 -20.527  0.00  0.00    +0.000 C 
ATOM     19  C   UNL     1      34.107 -19.628 -21.485  0.00  0.00    +0.000 C 
ENDBRANCH  13  14
ENDBRANCH  12  13
ENDBRANCH  11  12
ENDBRANCH   3   7
BRANCH   2  20
ATOM     20  C   UNL     1      32.265 -24.836 -13.532  0.00  0.00    +0.116 C 
BRANCH  20  21
ATOM     21  C   UNL     1      31.079 -24.327 -14.300  0.00  0.00    -0.003 C 
ATOM     22  C   UNL     1      30.083 -25.213 -14.712  0.00  0.00    -0.003 C 
ATOM     23  C   UNL     1      30.972 -22.970 -14.601  0.00  0.00    -0.003 C 
ATOM     24  C   UNL     1      28.981 -24.741 -15.425  0.00  0.00    +0.002 C 
ATOM     25  C   UNL     1      29.871 -22.497 -15.314  0.00  0.00    +0.002 C 
ATOM     26  C   UNL     1      28.875 -23.383 -15.726  0.00  0.00    +0.031 C 
BRANCH  26  29
ATOM     27  N   UNL     1      26.727 -22.142 -15.847  0.00  0.00    -0.343 N 
ATOM     28  N   UNL     1      27.612 -23.156 -17.758  0.00  0.00    -0.285 NA
ATOM     29  C   UNL     1      27.725 -22.891 -16.468  0.00  0.00    +0.117 C 
ATOM     30  H   UNL     1      25.958 -21.819 -16.369  0.00  0.00    +0.144 HD
ATOM     31  H   UNL     1      26.792 -21.937 -14.887  0.00  0.00    +0.144 HD
ATOM     32  H   UNL     1      26.835 -22.824 -18.262  0.00  0.00    +0.188 HD
ENDBRANCH  26  29
ENDBRANCH  20  21
ENDBRANCH   2  20
TORSDOF 7
ENDMDL
MODEL 2
REMARK VINA RESULT:     -11.0      2.713      6.457
REMARK  Name = 25134248
REMARK  7 active torsions:
REMARK  status: ('A' for Active; 'I' for Inactive)
REMARK    1  A    between atoms: N_2  and  C_20
REMARK    2  A    between atoms: C_3  and  C_7
REMARK    3  A    between atoms: C_11  and  C_12
REMARK    4  A    between atoms: C_12  and  C_13
REMARK    5  A    between atoms: C_13  and  C_14
REMARK    6  A    between atoms: C_20  and  C_21
REMARK    7  A    between atoms: C_26  and  C_29
REMARK                            x       y       z     vdW  Elec       q    Type
REMARK                         _______ _______ _______ _____ _____    ______ ____
ROOT
ATOM      1  O   UNL     1      34.959 -24.787 -16.158  0.00  0.00    -0.273 OA
ATOM      2  N   UNL     1      34.684 -22.613 -16.945  0.00  0.00    -0.299 N 
ATOM      3  C   UNL     1      35.084 -23.572 -16.029  0.00  0.00    +0.241 C 
ATOM      4  H   UNL     1      34.838 -21.665 -16.727  0.00  0.00    +0.150 HD
ENDROOT
BRANCH   3   7
ATOM      5  O   UNL     1      34.749 -25.022 -11.939  0.00  0.00    -0.275 OA
ATOM      6  N   UNL     1      35.713 -23.961 -13.751  0.00  0.00    -0.273 N 
ATOM      7  C   UNL     1      35.734 -22.967 -14.821  0.00  0.00    +0.152 C 
ATOM      8  C   UNL     1      37.217 -22.714 -15.077  0.00  0.00    +0.031 C 
ATOM      9  C   UNL     1      37.037 -24.529 -13.537  0.00  0.00    +0.094 C 
ATOM     10  C   UNL     1      37.872 -24.043 -14.711  0.00  0.00    +0.024 C 
ATOM     11  C   UNL     1      34.656 -24.267 -12.908  0.00  0.00    +0.226 C 
BRANCH  11  12
ATOM     12  C   UNL     1      33.337 -23.614 -13.234  0.00  0.00    +0.085 C 
BRANCH  12  13
ATOM     13  C   UNL     1      32.262 -24.667 -13.446  0.00  0.00    +0.010 C 
BRANCH  13  14
ATOM     14  C   UNL     1      31.466 -24.452 -14.732  0.00  0.00    +0.000 C 
ATOM     15  C   UNL     1      30.000 -24.859 -14.537  0.00  0.00    +0.000 C 
ATOM     16  C   UNL     1      31.571 -22.994 -15.198  0.00  0.00    +0.000 C 
ATOM     17  C   UNL     1      29.171 -24.603 -15.793  0.00  0.00    +0.000 C 
ATOM     18  C   UNL     1      30.741 -22.742 -16.453  0.00  0.00    +0.000 C 
ATOM     19  C   UNL     1      29.285 -23.155 -16.258  0.00  0.00    +0.000 C 
ENDBRANCH  13  14
ENDBRANCH  12  13
ENDBRANCH  11  12
ENDBRANCH   3   7
BRANCH   2  20
ATOM     20  C   UNL     1      34.053 -22.937 -18.203  0.00  0.00    +0.116 C 
BRANCH  20  21
ATOM     21  C   UNL     1      34.208 -21.833 -19.210  0.00  0.00    -0.003 C 
ATOM     22  C   UNL     1      33.081 -21.170 -19.697  0.00  0.00    -0.003 C 
ATOM     23  C   UNL     1      35.478 -21.469 -19.657  0.00  0.00    -0.003 C 
ATOM     24  C   UNL     1      33.224 -20.144 -20.631  0.00  0.00    +0.002 C 
ATOM     25  C   UNL     1      35.622 -20.444 -20.591  0.00  0.00    +0.002 C 
ATOM     26  C   UNL     1      34.495 -19.781 -21.078  0.00  0.00    +0.031 C 
BRANCH  26  29
ATOM     27  N   UNL     1      34.848 -17.390 -21.652  0.00  0.00    -0.343 N 
ATOM     28  N   UNL     1      34.584 -18.982 -23.343  0.00  0.00    -0.285 NA
ATOM     29  C   UNL     1      34.644 -18.710 -22.051  0.00  0.00    +0.117 C 
ATOM     30  H   UNL     1      34.946 -16.682 -22.328  0.00  0.00    +0.144 HD
ATOM     31  H   UNL     1      34.892 -17.168 -20.694  0.00  0.00    +0.144 HD
ATOM     32  H   UNL     1      34.685 -18.259 -24.003  0.00  0.00    +0.188 HD
ENDBRANCH  26  29
ENDBRANCH  20  21
ENDBRANCH   2  20
TORSDOF 7
ENDMDL
MODEL 3
REMARK VINA RESULT:     -10.8      8.680     12.656
REMARK  Name = 25134248
REMARK  7 active torsions:
REMARK  status: ('A' for Active; 'I' for Inactive)
REMARK    1  A    between atoms: N_2  and  C_20
REMARK    2  A    between atoms: C_3  and  C_7
REMARK    3  A    between atoms: C_11  and  C_12
REMARK    4  A    between atoms: C_12  and  C_13
REMARK    5  A    between atoms: C_13  and  C_14
REMARK    6  A    between atoms: C_20  and  C_21
REMARK    7  A    between atoms: C_26  and  C_29
REMARK                            x       y       z     vdW  Elec       q    Type
REMARK                         _______ _______ _______ _____ _____    ______ ____
ROOT
ATOM      1  O   UNL     1      32.669 -15.306 -22.140  0.00  0.00    -0.273 OA
ATOM      2  N   UNL     1      32.673 -13.042 -22.681  0.00  0.00    -0.299 N 
ATOM      3  C   UNL     1      33.091 -14.357 -22.795  0.00  0.00    +0.241 C 
ATOM      4  H   UNL     1      33.089 -12.366 -23.265  0.00  0.00    +0.150 HD
ENDROOT
BRANCH   3   7
ATOM      5  O   UNL     1      34.389 -18.134 -24.527  0.00  0.00    -0.275 OA
ATOM      6  N   UNL     1      33.979 -15.862 -24.433  0.00  0.00    -0.273 N 
ATOM      7  C   UNL     1      34.137 -14.530 -23.855  0.00  0.00    +0.152 C 
ATOM      8  C   UNL     1      33.887 -13.576 -25.019  0.00  0.00    +0.031 C 
ATOM      9  C   UNL     1      33.386 -15.789 -25.762  0.00  0.00    +0.094 C 
ATOM     10  C   UNL     1      32.918 -14.350 -25.910  0.00  0.00    +0.024 C 
ATOM     11  C   UNL     1      34.441 -17.063 -23.919  0.00  0.00    +0.226 C 
BRANCH  11  12
ATOM     12  C   UNL     1      35.035 -17.007 -22.534  0.00  0.00    +0.085 C 
BRANCH  12  13
ATOM     13  C   UNL     1      35.719 -18.321 -22.197  0.00  0.00    +0.010 C 
BRANCH  13  14
ATOM     14  C   UNL     1      35.058 -19.052 -21.030  0.00  0.00    +0.000 C 
ATOM     15  C   UNL     1      33.600 -19.396 -21.362  0.00  0.00    +0.000 C 
ATOM     16  C   UNL     1      35.848 -20.316 -20.665  0.00  0.00    +0.000 C 
ATOM     17  C   UNL     1      32.933 -20.175 -20.232  0.00  0.00    +0.000 C 
ATOM     18  C   UNL     1      35.177 -21.093 -19.535  0.00  0.00    +0.000 C 
ATOM     19  C   UNL     1      33.725 -21.425 -19.865  0.00  0.00    +0.000 C 
ENDBRANCH  13  14
ENDBRANCH  12  13
ENDBRANCH  11  12
ENDBRANCH   3   7
BRANCH   2  20
ATOM     20  C   UNL     1      31.656 -12.614 -21.748  0.00  0.00    +0.116 C 
BRANCH  20  21
ATOM     21  C   UNL     1      31.803 -11.165 -21.383  0.00  0.00    -0.003 C 
ATOM     22  C   UNL     1      32.010 -10.212 -22.380  0.00  0.00    -0.003 C 
ATOM     23  C   UNL     1      31.729 -10.771 -20.047  0.00  0.00    -0.003 C 
ATOM     24  C   UNL     1      32.146  -8.866 -22.041  0.00  0.00    +0.002 C 
ATOM     25  C   UNL     1      31.865  -9.426 -19.707  0.00  0.00    +0.002 C 
ATOM     26  C   UNL     1      32.073  -8.473 -20.705  0.00  0.00    +0.031 C 
BRANCH  26  29
ATOM     27  N   UNL     1      31.526  -6.074 -21.046  0.00  0.00    -0.343 N 
ATOM     28  N   UNL     1      33.008  -6.716 -19.357  0.00  0.00    -0.285 NA
ATOM     29  C   UNL     1      32.213  -7.069 -20.352  0.00  0.00    +0.117 C 
ATOM     30  H   UNL     1      31.636  -5.131 -20.790  0.00  0.00    +0.144 HD
ATOM     31  H   UNL     1      30.932  -6.317 -21.793  0.00  0.00    +0.144 HD
ATOM     32  H   UNL     1      33.104  -5.767 -19.116  0.00  0.00    +0.188 HD
ENDBRANCH  26  29
ENDBRANCH  20  21
ENDBRANCH   2  20
TORSDOF 7
ENDMDL
MODEL 4
REMARK VINA RESULT:     -10.1      8.002     11.902
REMARK  Name = 25134248
REMARK  7 active torsions:
REMARK  status: ('A' for Active; 'I' for Inactive)
REMARK    1  A    between atoms: N_2  and  C_20
REMARK    2  A    between atoms: C_3  and  C_7
REMARK    3  A    between atoms: C_11  and  C_12
REMARK    4  A    between atoms: C_12  and  C_13
REMARK    5  A    between atoms: C_13  and  C_14
REMARK    6  A    between atoms: C_20  and  C_21
REMARK    7  A    between atoms: C_26  and  C_29
REMARK                            x       y       z     vdW  Elec       q    Type
REMARK                         _______ _______ _______ _____ _____    ______ ____
ROOT
ATOM      1  O   UNL     1      33.348 -16.121 -21.534  0.00  0.00    -0.273 OA
ATOM      2  N   UNL     1      33.035 -13.976 -22.380  0.00  0.00    -0.299 N 
ATOM      3  C   UNL     1      33.621 -15.229 -22.333  0.00  0.00    +0.241 C 
ATOM      4  H   UNL     1      33.340 -13.342 -23.070  0.00  0.00    +0.150 HD
ENDROOT
BRANCH   3   7
ATOM      5  O   UNL     1      34.923 -19.031 -24.006  0.00  0.00    -0.275 OA
ATOM      6  N   UNL     1      34.493 -16.761 -23.954  0.00  0.00    -0.273 N 
ATOM      7  C   UNL     1      34.649 -15.416 -23.407  0.00  0.00    +0.152 C 
ATOM      8  C   UNL     1      34.370 -14.490 -24.588  0.00  0.00    +0.031 C 
ATOM      9  C   UNL     1      33.876 -16.723 -25.273  0.00  0.00    +0.094 C 
ATOM     10  C   UNL     1      33.392 -15.292 -25.443  0.00  0.00    +0.024 C 
ATOM     11  C   UNL     1      34.976 -17.946 -23.422  0.00  0.00    +0.226 C 
BRANCH  11  12
ATOM     12  C   UNL     1      35.594 -17.855 -22.050  0.00  0.00    +0.085 C 
BRANCH  12  13
ATOM     13  C   UNL     1      36.123 -19.212 -21.615  0.00  0.00    +0.010 C 
BRANCH  13  14
ATOM     14  C   UNL     1      35.296 -19.839 -20.494  0.00  0.00    +0.000 C 
ATOM     15  C   UNL     1      33.824 -19.959 -20.908  0.00  0.00    +0.000 C 
ATOM     16  C   UNL     1      35.866 -21.208 -20.101  0.00  0.00    +0.000 C 
ATOM     17  C   UNL     1      32.986 -20.632 -19.824  0.00  0.00    +0.000 C 
ATOM     18  C   UNL     1      35.025 -21.879 -19.018  0.00  0.00    +0.000 C 
ATOM     19  C   UNL     1      33.561 -21.988 -19.430  0.00  0.00    +0.000 C 
ENDBRANCH  13  14
ENDBRANCH  12  13
ENDBRANCH  11  12
ENDBRANCH   3   7
BRANCH   2  20
ATOM     20  C   UNL     1      31.997 -13.553 -21.468  0.00  0.00    +0.116 C 
BRANCH  20  21
ATOM     21  C   UNL     1      31.986 -12.063 -21.281  0.00  0.00    -0.003 C 
ATOM     22  C   UNL     1      31.761 -11.521 -20.016  0.00  0.00    -0.003 C 
ATOM     23  C   UNL     1      32.201 -11.221 -22.372  0.00  0.00    -0.003 C 
ATOM     24  C   UNL     1      31.752 -10.137 -19.841  0.00  0.00    +0.002 C 
ATOM     25  C   UNL     1      32.191  -9.837 -22.198  0.00  0.00    +0.002 C 
ATOM     26  C   UNL     1      31.967  -9.295 -20.932  0.00  0.00    +0.031 C 
BRANCH  26  29
ATOM     27  N   UNL     1      31.487  -6.998 -21.746  0.00  0.00    -0.343 N 
ATOM     28  N   UNL     1      32.405  -7.329 -19.622  0.00  0.00    -0.285 NA
ATOM     29  C   UNL     1      31.958  -7.853 -20.750  0.00  0.00    +0.117 C 
ATOM     30  H   UNL     1      31.490  -6.025 -21.601  0.00  0.00    +0.144 HD
ATOM     31  H   UNL     1      31.153  -7.370 -22.594  0.00  0.00    +0.144 HD
ATOM     32  H   UNL     1      32.399  -6.352 -19.496  0.00  0.00    +0.188 HD
ENDBRANCH  26  29
ENDBRANCH  20  21
ENDBRANCH   2  20
TORSDOF 7
ENDMDL
MODEL 5
REMARK VINA RESULT:     -10.0      8.303     12.645
REMARK  Name = 25134248
REMARK  7 active torsions:
REMARK  status: ('A' for Active; 'I' for Inactive)
REMARK    1  A    between atoms: N_2  and  C_20
REMARK    2  A    between atoms: C_3  and  C_7
REMARK    3  A    between atoms: C_11  and  C_12
REMARK    4  A    between atoms: C_12  and  C_13
REMARK    5  A    between atoms: C_13  and  C_14
REMARK    6  A    between atoms: C_20  and  C_21
REMARK    7  A    between atoms: C_26  and  C_29
REMARK                            x       y       z     vdW  Elec       q    Type
REMARK                         _______ _______ _______ _____ _____    ______ ____
ROOT
ATOM      1  O   UNL     1      35.242 -15.276 -23.734  0.00  0.00    -0.273 OA
ATOM      2  N   UNL     1      33.259 -14.118 -24.113  0.00  0.00    -0.299 N 
ATOM      3  C   UNL     1      34.061 -15.054 -23.483  0.00  0.00    +0.241 C 
ATOM      4  H   UNL     1      32.321 -14.033 -23.822  0.00  0.00    +0.150 HD
ENDROOT
BRANCH   3   7
ATOM      5  O   UNL     1      35.870 -17.523 -20.387  0.00  0.00    -0.275 OA
ATOM      6  N   UNL     1      34.294 -16.141 -21.361  0.00  0.00    -0.273 N 
ATOM      7  C   UNL     1      33.330 -15.792 -22.401  0.00  0.00    +0.152 C 
ATOM      8  C   UNL     1      32.332 -14.873 -21.702  0.00  0.00    +0.031 C 
ATOM      9  C   UNL     1      34.125 -15.299 -20.185  0.00  0.00    +0.094 C 
ATOM     10  C   UNL     1      33.169 -14.199 -20.618  0.00  0.00    +0.024 C 
ATOM     11  C   UNL     1      35.177 -17.209 -21.357  0.00  0.00    +0.226 C 
BRANCH  11  12
ATOM     12  C   UNL     1      35.261 -18.005 -22.635  0.00  0.00    +0.085 C 
BRANCH  12  13
ATOM     13  C   UNL     1      34.447 -19.283 -22.519  0.00  0.00    +0.010 C 
BRANCH  13  14
ATOM     14  C   UNL     1      34.347 -19.795 -21.083  0.00  0.00    +0.000 C 
ATOM     15  C   UNL     1      32.954 -20.376 -20.810  0.00  0.00    +0.000 C 
ATOM     16  C   UNL     1      35.438 -20.837 -20.802  0.00  0.00    +0.000 C 
ATOM     17  C   UNL     1      32.846 -20.943 -19.397  0.00  0.00    +0.000 C 
ATOM     18  C   UNL     1      35.326 -21.403 -19.389  0.00  0.00    +0.000 C 
ATOM     19  C   UNL     1      33.937 -21.971 -19.118  0.00  0.00    +0.000 C 
ENDBRANCH  13  14
ENDBRANCH  12  13
ENDBRANCH  11  12
ENDBRANCH   3   7
BRANCH   2  20
ATOM     20  C   UNL     1      33.730 -13.260 -25.175  0.00  0.00    +0.116 C 
BRANCH  20  21
ATOM     21  C   UNL     1      33.855 -11.831 -24.730  0.00  0.00    -0.003 C 
ATOM     22  C   UNL     1      34.783 -10.989 -25.342  0.00  0.00    -0.003 C 
ATOM     23  C   UNL     1      33.041 -11.345 -23.707  0.00  0.00    -0.003 C 
ATOM     24  C   UNL     1      34.899  -9.661 -24.931  0.00  0.00    +0.002 C 
ATOM     25  C   UNL     1      33.157 -10.018 -23.295  0.00  0.00    +0.002 C 
ATOM     26  C   UNL     1      34.085  -9.176 -23.907  0.00  0.00    +0.031 C 
BRANCH  26  29
ATOM     27  N   UNL     1      34.613  -6.792 -24.360  0.00  0.00    -0.343 N 
ATOM     28  N   UNL     1      33.928  -7.462 -22.229  0.00  0.00    -0.285 NA
ATOM     29  C   UNL     1      34.205  -7.791 -23.478  0.00  0.00    +0.117 C 
ATOM     30  H   UNL     1      34.687  -5.861 -24.049  0.00  0.00    +0.144 HD
ATOM     31  H   UNL     1      34.827  -7.018 -25.294  0.00  0.00    +0.144 HD
ATOM     32  H   UNL     1      34.008  -6.526 -21.937  0.00  0.00    +0.188 HD
ENDBRANCH  26  29
ENDBRANCH  20  21
ENDBRANCH   2  20
TORSDOF 7
ENDMDL
MODEL 6
REMARK VINA RESULT:     -10.0      4.995      8.565
REMARK  Name = 25134248
REMARK  7 active torsions:
REMARK  status: ('A' for Active; 'I' for Inactive)
REMARK    1  A    between atoms: N_2  and  C_20
REMARK    2  A    between atoms: C_3  and  C_7
REMARK    3  A    between atoms: C_11  and  C_12
REMARK    4  A    between atoms: C_12  and  C_13
REMARK    5  A    between atoms: C_13  and  C_14
REMARK    6  A    between atoms: C_20  and  C_21
REMARK    7  A    between atoms: C_26  and  C_29
REMARK                            x       y       z     vdW  Elec       q    Type
REMARK                         _______ _______ _______ _____ _____    ______ ____
ROOT
ATOM      1  O   UNL     1      36.101 -17.934 -20.562  0.00  0.00    -0.273 OA
ATOM      2  N   UNL     1      35.489 -20.153 -20.907  0.00  0.00    -0.299 N 
ATOM      3  C   UNL     1      35.383 -18.784 -21.082  0.00  0.00    +0.241 C 
ATOM      4  H   UNL     1      34.851 -20.736 -21.380  0.00  0.00    +0.150 HD
ENDROOT
BRANCH   3   7
ATOM      5  O   UNL     1      34.992 -15.022 -23.237  0.00  0.00    -0.275 OA
ATOM      6  N   UNL     1      34.724 -17.280 -22.825  0.00  0.00    -0.273 N 
ATOM      7  C   UNL     1      34.276 -18.416 -22.024  0.00  0.00    +0.152 C 
ATOM      8  C   UNL     1      34.041 -19.530 -23.040  0.00  0.00    +0.031 C 
ATOM      9  C   UNL     1      35.044 -17.691 -24.186  0.00  0.00    +0.094 C 
ATOM     10  C   UNL     1      35.036 -19.211 -24.152  0.00  0.00    +0.024 C 
ATOM     11  C   UNL     1      34.726 -15.942 -22.462  0.00  0.00    +0.226 C 
BRANCH  11  12
ATOM     12  C   UNL     1      34.376 -15.645 -21.025  0.00  0.00    +0.085 C 
BRANCH  12  13
ATOM     13  C   UNL     1      32.937 -15.171 -20.917  0.00  0.00    +0.010 C 
BRANCH  13  14
ATOM     14  C   UNL     1      32.801 -13.654 -21.035  0.00  0.00    +0.000 C 
ATOM     15  C   UNL     1      32.151 -13.270 -22.370  0.00  0.00    +0.000 C 
ATOM     16  C   UNL     1      32.001 -13.087 -19.855  0.00  0.00    +0.000 C 
ATOM     17  C   UNL     1      31.955 -11.761 -22.490  0.00  0.00    +0.000 C 
ATOM     18  C   UNL     1      31.806 -11.578 -19.978  0.00  0.00    +0.000 C 
ATOM     19  C   UNL     1      31.167 -11.200 -21.311  0.00  0.00    +0.000 C 
ENDBRANCH  13  14
ENDBRANCH  12  13
ENDBRANCH  11  12
ENDBRANCH   3   7
BRANCH   2  20
ATOM     20  C   UNL     1      36.491 -20.767 -20.067  0.00  0.00    +0.116 C 
BRANCH  20  21
ATOM     21  C   UNL     1      35.878 -21.535 -18.931  0.00  0.00    -0.003 C 
ATOM     22  C   UNL     1      36.614 -21.767 -17.769  0.00  0.00    -0.003 C 
ATOM     23  C   UNL     1      34.572 -22.013 -19.036  0.00  0.00    -0.003 C 
ATOM     24  C   UNL     1      36.045 -22.478 -16.713  0.00  0.00    +0.002 C 
ATOM     25  C   UNL     1      34.003 -22.725 -17.981  0.00  0.00    +0.002 C 
ATOM     26  C   UNL     1      34.739 -22.957 -16.819  0.00  0.00    +0.031 C 
BRANCH  26  29
ATOM     27  N   UNL     1      34.884 -24.630 -14.988  0.00  0.00    -0.343 N 
ATOM     28  N   UNL     1      32.881 -23.496 -15.393  0.00  0.00    -0.285 NA
ATOM     29  C   UNL     1      34.145 -23.699 -15.717  0.00  0.00    +0.117 C 
ATOM     30  H   UNL     1      34.462 -25.120 -14.247  0.00  0.00    +0.144 HD
ATOM     31  H   UNL     1      35.826 -24.797 -15.217  0.00  0.00    +0.144 HD
ATOM     32  H   UNL     1      32.477 -23.996 -14.647  0.00  0.00    +0.188 HD
ENDBRANCH  26  29
ENDBRANCH  20  21
ENDBRANCH   2  20
TORSDOF 7
ENDMDL
MODEL 7
REMARK VINA RESULT:      -9.8     10.078     14.194
REMARK  Name = 25134248
REMARK  7 active torsions:
REMARK  status: ('A' for Active; 'I' for Inactive)
REMARK    1  A    between atoms: N_2  and  C_20
REMARK    2  A    between atoms: C_3  and  C_7
REMARK    3  A    between atoms: C_11  and  C_12
REMARK    4  A    between atoms: C_12  and  C_13
REMARK    5  A    between atoms: C_13  and  C_14
REMARK    6  A    between atoms: C_20  and  C_21
REMARK    7  A    between atoms: C_26  and  C_29
REMARK                            x       y       z     vdW  Elec       q    Type
REMARK                         _______ _______ _______ _____ _____    ______ ____
ROOT
ATOM      1  O   UNL     1      32.127 -13.766 -23.134  0.00  0.00    -0.273 OA
ATOM      2  N   UNL     1      32.908 -11.574 -23.069  0.00  0.00    -0.299 N 
ATOM      3  C   UNL     1      32.902 -12.888 -23.505  0.00  0.00    +0.241 C 
ATOM      4  H   UNL     1      33.582 -10.960 -23.441  0.00  0.00    +0.150 HD
ENDROOT
BRANCH   3   7
ATOM      5  O   UNL     1      33.685 -16.691 -25.473  0.00  0.00    -0.275 OA
ATOM      6  N   UNL     1      33.626 -14.395 -25.219  0.00  0.00    -0.273 N 
ATOM      7  C   UNL     1      33.960 -13.149 -24.534  0.00  0.00    +0.152 C 
ATOM      8  C   UNL     1      33.918 -12.088 -25.631  0.00  0.00    +0.031 C 
ATOM      9  C   UNL     1      33.118 -14.136 -26.560  0.00  0.00    +0.094 C 
ATOM     10  C   UNL     1      32.886 -12.634 -26.614  0.00  0.00    +0.024 C 
ATOM     11  C   UNL     1      33.872 -15.687 -24.783  0.00  0.00    +0.226 C 
BRANCH  11  12
ATOM     12  C   UNL     1      34.397 -15.823 -23.376  0.00  0.00    +0.085 C 
BRANCH  12  13
ATOM     13  C   UNL     1      35.415 -16.949 -23.296  0.00  0.00    +0.010 C 
BRANCH  13  14
ATOM     14  C   UNL     1      35.281 -17.780 -22.022  0.00  0.00    +0.000 C 
ATOM     15  C   UNL     1      34.066 -18.712 -22.108  0.00  0.00    +0.000 C 
ATOM     16  C   UNL     1      36.565 -18.579 -21.759  0.00  0.00    +0.000 C 
ATOM     17  C   UNL     1      33.942 -19.593 -20.867  0.00  0.00    +0.000 C 
ATOM     18  C   UNL     1      36.437 -19.459 -20.518  0.00  0.00    +0.000 C 
ATOM     19  C   UNL     1      35.222 -20.378 -20.603  0.00  0.00    +0.000 C 
ENDBRANCH  13  14
ENDBRANCH  12  13
ENDBRANCH  11  12
ENDBRANCH   3   7
BRANCH   2  20
ATOM     20  C   UNL     1      31.972 -11.060 -22.094  0.00  0.00    +0.116 C 
BRANCH  20  21
ATOM     21  C   UNL     1      31.759  -9.581 -22.246  0.00  0.00    -0.003 C 
ATOM     22  C   UNL     1      31.219  -9.073 -23.427  0.00  0.00    -0.003 C 
ATOM     23  C   UNL     1      32.097  -8.717 -21.205  0.00  0.00    -0.003 C 
ATOM     24  C   UNL     1      31.019  -7.700 -23.569  0.00  0.00    +0.002 C 
ATOM     25  C   UNL     1      31.898  -7.344 -21.346  0.00  0.00    +0.002 C 
ATOM     26  C   UNL     1      31.358  -6.835 -22.528  0.00  0.00    +0.031 C 
BRANCH  26  29
ATOM     27  N   UNL     1      31.730  -4.689 -23.721  0.00  0.00    -0.343 N 
ATOM     28  N   UNL     1      30.397  -4.755 -21.803  0.00  0.00    -0.285 NA
ATOM     29  C   UNL     1      31.149  -5.403 -22.675  0.00  0.00    +0.117 C 
ATOM     30  H   UNL     1      31.574  -3.721 -23.802  0.00  0.00    +0.144 HD
ATOM     31  H   UNL     1      32.296  -5.154 -24.379  0.00  0.00    +0.144 HD
ATOM     32  H   UNL     1      30.253  -3.786 -21.901  0.00  0.00    +0.188 HD
ENDBRANCH  26  29
ENDBRANCH  20  21
ENDBRANCH   2  20
TORSDOF 7
ENDMDL
MODEL 8
REMARK VINA RESULT:      -9.7     11.339     15.324
REMARK  Name = 25134248
REMARK  7 active torsions:
REMARK  status: ('A' for Active; 'I' for Inactive)
REMARK    1  A    between atoms: N_2  and  C_20
REMARK    2  A    between atoms: C_3  and  C_7
REMARK    3  A    between atoms: C_11  and  C_12
REMARK    4  A    between atoms: C_12  and  C_13
REMARK    5  A    between atoms: C_13  and  C_14
REMARK    6  A    between atoms: C_20  and  C_21
REMARK    7  A    between atoms: C_26  and  C_29
REMARK                            x       y       z     vdW  Elec       q    Type
REMARK                         _______ _______ _______ _____ _____    ______ ____
ROOT
ATOM      1  O   UNL     1      33.564 -11.369 -23.798  0.00  0.00    -0.273 OA
ATOM      2  N   UNL     1      32.604  -9.641 -22.569  0.00  0.00    -0.299 N 
ATOM      3  C   UNL     1      32.710 -10.943 -23.025  0.00  0.00    +0.241 C 
ATOM      4  H   UNL     1      31.871  -9.419 -21.949  0.00  0.00    +0.150 HD
ENDROOT
BRANCH   3   7
ATOM      5  O   UNL     1      33.391 -14.562 -20.703  0.00  0.00    -0.275 OA
ATOM      6  N   UNL     1      32.275 -12.672 -21.425  0.00  0.00    -0.273 N 
ATOM      7  C   UNL     1      31.652 -11.835 -22.447  0.00  0.00    +0.152 C 
ATOM      8  C   UNL     1      30.613 -11.015 -21.687  0.00  0.00    +0.031 C 
ATOM      9  C   UNL     1      31.902 -12.231 -20.087  0.00  0.00    +0.094 C 
ATOM     10  C   UNL     1      31.213 -10.891 -20.289  0.00  0.00    +0.024 C 
ATOM     11  C   UNL     1      33.008 -13.832 -21.619  0.00  0.00    +0.226 C 
BRANCH  11  12
ATOM     12  C   UNL     1      33.330 -14.181 -23.051  0.00  0.00    +0.085 C 
BRANCH  12  13
ATOM     13  C   UNL     1      34.574 -15.051 -23.118  0.00  0.00    +0.010 C 
BRANCH  13  14
ATOM     14  C   UNL     1      34.254 -16.527 -23.349  0.00  0.00    +0.000 C 
ATOM     15  C   UNL     1      34.652 -16.951 -24.769  0.00  0.00    +0.000 C 
ATOM     16  C   UNL     1      34.953 -17.404 -22.301  0.00  0.00    +0.000 C 
ATOM     17  C   UNL     1      34.392 -18.437 -25.007  0.00  0.00    +0.000 C 
ATOM     18  C   UNL     1      34.691 -18.888 -22.543  0.00  0.00    +0.000 C 
ATOM     19  C   UNL     1      35.080 -19.304 -23.958  0.00  0.00    +0.000 C 
ENDBRANCH  13  14
ENDBRANCH  12  13
ENDBRANCH  11  12
ENDBRANCH   3   7
BRANCH   2  20
ATOM     20  C   UNL     1      33.517  -8.590 -22.959  0.00  0.00    +0.116 C 
BRANCH  20  21
ATOM     21  C   UNL     1      32.821  -7.268 -23.108  0.00  0.00    -0.003 C 
ATOM     22  C   UNL     1      32.113  -6.728 -22.035  0.00  0.00    -0.003 C 
ATOM     23  C   UNL     1      32.884  -6.579 -24.319  0.00  0.00    -0.003 C 
ATOM     24  C   UNL     1      31.468  -5.499 -22.172  0.00  0.00    +0.002 C 
ATOM     25  C   UNL     1      32.239  -5.351 -24.458  0.00  0.00    +0.002 C 
ATOM     26  C   UNL     1      31.531  -4.810 -23.384  0.00  0.00    +0.031 C 
BRANCH  26  29
ATOM     27  N   UNL     1      30.425  -2.809 -22.415  0.00  0.00    -0.343 N 
ATOM     28  N   UNL     1      30.646  -3.027 -24.731  0.00  0.00    -0.285 NA
ATOM     29  C   UNL     1      30.858  -3.529 -23.527  0.00  0.00    +0.117 C 
ATOM     30  H   UNL     1      29.972  -1.944 -22.535  0.00  0.00    +0.144 HD
ATOM     31  H   UNL     1      30.571  -3.168 -21.510  0.00  0.00    +0.144 HD
ATOM     32  H   UNL     1      30.191  -2.160 -24.830  0.00  0.00    +0.188 HD
ENDBRANCH  26  29
ENDBRANCH  20  21
ENDBRANCH   2  20
TORSDOF 7
ENDMDL
MODEL 9
REMARK VINA RESULT:      -9.5      2.988      6.919
REMARK  Name = 25134248
REMARK  7 active torsions:
REMARK  status: ('A' for Active; 'I' for Inactive)
REMARK    1  A    between atoms: N_2  and  C_20
REMARK    2  A    between atoms: C_3  and  C_7
REMARK    3  A    between atoms: C_11  and  C_12
REMARK    4  A    between atoms: C_12  and  C_13
REMARK    5  A    between atoms: C_13  and  C_14
REMARK    6  A    between atoms: C_20  and  C_21
REMARK    7  A    between atoms: C_26  and  C_29
REMARK                            x       y       z     vdW  Elec       q    Type
REMARK                         _______ _______ _______ _____ _____    ______ ____
ROOT
ATOM      1  O   UNL     1      36.725 -22.405 -18.403  0.00  0.00    -0.273 OA
ATOM      2  N   UNL     1      34.440 -22.219 -18.000  0.00  0.00    -0.299 N 
ATOM      3  C   UNL     1      35.774 -22.290 -17.635  0.00  0.00    +0.241 C 
ATOM      4  H   UNL     1      33.764 -22.128 -17.289  0.00  0.00    +0.150 HD
ENDROOT
BRANCH   3   7
ATOM      5  O   UNL     1      34.469 -25.202 -14.674  0.00  0.00    -0.275 OA
ATOM      6  N   UNL     1      35.765 -23.515 -15.577  0.00  0.00    -0.273 N 
ATOM      7  C   UNL     1      35.962 -22.187 -16.151  0.00  0.00    +0.152 C 
ATOM      8  C   UNL     1      37.409 -21.838 -15.815  0.00  0.00    +0.031 C 
ATOM      9  C   UNL     1      37.034 -24.107 -15.174  0.00  0.00    +0.094 C 
ATOM     10  C   UNL     1      38.100 -23.198 -15.765  0.00  0.00    +0.024 C 
ATOM     11  C   UNL     1      34.560 -24.134 -15.282  0.00  0.00    +0.226 C 
BRANCH  11  12
ATOM     12  C   UNL     1      33.316 -23.422 -15.751  0.00  0.00    +0.085 C 
BRANCH  12  13
ATOM     13  C   UNL     1      32.446 -23.039 -14.566  0.00  0.00    +0.010 C 
BRANCH  13  14
ATOM     14  C   UNL     1      30.954 -23.210 -14.846  0.00  0.00    +0.000 C 
ATOM     15  C   UNL     1      30.620 -22.788 -16.283  0.00  0.00    +0.000 C 
ATOM     16  C   UNL     1      30.517 -24.658 -14.587  0.00  0.00    +0.000 C 
ATOM     17  C   UNL     1      29.143 -23.001 -16.604  0.00  0.00    +0.000 C 
ATOM     18  C   UNL     1      29.040 -24.867 -14.910  0.00  0.00    +0.000 C 
ATOM     19  C   UNL     1      28.710 -24.438 -16.336  0.00  0.00    +0.000 C 
ENDBRANCH  13  14
ENDBRANCH  12  13
ENDBRANCH  11  12
ENDBRANCH   3   7
BRANCH   2  20
ATOM     20  C   UNL     1      33.992 -22.271 -19.373  0.00  0.00    +0.116 C 
BRANCH  20  21
ATOM     21  C   UNL     1      34.154 -20.949 -20.067  0.00  0.00    -0.003 C 
ATOM     22  C   UNL     1      35.423 -20.512 -20.448  0.00  0.00    -0.003 C 
ATOM     23  C   UNL     1      33.036 -20.159 -20.333  0.00  0.00    -0.003 C 
ATOM     24  C   UNL     1      35.573 -19.285 -21.094  0.00  0.00    +0.002 C 
ATOM     25  C   UNL     1      33.186 -18.932 -20.979  0.00  0.00    +0.002 C 
ATOM     26  C   UNL     1      34.455 -18.495 -21.359  0.00  0.00    +0.031 C 
BRANCH  26  29
ATOM     27  N   UNL     1      35.528 -17.052 -23.072  0.00  0.00    -0.343 N 
ATOM     28  N   UNL     1      33.880 -16.181 -21.661  0.00  0.00    -0.285 NA
ATOM     29  C   UNL     1      34.612 -17.216 -22.034  0.00  0.00    +0.117 C 
ATOM     30  H   UNL     1      35.617 -16.177 -23.514  0.00  0.00    +0.144 HD
ATOM     31  H   UNL     1      36.084 -17.810 -23.361  0.00  0.00    +0.144 HD
ATOM     32  H   UNL     1      33.985 -15.315 -22.117  0.00  0.00    +0.188 HD
ENDBRANCH  26  29
ENDBRANCH  20  21
ENDBRANCH   2  20
TORSDOF 7
ENDMDL
