MODEL 1
REMARK VINA RESULT:     -12.3      0.000      0.000
REMARK  Name = 16040294
REMARK  4 active torsions:
REMARK  status: ('A' for Active; 'I' for Inactive)
REMARK    1  A    between atoms: N_6  and  C_21
REMARK    2  A    between atoms: C_7  and  C_30
REMARK    3  A    between atoms: C_24  and  C_27
REMARK    4  A    between atoms: C_27  and  C_29
REMARK                            x       y       z     vdW  Elec       q    Type
REMARK                         _______ _______ _______ _____ _____    ______ ____
ROOT
ATOM      1  N   UNL     1      31.001 -23.377 -16.843  0.00  0.00    -0.239 N 
ATOM      2  N   UNL     1      32.322 -23.352 -16.597  0.00  0.00    -0.166 NA
ATOM      3  N   UNL     1      33.514 -23.270 -14.517  0.00  0.00    -0.271 N 
ATOM      4  N   UNL     1      35.213 -22.698 -16.041  0.00  0.00    -0.312 NA
ATOM      5  N   UNL     1      37.516 -23.232 -15.574  0.00  0.00    -0.332 NA
ATOM      6  N   UNL     1      36.909 -22.132 -17.555  0.00  0.00    -0.238 N 
ATOM      7  C   UNL     1      30.230 -23.350 -15.718  0.00  0.00    +0.045 C 
ATOM      8  C   UNL     1      31.108 -23.304 -14.663  0.00  0.00    +0.048 C 
ATOM      9  C   UNL     1      32.342 -23.309 -15.289  0.00  0.00    +0.152 C 
ATOM     10  C   UNL     1      34.889 -23.265 -14.864  0.00  0.00    +0.201 C 
ATOM     11  C   UNL     1      35.814 -23.832 -13.994  0.00  0.00    +0.072 C 
ATOM     12  C   UNL     1      37.157 -23.791 -14.405  0.00  0.00    +0.131 C 
ATOM     13  C   UNL     1      36.525 -22.716 -16.329  0.00  0.00    +0.204 C 
ATOM     14  C   UNL     1      35.451 -24.418 -12.769  0.00  0.00    +0.006 C 
ATOM     15  C   UNL     1      38.113 -24.349 -13.559  0.00  0.00    +0.086 C 
ATOM     16  C   UNL     1      36.427 -24.968 -11.944  0.00  0.00    -0.004 C 
ATOM     17  C   UNL     1      37.759 -24.933 -12.340  0.00  0.00    -0.019 C 
ATOM     18  H   UNL     1      30.624 -23.412 -17.752  0.00  0.00    +0.174 HD
ATOM     19  H   UNL     1      33.350 -23.239 -13.547  0.00  0.00    +0.156 HD
ATOM     20  H   UNL     1      37.878 -22.169 -17.725  0.00  0.00    +0.166 HD
ENDROOT
BRANCH   6  21
ATOM     21  C   UNL     1      36.178 -21.507 -18.583  0.00  0.00    +0.058 C 
ATOM     22  C   UNL     1      34.834 -21.828 -18.782  0.00  0.00    +0.015 C 
ATOM     23  C   UNL     1      36.795 -20.564 -19.407  0.00  0.00    +0.015 C 
ATOM     24  C   UNL     1      34.728 -20.266 -20.621  0.00  0.00    -0.007 C 
ATOM     25  C   UNL     1      34.109 -21.209 -19.799  0.00  0.00    -0.002 C 
ATOM     26  C   UNL     1      36.070 -19.944 -20.425  0.00  0.00    -0.002 C 
BRANCH  24  27
ATOM     27  C   UNL     1      33.953 -19.604 -21.710  0.00  0.00    +0.132 C 
BRANCH  27  29
ATOM     28  N   UNL     1      35.492 -18.643 -23.619  0.00  0.00    -0.196 NA
ATOM     29  C   UNL     1      34.819 -19.068 -22.776  0.00  0.00    +0.078 C 
ENDBRANCH  27  29
ENDBRANCH  24  27
ENDBRANCH   6  21
BRANCH   7  30
ATOM     30  C   UNL     1      28.708 -23.367 -15.656  0.00  0.00    +0.037 C 
ATOM     31  C   UNL     1      27.918 -23.002 -16.887  0.00  0.00    +0.006 C 
ATOM     32  C   UNL     1      27.955 -22.063 -15.717  0.00  0.00    +0.006 C 
ENDBRANCH   7  30
TORSDOF 4
ENDMDL
MODEL 2
REMARK VINA RESULT:     -10.9      1.525      6.777
REMARK  Name = 16040294
REMARK  4 active torsions:
REMARK  status: ('A' for Active; 'I' for Inactive)
REMARK    1  A    between atoms: N_6  and  C_21
REMARK    2  A    between atoms: C_7  and  C_30
REMARK    3  A    between atoms: C_24  and  C_27
REMARK    4  A    between atoms: C_27  and  C_29
REMARK                            x       y       z     vdW  Elec       q    Type
REMARK                         _______ _______ _______ _____ _____    ______ ____
ROOT
ATOM      1  N   UNL     1      31.668 -23.169 -15.161  0.00  0.00    -0.239 N 
ATOM      2  N   UNL     1      32.708 -22.742 -15.897  0.00  0.00    -0.166 NA
ATOM      3  N   UNL     1      32.913 -22.436 -18.267  0.00  0.00    -0.271 N 
ATOM      4  N   UNL     1      35.169 -22.371 -17.601  0.00  0.00    -0.312 NA
ATOM      5  N   UNL     1      36.783 -21.084 -18.845  0.00  0.00    -0.332 NA
ATOM      6  N   UNL     1      37.416 -22.302 -16.942  0.00  0.00    -0.238 N 
ATOM      7  C   UNL     1      30.560 -23.473 -15.896  0.00  0.00    +0.045 C 
ATOM      8  C   UNL     1      30.900 -23.228 -17.204  0.00  0.00    +0.048 C 
ATOM      9  C   UNL     1      32.209 -22.792 -17.106  0.00  0.00    +0.152 C 
ATOM     10  C   UNL     1      34.234 -21.965 -18.479  0.00  0.00    +0.201 C 
ATOM     11  C   UNL     1      34.493 -21.125 -19.557  0.00  0.00    +0.072 C 
ATOM     12  C   UNL     1      35.823 -20.698 -19.703  0.00  0.00    +0.131 C 
ATOM     13  C   UNL     1      36.404 -21.900 -17.840  0.00  0.00    +0.204 C 
ATOM     14  C   UNL     1      33.498 -20.714 -20.462  0.00  0.00    +0.006 C 
ATOM     15  C   UNL     1      36.122 -19.856 -20.773  0.00  0.00    +0.086 C 
ATOM     16  C   UNL     1      33.826 -19.873 -21.521  0.00  0.00    -0.004 C 
ATOM     17  C   UNL     1      35.138 -19.443 -21.676  0.00  0.00    -0.019 C 
ATOM     18  H   UNL     1      31.702 -23.254 -14.180  0.00  0.00    +0.174 HD
ATOM     19  H   UNL     1      32.389 -22.533 -19.095  0.00  0.00    +0.156 HD
ATOM     20  H   UNL     1      38.303 -21.932 -17.155  0.00  0.00    +0.166 HD
ENDROOT
BRANCH   6  21
ATOM     21  C   UNL     1      37.405 -23.127 -15.802  0.00  0.00    +0.058 C 
ATOM     22  C   UNL     1      38.460 -24.010 -15.565  0.00  0.00    +0.015 C 
ATOM     23  C   UNL     1      36.339 -23.064 -14.902  0.00  0.00    +0.015 C 
ATOM     24  C   UNL     1      37.383 -24.762 -13.538  0.00  0.00    -0.007 C 
ATOM     25  C   UNL     1      38.449 -24.827 -14.435  0.00  0.00    -0.002 C 
ATOM     26  C   UNL     1      36.328 -23.880 -13.772  0.00  0.00    -0.002 C 
BRANCH  24  27
ATOM     27  C   UNL     1      37.371 -25.636 -12.329  0.00  0.00    +0.132 C 
BRANCH  27  29
ATOM     28  N   UNL     1      35.463 -24.982 -10.636  0.00  0.00    -0.196 NA
ATOM     29  C   UNL     1      36.305 -25.273 -11.378  0.00  0.00    +0.078 C 
ENDBRANCH  27  29
ENDBRANCH  24  27
ENDBRANCH   6  21
BRANCH   7  30
ATOM     30  C   UNL     1      29.225 -23.980 -15.365  0.00  0.00    +0.037 C 
ATOM     31  C   UNL     1      28.122 -24.304 -16.340  0.00  0.00    +0.006 C 
ATOM     32  C   UNL     1      28.011 -23.092 -15.463  0.00  0.00    +0.006 C 
ENDBRANCH   7  30
TORSDOF 4
ENDMDL
MODEL 3
REMARK VINA RESULT:      -9.9      1.821      6.454
REMARK  Name = 16040294
REMARK  4 active torsions:
REMARK  status: ('A' for Active; 'I' for Inactive)
REMARK    1  A    between atoms: N_6  and  C_21
REMARK    2  A    between atoms: C_7  and  C_30
REMARK    3  A    between atoms: C_24  and  C_27
REMARK    4  A    between atoms: C_27  and  C_29
REMARK                            x       y       z     vdW  Elec       q    Type
REMARK                         _______ _______ _______ _____ _____    ______ ____
ROOT
ATOM      1  N   UNL     1      32.778 -20.566 -19.525  0.00  0.00    -0.239 N 
ATOM      2  N   UNL     1      32.920 -21.298 -18.407  0.00  0.00    -0.166 NA
ATOM      3  N   UNL     1      34.682 -22.778 -17.730  0.00  0.00    -0.271 N 
ATOM      4  N   UNL     1      32.978 -23.376 -16.222  0.00  0.00    -0.312 NA
ATOM      5  N   UNL     1      33.516 -24.215 -14.027  0.00  0.00    -0.332 NA
ATOM      6  N   UNL     1      31.286 -23.973 -14.715  0.00  0.00    -0.238 N 
ATOM      7  C   UNL     1      33.812 -20.700 -20.406  0.00  0.00    +0.045 C 
ATOM      8  C   UNL     1      34.690 -21.580 -19.822  0.00  0.00    +0.048 C 
ATOM      9  C   UNL     1      34.069 -21.885 -18.623  0.00  0.00    +0.152 C 
ATOM     10  C   UNL     1      34.299 -23.272 -16.457  0.00  0.00    +0.201 C 
ATOM     11  C   UNL     1      35.282 -23.617 -15.535  0.00  0.00    +0.072 C 
ATOM     12  C   UNL     1      34.828 -24.098 -14.296  0.00  0.00    +0.131 C 
ATOM     13  C   UNL     1      32.662 -23.847 -15.005  0.00  0.00    +0.204 C 
ATOM     14  C   UNL     1      36.657 -23.500 -15.805  0.00  0.00    +0.006 C 
ATOM     15  C   UNL     1      35.784 -24.454 -13.347  0.00  0.00    +0.086 C 
ATOM     16  C   UNL     1      37.590 -23.863 -14.838  0.00  0.00    -0.004 C 
ATOM     17  C   UNL     1      37.152 -24.340 -13.608  0.00  0.00    -0.019 C 
ATOM     18  H   UNL     1      32.000 -19.986 -19.693  0.00  0.00    +0.174 HD
ATOM     19  H   UNL     1      35.544 -23.130 -18.049  0.00  0.00    +0.156 HD
ATOM     20  H   UNL     1      31.102 -24.320 -13.813  0.00  0.00    +0.166 HD
ENDROOT
BRANCH   6  21
ATOM     21  C   UNL     1      30.127 -23.697 -15.464  0.00  0.00    +0.058 C 
ATOM     22  C   UNL     1      29.560 -22.421 -15.435  0.00  0.00    +0.015 C 
ATOM     23  C   UNL     1      29.539 -24.698 -16.239  0.00  0.00    +0.015 C 
ATOM     24  C   UNL     1      27.827 -23.150 -16.951  0.00  0.00    -0.007 C 
ATOM     25  C   UNL     1      28.412 -22.147 -16.177  0.00  0.00    -0.002 C 
ATOM     26  C   UNL     1      28.390 -24.425 -16.981  0.00  0.00    -0.002 C 
BRANCH  24  27
ATOM     27  C   UNL     1      26.598 -22.858 -17.745  0.00  0.00    +0.132 C 
BRANCH  27  29
ATOM     28  N   UNL     1      26.098 -20.280 -17.940  0.00  0.00    -0.196 NA
ATOM     29  C   UNL     1      26.321 -21.415 -17.850  0.00  0.00    +0.078 C 
ENDBRANCH  27  29
ENDBRANCH  24  27
ENDBRANCH   6  21
BRANCH   7  30
ATOM     30  C   UNL     1      33.953 -20.009 -21.756  0.00  0.00    +0.037 C 
ATOM     31  C   UNL     1      35.305 -19.495 -22.181  0.00  0.00    +0.006 C 
ATOM     32  C   UNL     1      34.224 -18.527 -21.799  0.00  0.00    +0.006 C 
ENDBRANCH   7  30
TORSDOF 4
ENDMDL
