MODEL 1
REMARK VINA RESULT:     -10.2      0.000      0.000
REMARK  Name = 448238
REMARK  8 active torsions:
REMARK  status: ('A' for Active; 'I' for Inactive)
REMARK    1  A    between atoms: C_4  and  C_11
REMARK    2  A    between atoms: C_5  and  C_20
REMARK    3  A    between atoms: C_22  and  N_26
REMARK    4  A    between atoms: N_26  and  C_28
REMARK    5  A    between atoms: C_28  and  C_29
REMARK    6  A    between atoms: C_29  and  O_30
REMARK    7  A    between atoms: C_29  and  C_32
REMARK    8  A    between atoms: C_32  and  O_33
REMARK                            x       y       z     vdW  Elec       q    Type
REMARK                         _______ _______ _______ _____ _____    ______ ____
ROOT
ATOM      1  O   UNL     1      31.526 -24.853 -13.662  0.00  0.00    -0.270 OA
ATOM      2  O   UNL     1      31.684 -22.638 -17.666  0.00  0.00    -0.270 OA
ATOM      3  N   UNL     1      31.213 -23.780 -15.698  0.00  0.00    -0.248 N 
ATOM      4  C   UNL     1      33.351 -23.895 -14.909  0.00  0.00    +0.059 C 
ATOM      5  C   UNL     1      33.395 -23.246 -16.088  0.00  0.00    +0.058 C 
ATOM      6  C   UNL     1      31.934 -24.249 -14.640  0.00  0.00    +0.252 C 
ATOM      7  C   UNL     1      32.010 -23.166 -16.617  0.00  0.00    +0.252 C 
ATOM      8  H   UNL     1      30.236 -23.873 -15.787  0.00  0.00    +0.158 HD
ENDROOT
BRANCH   4  11
ATOM      9  F   UNL     1      37.340 -27.580 -16.258  0.00  0.00    -0.204 F 
ATOM     10  N   UNL     1      35.695 -24.305 -12.210  0.00  0.00    -0.284 N 
ATOM     11  C   UNL     1      34.414 -24.251 -14.023  0.00  0.00    +0.021 C 
ATOM     12  C   UNL     1      35.477 -25.169 -14.256  0.00  0.00    +0.017 C 
ATOM     13  C   UNL     1      36.266 -25.184 -13.103  0.00  0.00    +0.052 C 
ATOM     14  C   UNL     1      34.576 -23.736 -12.757  0.00  0.00    +0.066 C 
ATOM     15  C   UNL     1      35.844 -25.991 -15.340  0.00  0.00    +0.031 C 
ATOM     16  C   UNL     1      37.409 -25.983 -12.981  0.00  0.00    +0.017 C 
ATOM     17  C   UNL     1      36.193 -24.013 -10.884  0.00  0.00    +0.117 C 
ATOM     18  C   UNL     1      36.983 -26.795 -15.231  0.00  0.00    +0.140 C 
ATOM     19  C   UNL     1      37.752 -26.790 -14.068  0.00  0.00    +0.031 C 
ENDBRANCH   4  11
BRANCH   5  20
ATOM     20  C   UNL     1      34.565 -22.698 -16.777  0.00  0.00    +0.006 C 
ATOM     21  C   UNL     1      34.495 -22.370 -18.136  0.00  0.00    +0.014 C 
ATOM     22  C   UNL     1      35.609 -21.847 -18.793  0.00  0.00    +0.045 C 
ATOM     23  C   UNL     1      35.763 -22.495 -16.084  0.00  0.00    +0.000 C 
ATOM     24  C   UNL     1      36.799 -21.648 -18.095  0.00  0.00    +0.014 C 
ATOM     25  C   UNL     1      36.877 -21.972 -16.740  0.00  0.00    +0.001 C 
BRANCH  22  26
ATOM     26  N   UNL     1      35.532 -21.520 -20.163  0.00  0.00    -0.331 N 
ATOM     27  H   UNL     1      35.465 -22.252 -20.818  0.00  0.00    +0.147 HD
BRANCH  26  28
ATOM     28  C   UNL     1      35.549 -20.172 -20.642  0.00  0.00    +0.119 C 
BRANCH  28  29
ATOM     29  C   UNL     1      34.301 -19.862 -21.469  0.00  0.00    +0.159 C 
BRANCH  29  30
ATOM     30  O   UNL     1      34.480 -18.630 -22.168  0.00  0.00    -0.380 OA
ATOM     31  H   UNL     1      33.621 -18.189 -22.272  0.00  0.00    +0.211 HD
ENDBRANCH  29  30
BRANCH  29  32
ATOM     32  C   UNL     1      33.031 -19.758 -20.630  0.00  0.00    +0.168 C 
BRANCH  32  33
ATOM     33  O   UNL     1      32.536 -21.070 -20.380  0.00  0.00    -0.379 OA
ATOM     34  H   UNL     1      33.280 -21.680 -20.258  0.00  0.00    +0.211 HD
ENDBRANCH  32  33
ENDBRANCH  29  32
ENDBRANCH  28  29
ENDBRANCH  26  28
ENDBRANCH  22  26
ENDBRANCH   5  20
TORSDOF 8
ENDMDL
MODEL 2
REMARK VINA RESULT:      -9.9      7.663     13.268
REMARK  Name = 448238
REMARK  8 active torsions:
REMARK  status: ('A' for Active; 'I' for Inactive)
REMARK    1  A    between atoms: C_4  and  C_11
REMARK    2  A    between atoms: C_5  and  C_20
REMARK    3  A    between atoms: C_22  and  N_26
REMARK    4  A    between atoms: N_26  and  C_28
REMARK    5  A    between atoms: C_28  and  C_29
REMARK    6  A    between atoms: C_29  and  O_30
REMARK    7  A    between atoms: C_29  and  C_32
REMARK    8  A    between atoms: C_32  and  O_33
REMARK                            x       y       z     vdW  Elec       q    Type
REMARK                         _______ _______ _______ _____ _____    ______ ____
ROOT
ATOM      1  O   UNL     1      32.539 -13.386 -26.950  0.00  0.00    -0.270 OA
ATOM      2  O   UNL     1      34.093 -17.434 -25.480  0.00  0.00    -0.270 OA
ATOM      3  N   UNL     1      33.281 -15.557 -26.581  0.00  0.00    -0.248 N 
ATOM      4  C   UNL     1      33.269 -14.149 -24.784  0.00  0.00    +0.059 C 
ATOM      5  C   UNL     1      33.723 -15.341 -24.354  0.00  0.00    +0.058 C 
ATOM      6  C   UNL     1      32.977 -14.273 -26.236  0.00  0.00    +0.252 C 
ATOM      7  C   UNL     1      33.734 -16.270 -25.512  0.00  0.00    +0.252 C 
ATOM      8  H   UNL     1      33.185 -15.922 -27.490  0.00  0.00    +0.158 HD
ENDROOT
BRANCH   4  11
ATOM      9  F   UNL     1      35.966  -9.376 -25.902  0.00  0.00    -0.204 F 
ATOM     10  N   UNL     1      32.214 -11.521 -22.565  0.00  0.00    -0.284 N 
ATOM     11  C   UNL     1      33.046 -12.940 -24.056  0.00  0.00    +0.021 C 
ATOM     12  C   UNL     1      33.669 -11.675 -24.249  0.00  0.00    +0.017 C 
ATOM     13  C   UNL     1      33.130 -10.802 -23.301  0.00  0.00    +0.052 C 
ATOM     14  C   UNL     1      32.156 -12.813 -23.014  0.00  0.00    +0.066 C 
ATOM     15  C   UNL     1      34.644 -11.187 -25.143  0.00  0.00    +0.031 C 
ATOM     16  C   UNL     1      33.516  -9.461 -23.203  0.00  0.00    +0.017 C 
ATOM     17  C   UNL     1      31.420 -11.001 -21.473  0.00  0.00    +0.117 C 
ATOM     18  C   UNL     1      35.041  -9.848 -25.055  0.00  0.00    +0.140 C 
ATOM     19  C   UNL     1      34.484  -9.000 -24.099  0.00  0.00    +0.031 C 
ENDBRANCH   4  11
BRANCH   5  20
ATOM     20  C   UNL     1      34.143 -15.716 -23.003  0.00  0.00    +0.006 C 
ATOM     21  C   UNL     1      34.830 -16.916 -22.784  0.00  0.00    +0.014 C 
ATOM     22  C   UNL     1      35.231 -17.274 -21.497  0.00  0.00    +0.045 C 
ATOM     23  C   UNL     1      33.864 -14.879 -21.918  0.00  0.00    +0.000 C 
ATOM     24  C   UNL     1      34.949 -16.434 -20.420  0.00  0.00    +0.014 C 
ATOM     25  C   UNL     1      34.265 -15.236 -20.630  0.00  0.00    +0.001 C 
BRANCH  22  26
ATOM     26  N   UNL     1      35.922 -18.485 -21.284  0.00  0.00    -0.331 N 
ATOM     27  H   UNL     1      36.860 -18.446 -20.988  0.00  0.00    +0.147 HD
BRANCH  26  28
ATOM     28  C   UNL     1      35.319 -19.767 -21.480  0.00  0.00    +0.119 C 
BRANCH  28  29
ATOM     29  C   UNL     1      34.642 -20.263 -20.202  0.00  0.00    +0.159 C 
BRANCH  29  30
ATOM     30  O   UNL     1      35.129 -21.564 -19.872  0.00  0.00    -0.380 OA
ATOM     31  H   UNL     1      34.694 -21.877 -19.063  0.00  0.00    +0.211 HD
ENDBRANCH  29  30
BRANCH  29  32
ATOM     32  C   UNL     1      33.123 -20.333 -20.311  0.00  0.00    +0.168 C 
BRANCH  32  33
ATOM     33  O   UNL     1      32.709 -21.682 -20.123  0.00  0.00    -0.379 OA
ATOM     34  H   UNL     1      33.481 -22.268 -20.167  0.00  0.00    +0.211 HD
ENDBRANCH  32  33
ENDBRANCH  29  32
ENDBRANCH  28  29
ENDBRANCH  26  28
ENDBRANCH  22  26
ENDBRANCH   5  20
TORSDOF 8
ENDMDL
MODEL 3
REMARK VINA RESULT:      -9.8      9.415     13.383
REMARK  Name = 448238
REMARK  8 active torsions:
REMARK  status: ('A' for Active; 'I' for Inactive)
REMARK    1  A    between atoms: C_4  and  C_11
REMARK    2  A    between atoms: C_5  and  C_20
REMARK    3  A    between atoms: C_22  and  N_26
REMARK    4  A    between atoms: N_26  and  C_28
REMARK    5  A    between atoms: C_28  and  C_29
REMARK    6  A    between atoms: C_29  and  O_30
REMARK    7  A    between atoms: C_29  and  C_32
REMARK    8  A    between atoms: C_32  and  O_33
REMARK                            x       y       z     vdW  Elec       q    Type
REMARK                         _______ _______ _______ _____ _____    ______ ____
ROOT
ATOM      1  O   UNL     1      32.836 -16.322 -25.874  0.00  0.00    -0.270 OA
ATOM      2  O   UNL     1      33.548 -12.338 -28.015  0.00  0.00    -0.270 OA
ATOM      3  N   UNL     1      33.128 -14.506 -27.293  0.00  0.00    -0.248 N 
ATOM      4  C   UNL     1      33.355 -14.117 -25.055  0.00  0.00    +0.059 C 
ATOM      5  C   UNL     1      33.566 -12.946 -25.687  0.00  0.00    +0.058 C 
ATOM      6  C   UNL     1      33.066 -15.144 -26.089  0.00  0.00    +0.252 C 
ATOM      7  C   UNL     1      33.425 -13.184 -27.146  0.00  0.00    +0.252 C 
ATOM      8  H   UNL     1      32.975 -14.946 -28.160  0.00  0.00    +0.158 HD
ENDROOT
BRANCH   4  11
ATOM      9  F   UNL     1      36.399 -18.320 -22.964  0.00  0.00    -0.204 F 
ATOM     10  N   UNL     1      33.011 -14.304 -21.479  0.00  0.00    -0.284 N 
ATOM     11  C   UNL     1      33.405 -14.422 -23.660  0.00  0.00    +0.021 C 
ATOM     12  C   UNL     1      34.139 -15.460 -23.018  0.00  0.00    +0.017 C 
ATOM     13  C   UNL     1      33.874 -15.363 -21.650  0.00  0.00    +0.052 C 
ATOM     14  C   UNL     1      32.723 -13.729 -22.688  0.00  0.00    +0.066 C 
ATOM     15  C   UNL     1      35.005 -16.475 -23.471  0.00  0.00    +0.031 C 
ATOM     16  C   UNL     1      34.435 -16.233 -20.709  0.00  0.00    +0.017 C 
ATOM     17  C   UNL     1      32.478 -13.850 -20.212  0.00  0.00    +0.117 C 
ATOM     18  C   UNL     1      35.573 -17.352 -22.542  0.00  0.00    +0.140 C 
ATOM     19  C   UNL     1      35.291 -17.232 -21.182  0.00  0.00    +0.031 C 
ENDBRANCH   4  11
BRANCH   5  20
ATOM     20  C   UNL     1      33.884 -11.644 -25.100  0.00  0.00    +0.006 C 
ATOM     21  C   UNL     1      33.045 -11.082 -24.130  0.00  0.00    +0.014 C 
ATOM     22  C   UNL     1      33.348  -9.841 -23.570  0.00  0.00    +0.045 C 
ATOM     23  C   UNL     1      35.030 -10.949 -25.501  0.00  0.00    +0.000 C 
ATOM     24  C   UNL     1      34.492  -9.154 -23.974  0.00  0.00    +0.014 C 
ATOM     25  C   UNL     1      35.333  -9.708 -24.940  0.00  0.00    +0.001 C 
BRANCH  22  26
ATOM     26  N   UNL     1      32.497  -9.281 -22.594  0.00  0.00    -0.331 N 
ATOM     27  H   UNL     1      31.644  -9.731 -22.400  0.00  0.00    +0.147 HD
BRANCH  26  28
ATOM     28  C   UNL     1      32.820  -8.086 -21.877  0.00  0.00    +0.119 C 
BRANCH  28  29
ATOM     29  C   UNL     1      32.228  -8.109 -20.467  0.00  0.00    +0.159 C 
BRANCH  29  30
ATOM     30  O   UNL     1      33.143  -7.507 -19.551  0.00  0.00    -0.380 OA
ATOM     31  H   UNL     1      33.488  -8.184 -18.947  0.00  0.00    +0.211 HD
ENDBRANCH  29  30
BRANCH  29  32
ATOM     32  C   UNL     1      31.906  -9.515 -19.971  0.00  0.00    +0.168 C 
BRANCH  32  33
ATOM     33  O   UNL     1      32.650  -9.765 -18.782  0.00  0.00    -0.379 OA
ATOM     34  H   UNL     1      32.070  -9.668 -18.010  0.00  0.00    +0.211 HD
ENDBRANCH  32  33
ENDBRANCH  29  32
ENDBRANCH  28  29
ENDBRANCH  26  28
ENDBRANCH  22  26
ENDBRANCH   5  20
TORSDOF 8
ENDMDL
MODEL 4
REMARK VINA RESULT:      -9.6      2.862      5.216
REMARK  Name = 448238
REMARK  8 active torsions:
REMARK  status: ('A' for Active; 'I' for Inactive)
REMARK    1  A    between atoms: C_4  and  C_11
REMARK    2  A    between atoms: C_5  and  C_20
REMARK    3  A    between atoms: C_22  and  N_26
REMARK    4  A    between atoms: N_26  and  C_28
REMARK    5  A    between atoms: C_28  and  C_29
REMARK    6  A    between atoms: C_29  and  O_30
REMARK    7  A    between atoms: C_29  and  C_32
REMARK    8  A    between atoms: C_32  and  O_33
REMARK                            x       y       z     vdW  Elec       q    Type
REMARK                         _______ _______ _______ _____ _____    ______ ____
ROOT
ATOM      1  O   UNL     1      36.990 -22.674 -16.853  0.00  0.00    -0.270 OA
ATOM      2  O   UNL     1      32.659 -22.557 -18.335  0.00  0.00    -0.270 OA
ATOM      3  N   UNL     1      34.947 -22.474 -17.942  0.00  0.00    -0.248 N 
ATOM      4  C   UNL     1      34.907 -23.293 -15.812  0.00  0.00    +0.059 C 
ATOM      5  C   UNL     1      33.634 -23.256 -16.249  0.00  0.00    +0.058 C 
ATOM      6  C   UNL     1      35.776 -22.787 -16.906  0.00  0.00    +0.252 C 
ATOM      7  C   UNL     1      33.643 -22.721 -17.634  0.00  0.00    +0.252 C 
ATOM      8  H   UNL     1      35.254 -22.114 -18.806  0.00  0.00    +0.158 HD
ENDROOT
BRANCH   4  11
ATOM      9  F   UNL     1      39.776 -25.986 -15.228  0.00  0.00    -0.204 F 
ATOM     10  N   UNL     1      35.584 -24.000 -12.350  0.00  0.00    -0.284 N 
ATOM     11  C   UNL     1      35.425 -23.698 -14.543  0.00  0.00    +0.021 C 
ATOM     12  C   UNL     1      36.643 -24.384 -14.275  0.00  0.00    +0.017 C 
ATOM     13  C   UNL     1      36.718 -24.561 -12.892  0.00  0.00    +0.052 C 
ATOM     14  C   UNL     1      34.797 -23.475 -13.340  0.00  0.00    +0.066 C 
ATOM     15  C   UNL     1      37.692 -24.873 -15.079  0.00  0.00    +0.031 C 
ATOM     16  C   UNL     1      37.795 -25.203 -12.269  0.00  0.00    +0.017 C 
ATOM     17  C   UNL     1      35.256 -23.959 -10.941  0.00  0.00    +0.117 C 
ATOM     18  C   UNL     1      38.774 -25.519 -14.471  0.00  0.00    +0.140 C 
ATOM     19  C   UNL     1      38.823 -25.680 -13.087  0.00  0.00    +0.031 C 
ENDBRANCH   4  11
BRANCH   5  20
ATOM     20  C   UNL     1      32.419 -23.653 -15.536  0.00  0.00    +0.006 C 
ATOM     21  C   UNL     1      31.234 -22.926 -15.699  0.00  0.00    +0.014 C 
ATOM     22  C   UNL     1      30.076 -23.305 -15.020  0.00  0.00    +0.045 C 
ATOM     23  C   UNL     1      32.431 -24.764 -14.685  0.00  0.00    +0.000 C 
ATOM     24  C   UNL     1      30.095 -24.412 -14.173  0.00  0.00    +0.014 C 
ATOM     25  C   UNL     1      31.273 -25.142 -14.005  0.00  0.00    +0.001 C 
BRANCH  22  26
ATOM     26  N   UNL     1      28.886 -22.567 -15.188  0.00  0.00    -0.331 N 
ATOM     27  H   UNL     1      28.762 -21.746 -14.659  0.00  0.00    +0.147 HD
BRANCH  26  28
ATOM     28  C   UNL     1      27.849 -22.961 -16.092  0.00  0.00    +0.119 C 
BRANCH  28  29
ATOM     29  C   UNL     1      26.819 -21.846 -16.273  0.00  0.00    +0.159 C 
BRANCH  29  30
ATOM     30  O   UNL     1      25.651 -22.140 -15.506  0.00  0.00    -0.380 OA
ATOM     31  H   UNL     1      25.480 -23.096 -15.531  0.00  0.00    +0.211 HD
ENDBRANCH  29  30
BRANCH  29  32
ATOM     32  C   UNL     1      26.401 -21.640 -17.725  0.00  0.00    +0.168 C 
BRANCH  32  33
ATOM     33  O   UNL     1      26.063 -20.269 -17.917  0.00  0.00    -0.379 OA
ATOM     34  H   UNL     1      25.103 -20.157 -17.828  0.00  0.00    +0.211 HD
ENDBRANCH  32  33
ENDBRANCH  29  32
ENDBRANCH  28  29
ENDBRANCH  26  28
ENDBRANCH  22  26
ENDBRANCH   5  20
TORSDOF 8
ENDMDL
MODEL 5
REMARK VINA RESULT:      -9.2      3.241      6.710
REMARK  Name = 448238
REMARK  8 active torsions:
REMARK  status: ('A' for Active; 'I' for Inactive)
REMARK    1  A    between atoms: C_4  and  C_11
REMARK    2  A    between atoms: C_5  and  C_20
REMARK    3  A    between atoms: C_22  and  N_26
REMARK    4  A    between atoms: N_26  and  C_28
REMARK    5  A    between atoms: C_28  and  C_29
REMARK    6  A    between atoms: C_29  and  O_30
REMARK    7  A    between atoms: C_29  and  C_32
REMARK    8  A    between atoms: C_32  and  O_33
REMARK                            x       y       z     vdW  Elec       q    Type
REMARK                         _______ _______ _______ _____ _____    ______ ____
ROOT
ATOM      1  O   UNL     1      31.613 -22.949 -17.146  0.00  0.00    -0.270 OA
ATOM      2  O   UNL     1      31.664 -25.151 -13.133  0.00  0.00    -0.270 OA
ATOM      3  N   UNL     1      31.246 -24.096 -15.160  0.00  0.00    -0.248 N 
ATOM      4  C   UNL     1      33.405 -23.539 -15.648  0.00  0.00    +0.059 C 
ATOM      5  C   UNL     1      33.417 -24.185 -14.466  0.00  0.00    +0.058 C 
ATOM      6  C   UNL     1      31.996 -23.474 -16.114  0.00  0.00    +0.252 C 
ATOM      7  C   UNL     1      32.018 -24.552 -14.133  0.00  0.00    +0.252 C 
ATOM      8  H   UNL     1      30.269 -24.204 -15.208  0.00  0.00    +0.158 HD
ENDROOT
BRANCH   4  11
ATOM      9  F   UNL     1      32.757 -21.213 -20.695  0.00  0.00    -0.204 F 
ATOM     10  N   UNL     1      36.536 -22.290 -16.905  0.00  0.00    -0.284 N 
ATOM     11  C   UNL     1      34.486 -22.961 -16.383  0.00  0.00    +0.021 C 
ATOM     12  C   UNL     1      34.440 -22.346 -17.666  0.00  0.00    +0.017 C 
ATOM     13  C   UNL     1      35.739 -21.933 -17.970  0.00  0.00    +0.052 C 
ATOM     14  C   UNL     1      35.787 -22.910 -15.941  0.00  0.00    +0.066 C 
ATOM     15  C   UNL     1      33.414 -22.100 -18.601  0.00  0.00    +0.031 C 
ATOM     16  C   UNL     1      36.065 -21.283 -19.166  0.00  0.00    +0.017 C 
ATOM     17  C   UNL     1      37.959 -22.049 -16.802  0.00  0.00    +0.117 C 
ATOM     18  C   UNL     1      33.726 -21.452 -19.801  0.00  0.00    +0.140 C 
ATOM     19  C   UNL     1      35.032 -21.051 -20.077  0.00  0.00    +0.031 C 
ENDBRANCH   4  11
BRANCH   5  20
ATOM     20  C   UNL     1      34.567 -24.496 -13.616  0.00  0.00    +0.006 C 
ATOM     21  C   UNL     1      35.558 -25.378 -14.063  0.00  0.00    +0.014 C 
ATOM     22  C   UNL     1      36.654 -25.675 -13.253  0.00  0.00    +0.045 C 
ATOM     23  C   UNL     1      34.687 -23.914 -12.349  0.00  0.00    +0.000 C 
ATOM     24  C   UNL     1      36.767 -25.091 -11.992  0.00  0.00    +0.014 C 
ATOM     25  C   UNL     1      35.784 -24.211 -11.539  0.00  0.00    +0.001 C 
BRANCH  22  26
ATOM     26  N   UNL     1      37.648 -26.565 -13.709  0.00  0.00    -0.331 N 
ATOM     27  H   UNL     1      37.970 -27.265 -13.097  0.00  0.00    +0.147 HD
BRANCH  26  28
ATOM     28  C   UNL     1      38.212 -26.493 -15.022  0.00  0.00    +0.119 C 
BRANCH  28  29
ATOM     29  C   UNL     1      39.410 -25.542 -15.059  0.00  0.00    +0.159 C 
BRANCH  29  30
ATOM     30  O   UNL     1      40.227 -25.843 -16.190  0.00  0.00    -0.380 OA
ATOM     31  H   UNL     1      40.866 -26.534 -15.954  0.00  0.00    +0.211 HD
ENDBRANCH  29  30
BRANCH  29  32
ATOM     32  C   UNL     1      40.277 -25.614 -13.807  0.00  0.00    +0.168 C 
BRANCH  32  33
ATOM     33  O   UNL     1      41.232 -26.659 -13.967  0.00  0.00    -0.379 OA
ATOM     34  H   UNL     1      42.120 -26.317 -13.778  0.00  0.00    +0.211 HD
ENDBRANCH  32  33
ENDBRANCH  29  32
ENDBRANCH  28  29
ENDBRANCH  26  28
ENDBRANCH  22  26
ENDBRANCH   5  20
TORSDOF 8
ENDMDL
MODEL 6
REMARK VINA RESULT:      -9.1     10.124     13.827
REMARK  Name = 448238
REMARK  8 active torsions:
REMARK  status: ('A' for Active; 'I' for Inactive)
REMARK    1  A    between atoms: C_4  and  C_11
REMARK    2  A    between atoms: C_5  and  C_20
REMARK    3  A    between atoms: C_22  and  N_26
REMARK    4  A    between atoms: N_26  and  C_28
REMARK    5  A    between atoms: C_28  and  C_29
REMARK    6  A    between atoms: C_29  and  O_30
REMARK    7  A    between atoms: C_29  and  C_32
REMARK    8  A    between atoms: C_32  and  O_33
REMARK                            x       y       z     vdW  Elec       q    Type
REMARK                         _______ _______ _______ _____ _____    ______ ____
ROOT
ATOM      1  O   UNL     1      32.620 -16.466 -26.295  0.00  0.00    -0.270 OA
ATOM      2  O   UNL     1      32.649 -12.230 -28.032  0.00  0.00    -0.270 OA
ATOM      3  N   UNL     1      32.485 -14.487 -27.503  0.00  0.00    -0.248 N 
ATOM      4  C   UNL     1      33.281 -14.343 -25.368  0.00  0.00    +0.059 C 
ATOM      5  C   UNL     1      33.290 -13.098 -25.882  0.00  0.00    +0.058 C 
ATOM      6  C   UNL     1      32.757 -15.260 -26.413  0.00  0.00    +0.252 C 
ATOM      7  C   UNL     1      32.778 -13.175 -27.274  0.00  0.00    +0.252 C 
ATOM      8  H   UNL     1      32.122 -14.833 -28.350  0.00  0.00    +0.158 HD
ENDROOT
BRANCH   4  11
ATOM      9  F   UNL     1      31.150 -12.379 -20.582  0.00  0.00    -0.204 F 
ATOM     10  N   UNL     1      34.799 -15.945 -22.527  0.00  0.00    -0.284 N 
ATOM     11  C   UNL     1      33.702 -14.803 -24.082  0.00  0.00    +0.021 C 
ATOM     12  C   UNL     1      33.234 -14.379 -22.806  0.00  0.00    +0.017 C 
ATOM     13  C   UNL     1      33.939 -15.111 -21.848  0.00  0.00    +0.052 C 
ATOM     14  C   UNL     1      34.662 -15.766 -23.878  0.00  0.00    +0.066 C 
ATOM     15  C   UNL     1      32.276 -13.440 -22.374  0.00  0.00    +0.031 C 
ATOM     16  C   UNL     1      33.732 -14.951 -20.473  0.00  0.00    +0.017 C 
ATOM     17  C   UNL     1      35.719 -16.881 -21.917  0.00  0.00    +0.117 C 
ATOM     18  C   UNL     1      32.060 -13.269 -21.002  0.00  0.00    +0.140 C 
ATOM     19  C   UNL     1      32.778 -14.014 -20.068  0.00  0.00    +0.031 C 
ENDBRANCH   4  11
BRANCH   5  20
ATOM     20  C   UNL     1      33.719 -11.856 -25.238  0.00  0.00    +0.006 C 
ATOM     21  C   UNL     1      32.922 -11.259 -24.254  0.00  0.00    +0.014 C 
ATOM     22  C   UNL     1      33.331 -10.075 -23.639  0.00  0.00    +0.045 C 
ATOM     23  C   UNL     1      34.929 -11.254 -25.599  0.00  0.00    +0.000 C 
ATOM     24  C   UNL     1      34.538  -9.481 -24.004  0.00  0.00    +0.014 C 
ATOM     25  C   UNL     1      35.338 -10.070 -24.985  0.00  0.00    +0.001 C 
BRANCH  22  26
ATOM     26  N   UNL     1      32.523  -9.479 -22.649  0.00  0.00    -0.331 N 
ATOM     27  H   UNL     1      31.677  -9.918 -22.405  0.00  0.00    +0.147 HD
BRANCH  26  28
ATOM     28  C   UNL     1      32.878  -8.261 -21.986  0.00  0.00    +0.119 C 
BRANCH  28  29
ATOM     29  C   UNL     1      32.264  -8.193 -20.588  0.00  0.00    +0.159 C 
BRANCH  29  30
ATOM     30  O   UNL     1      33.173  -7.550 -19.694  0.00  0.00    -0.380 OA
ATOM     31  H   UNL     1      33.817  -8.198 -19.365  0.00  0.00    +0.211 HD
ENDBRANCH  29  30
BRANCH  29  32
ATOM     32  C   UNL     1      31.914  -9.562 -20.014  0.00  0.00    +0.168 C 
BRANCH  32  33
ATOM     33  O   UNL     1      32.655  -9.762 -18.814  0.00  0.00    -0.379 OA
ATOM     34  H   UNL     1      33.586  -9.926 -19.031  0.00  0.00    +0.211 HD
ENDBRANCH  32  33
ENDBRANCH  29  32
ENDBRANCH  28  29
ENDBRANCH  26  28
ENDBRANCH  22  26
ENDBRANCH   5  20
TORSDOF 8
ENDMDL
MODEL 7
REMARK VINA RESULT:      -9.0      7.526     13.116
REMARK  Name = 448238
REMARK  8 active torsions:
REMARK  status: ('A' for Active; 'I' for Inactive)
REMARK    1  A    between atoms: C_4  and  C_11
REMARK    2  A    between atoms: C_5  and  C_20
REMARK    3  A    between atoms: C_22  and  N_26
REMARK    4  A    between atoms: N_26  and  C_28
REMARK    5  A    between atoms: C_28  and  C_29
REMARK    6  A    between atoms: C_29  and  O_30
REMARK    7  A    between atoms: C_29  and  C_32
REMARK    8  A    between atoms: C_32  and  O_33
REMARK                            x       y       z     vdW  Elec       q    Type
REMARK                         _______ _______ _______ _____ _____    ______ ____
ROOT
ATOM      1  O   UNL     1      31.457 -11.479 -22.147  0.00  0.00    -0.270 OA
ATOM      2  O   UNL     1      32.500 -15.165 -19.639  0.00  0.00    -0.270 OA
ATOM      3  N   UNL     1      31.764 -13.179 -20.594  0.00  0.00    -0.248 N 
ATOM      4  C   UNL     1      32.778 -13.437 -22.622  0.00  0.00    +0.059 C 
ATOM      5  C   UNL     1      33.085 -14.519 -21.882  0.00  0.00    +0.058 C 
ATOM      6  C   UNL     1      31.915 -12.554 -21.796  0.00  0.00    +0.252 C 
ATOM      7  C   UNL     1      32.435 -14.365 -20.556  0.00  0.00    +0.252 C 
ATOM      8  H   UNL     1      31.234 -12.818 -19.846  0.00  0.00    +0.158 HD
ENDROOT
BRANCH   4  11
ATOM      9  F   UNL     1      35.500  -8.709 -23.863  0.00  0.00    -0.204 F 
ATOM     10  N   UNL     1      33.470 -13.234 -26.147  0.00  0.00    -0.284 N 
ATOM     11  C   UNL     1      33.179 -13.096 -23.951  0.00  0.00    +0.021 C 
ATOM     12  C   UNL     1      33.872 -11.929 -24.382  0.00  0.00    +0.017 C 
ATOM     13  C   UNL     1      34.041 -12.041 -25.764  0.00  0.00    +0.052 C 
ATOM     14  C   UNL     1      32.947 -13.878 -25.058  0.00  0.00    +0.066 C 
ATOM     15  C   UNL     1      34.372 -10.786 -23.728  0.00  0.00    +0.031 C 
ATOM     16  C   UNL     1      34.690 -11.063 -26.527  0.00  0.00    +0.017 C 
ATOM     17  C   UNL     1      33.422 -13.747 -27.499  0.00  0.00    +0.117 C 
ATOM     18  C   UNL     1      35.021  -9.799 -24.478  0.00  0.00    +0.140 C 
ATOM     19  C   UNL     1      35.176  -9.938 -25.856  0.00  0.00    +0.031 C 
ENDBRANCH   4  11
BRANCH   5  20
ATOM     20  C   UNL     1      33.908 -15.670 -22.258  0.00  0.00    +0.006 C 
ATOM     21  C   UNL     1      34.415 -16.527 -21.274  0.00  0.00    +0.014 C 
ATOM     22  C   UNL     1      35.199 -17.624 -21.632  0.00  0.00    +0.045 C 
ATOM     23  C   UNL     1      34.195 -15.924 -23.603  0.00  0.00    +0.000 C 
ATOM     24  C   UNL     1      35.480 -17.871 -22.975  0.00  0.00    +0.014 C 
ATOM     25  C   UNL     1      34.979 -17.021 -23.961  0.00  0.00    +0.001 C 
BRANCH  22  26
ATOM     26  N   UNL     1      35.707 -18.484 -20.636  0.00  0.00    -0.331 N 
ATOM     27  H   UNL     1      35.976 -18.096 -19.772  0.00  0.00    +0.147 HD
BRANCH  26  28
ATOM     28  C   UNL     1      35.851 -19.894 -20.827  0.00  0.00    +0.119 C 
BRANCH  28  29
ATOM     29  C   UNL     1      34.947 -20.677 -19.874  0.00  0.00    +0.159 C 
BRANCH  29  30
ATOM     30  O   UNL     1      35.357 -22.045 -19.836  0.00  0.00    -0.380 OA
ATOM     31  H   UNL     1      36.288 -22.111 -20.104  0.00  0.00    +0.211 HD
ENDBRANCH  29  30
BRANCH  29  32
ATOM     32  C   UNL     1      33.473 -20.629 -20.263  0.00  0.00    +0.168 C 
BRANCH  32  33
ATOM     33  O   UNL     1      32.859 -21.861 -19.898  0.00  0.00    -0.379 OA
ATOM     34  H   UNL     1      31.896 -21.780 -19.980  0.00  0.00    +0.211 HD
ENDBRANCH  32  33
ENDBRANCH  29  32
ENDBRANCH  28  29
ENDBRANCH  26  28
ENDBRANCH  22  26
ENDBRANCH   5  20
TORSDOF 8
ENDMDL
MODEL 8
REMARK VINA RESULT:      -8.4      2.997      6.399
REMARK  Name = 448238
REMARK  8 active torsions:
REMARK  status: ('A' for Active; 'I' for Inactive)
REMARK    1  A    between atoms: C_4  and  C_11
REMARK    2  A    between atoms: C_5  and  C_20
REMARK    3  A    between atoms: C_22  and  N_26
REMARK    4  A    between atoms: N_26  and  C_28
REMARK    5  A    between atoms: C_28  and  C_29
REMARK    6  A    between atoms: C_29  and  O_30
REMARK    7  A    between atoms: C_29  and  C_32
REMARK    8  A    between atoms: C_32  and  O_33
REMARK                            x       y       z     vdW  Elec       q    Type
REMARK                         _______ _______ _______ _____ _____    ______ ____
ROOT
ATOM      1  O   UNL     1      30.517 -22.796 -16.879  0.00  0.00    -0.270 OA
ATOM      2  O   UNL     1      31.416 -25.083 -13.016  0.00  0.00    -0.270 OA
ATOM      3  N   UNL     1      30.579 -23.962 -14.871  0.00  0.00    -0.248 N 
ATOM      4  C   UNL     1      32.582 -23.520 -15.873  0.00  0.00    +0.059 C 
ATOM      5  C   UNL     1      32.844 -24.191 -14.735  0.00  0.00    +0.058 C 
ATOM      6  C   UNL     1      31.109 -23.364 -15.976  0.00  0.00    +0.252 C 
ATOM      7  C   UNL     1      31.550 -24.483 -14.068  0.00  0.00    +0.252 C 
ATOM      8  H   UNL     1      29.615 -24.011 -14.677  0.00  0.00    +0.158 HD
ENDROOT
BRANCH   4  11
ATOM      9  F   UNL     1      37.862 -22.095 -14.692  0.00  0.00    -0.204 F 
ATOM     10  N   UNL     1      34.264 -22.264 -18.794  0.00  0.00    -0.284 N 
ATOM     11  C   UNL     1      33.482 -22.991 -16.848  0.00  0.00    +0.021 C 
ATOM     12  C   UNL     1      34.838 -22.596 -16.664  0.00  0.00    +0.017 C 
ATOM     13  C   UNL     1      35.304 -22.144 -17.900  0.00  0.00    +0.052 C 
ATOM     14  C   UNL     1      33.159 -22.776 -18.168  0.00  0.00    +0.066 C 
ATOM     15  C   UNL     1      35.714 -22.580 -15.561  0.00  0.00    +0.031 C 
ATOM     16  C   UNL     1      36.609 -21.676 -18.090  0.00  0.00    +0.017 C 
ATOM     17  C   UNL     1      34.314 -21.908 -20.196  0.00  0.00    +0.117 C 
ATOM     18  C   UNL     1      37.022 -22.113 -15.735  0.00  0.00    +0.140 C 
ATOM     19  C   UNL     1      37.460 -21.669 -16.981  0.00  0.00    +0.031 C 
ENDBRANCH   4  11
BRANCH   5  20
ATOM     20  C   UNL     1      34.146 -24.588 -14.196  0.00  0.00    +0.006 C 
ATOM     21  C   UNL     1      35.042 -25.322 -14.982  0.00  0.00    +0.014 C 
ATOM     22  C   UNL     1      36.284 -25.699 -14.470  0.00  0.00    +0.045 C 
ATOM     23  C   UNL     1      34.509 -24.235 -12.891  0.00  0.00    +0.000 C 
ATOM     24  C   UNL     1      36.638 -25.344 -13.168  0.00  0.00    +0.014 C 
ATOM     25  C   UNL     1      35.750 -24.612 -12.379  0.00  0.00    +0.001 C 
BRANCH  22  26
ATOM     26  N   UNL     1      37.181 -26.439 -15.267  0.00  0.00    -0.331 N 
ATOM     27  H   UNL     1      36.891 -26.720 -16.164  0.00  0.00    +0.147 HD
BRANCH  26  28
ATOM     28  C   UNL     1      38.493 -26.803 -14.826  0.00  0.00    +0.119 C 
BRANCH  28  29
ATOM     29  C   UNL     1      39.478 -25.648 -15.011  0.00  0.00    +0.159 C 
BRANCH  29  30
ATOM     30  O   UNL     1      40.208 -25.827 -16.225  0.00  0.00    -0.380 OA
ATOM     31  H   UNL     1      39.715 -26.419 -16.815  0.00  0.00    +0.211 HD
ENDBRANCH  29  30
BRANCH  29  32
ATOM     32  C   UNL     1      40.476 -25.517 -13.865  0.00  0.00    +0.168 C 
BRANCH  32  33
ATOM     33  O   UNL     1      41.324 -26.661 -13.859  0.00  0.00    -0.379 OA
ATOM     34  H   UNL     1      40.832 -27.427 -13.523  0.00  0.00    +0.211 HD
ENDBRANCH  32  33
ENDBRANCH  29  32
ENDBRANCH  28  29
ENDBRANCH  26  28
ENDBRANCH  22  26
ENDBRANCH   5  20
TORSDOF 8
ENDMDL
MODEL 9
REMARK VINA RESULT:      -8.1      9.004     13.321
REMARK  Name = 448238
REMARK  8 active torsions:
REMARK  status: ('A' for Active; 'I' for Inactive)
REMARK    1  A    between atoms: C_4  and  C_11
REMARK    2  A    between atoms: C_5  and  C_20
REMARK    3  A    between atoms: C_22  and  N_26
REMARK    4  A    between atoms: N_26  and  C_28
REMARK    5  A    between atoms: C_28  and  C_29
REMARK    6  A    between atoms: C_29  and  O_30
REMARK    7  A    between atoms: C_29  and  C_32
REMARK    8  A    between atoms: C_32  and  O_33
REMARK                            x       y       z     vdW  Elec       q    Type
REMARK                         _______ _______ _______ _____ _____    ______ ____
ROOT
ATOM      1  O   UNL     1      33.472 -16.601 -25.899  0.00  0.00    -0.270 OA
ATOM      2  O   UNL     1      33.220 -12.267 -27.353  0.00  0.00    -0.270 OA
ATOM      3  N   UNL     1      33.346 -14.560 -27.001  0.00  0.00    -0.248 N 
ATOM      4  C   UNL     1      33.360 -14.504 -24.719  0.00  0.00    +0.059 C 
ATOM      5  C   UNL     1      33.288 -13.230 -25.150  0.00  0.00    +0.058 C 
ATOM      6  C   UNL     1      33.397 -15.384 -25.916  0.00  0.00    +0.252 C 
ATOM      7  C   UNL     1      33.282 -13.249 -26.634  0.00  0.00    +0.252 C 
ATOM      8  H   UNL     1      33.354 -14.874 -27.935  0.00  0.00    +0.158 HD
ENDROOT
BRANCH   4  11
ATOM      9  F   UNL     1      36.820 -18.628 -23.198  0.00  0.00    -0.204 F 
ATOM     10  N   UNL     1      32.985 -15.280 -21.226  0.00  0.00    -0.284 N 
ATOM     11  C   UNL     1      33.423 -15.015 -23.386  0.00  0.00    +0.021 C 
ATOM     12  C   UNL     1      34.258 -16.055 -22.887  0.00  0.00    +0.017 C 
ATOM     13  C   UNL     1      33.963 -16.200 -21.530  0.00  0.00    +0.052 C 
ATOM     14  C   UNL     1      32.653 -14.558 -22.342  0.00  0.00    +0.066 C 
ATOM     15  C   UNL     1      35.238 -16.887 -23.462  0.00  0.00    +0.031 C 
ATOM     16  C   UNL     1      34.604 -17.140 -20.715  0.00  0.00    +0.017 C 
ATOM     17  C   UNL     1      32.386 -15.088 -19.923  0.00  0.00    +0.117 C 
ATOM     18  C   UNL     1      35.886 -17.833 -22.660  0.00  0.00    +0.140 C 
ATOM     19  C   UNL     1      35.572 -17.955 -21.307  0.00  0.00    +0.031 C 
ENDBRANCH   4  11
BRANCH   5  20
ATOM     20  C   UNL     1      33.227 -12.005 -24.349  0.00  0.00    +0.006 C 
ATOM     21  C   UNL     1      34.131 -10.962 -24.584  0.00  0.00    +0.014 C 
ATOM     22  C   UNL     1      34.073  -9.795 -23.822  0.00  0.00    +0.045 C 
ATOM     23  C   UNL     1      32.265 -11.866 -23.343  0.00  0.00    +0.000 C 
ATOM     24  C   UNL     1      33.111  -9.663 -22.821  0.00  0.00    +0.014 C 
ATOM     25  C   UNL     1      32.207 -10.699 -22.581  0.00  0.00    +0.001 C 
BRANCH  22  26
ATOM     26  N   UNL     1      34.987  -8.749 -24.063  0.00  0.00    -0.331 N 
ATOM     27  H   UNL     1      35.875  -8.974 -24.424  0.00  0.00    +0.147 HD
BRANCH  26  28
ATOM     28  C   UNL     1      34.682  -7.376 -23.803  0.00  0.00    +0.119 C 
BRANCH  28  29
ATOM     29  C   UNL     1      33.878  -6.761 -24.949  0.00  0.00    +0.159 C 
BRANCH  29  30
ATOM     30  O   UNL     1      34.722  -5.913 -25.729  0.00  0.00    -0.380 OA
ATOM     31  H   UNL     1      34.176  -5.325 -26.275  0.00  0.00    +0.211 HD
ENDBRANCH  29  30
BRANCH  29  32
ATOM     32  C   UNL     1      32.681  -5.943 -24.477  0.00  0.00    +0.168 C 
BRANCH  32  33
ATOM     33  O   UNL     1      31.603  -6.828 -24.189  0.00  0.00    -0.379 OA
ATOM     34  H   UNL     1      31.884  -7.743 -24.347  0.00  0.00    +0.211 HD
ENDBRANCH  32  33
ENDBRANCH  29  32
ENDBRANCH  28  29
ENDBRANCH  26  28
ENDBRANCH  22  26
ENDBRANCH   5  20
TORSDOF 8
ENDMDL
