MODEL 1
REMARK VINA RESULT:     -10.2      0.000      0.000
REMARK  Name = 34312
REMARK  0 active torsions:
REMARK  status: ('A' for Active; 'I' for Inactive)
REMARK                            x       y       z     vdW  Elec       q    Type
REMARK                         _______ _______ _______ _____ _____    ______ ____
ROOT
ATOM      1  O   UNL     1      35.256  -9.687 -24.784  0.00  0.00    -0.291 OA
ATOM      2  O   UNL     1      32.131  -8.145 -19.718  0.00  0.00    -0.252 OA
ATOM      3  N   UNL     1      32.458  -7.838 -22.029  0.00  0.00    -0.222 N 
ATOM      4  N   UNL     1      32.181  -6.030 -20.521  0.00  0.00    -0.313 N 
ATOM      5  C   UNL     1      33.501  -6.835 -24.012  0.00  0.00    -0.000 C 
ATOM      6  C   UNL     1      32.406  -6.954 -23.149  0.00  0.00    +0.056 C 
ATOM      7  C   UNL     1      34.740  -7.625 -23.740  0.00  0.00    +0.097 C 
ATOM      8  C   UNL     1      32.525  -9.243 -22.359  0.00  0.00    +0.062 C 
ATOM      9  C   UNL     1      33.409  -9.813 -23.304  0.00  0.00    +0.049 C 
ATOM     10  C   UNL     1      34.513  -9.085 -24.009  0.00  0.00    +0.179 C 
ATOM     11  C   UNL     1      33.424  -5.970 -25.111  0.00  0.00    -0.003 C 
ATOM     12  C   UNL     1      31.248  -6.195 -23.388  0.00  0.00    +0.015 C 
ATOM     13  C   UNL     1      31.596 -10.104 -21.729  0.00  0.00    +0.015 C 
ATOM     14  C   UNL     1      33.335 -11.195 -23.582  0.00  0.00    +0.004 C 
ATOM     15  C   UNL     1      32.220  -7.404 -20.701  0.00  0.00    +0.308 C 
ATOM     16  C   UNL     1      32.271  -5.222 -25.345  0.00  0.00    -0.000 C 
ATOM     17  C   UNL     1      31.184  -5.333 -24.483  0.00  0.00    +0.001 C 
ATOM     18  C   UNL     1      31.540 -11.470 -22.012  0.00  0.00    +0.001 C 
ATOM     19  C   UNL     1      32.409 -12.015 -22.941  0.00  0.00    +0.000 C 
ATOM     20  H   UNL     1      32.019  -5.656 -19.625  0.00  0.00    +0.147 HD
ATOM     21  H   UNL     1      32.314  -5.429 -21.289  0.00  0.00    +0.147 HD
ENDROOT
TORSDOF 0
ENDMDL
MODEL 2
REMARK VINA RESULT:      -9.9      4.046      6.914
REMARK  Name = 34312
REMARK  0 active torsions:
REMARK  status: ('A' for Active; 'I' for Inactive)
REMARK                            x       y       z     vdW  Elec       q    Type
REMARK                         _______ _______ _______ _____ _____    ______ ____
ROOT
ATOM      1  O   UNL     1      33.924 -13.429 -27.869  0.00  0.00    -0.291 OA
ATOM      2  O   UNL     1      32.033 -11.106 -22.499  0.00  0.00    -0.252 OA
ATOM      3  N   UNL     1      33.247 -12.775 -23.632  0.00  0.00    -0.222 N 
ATOM      4  N   UNL     1      31.769 -13.255 -21.842  0.00  0.00    -0.313 N 
ATOM      5  C   UNL     1      33.523 -14.917 -24.797  0.00  0.00    -0.000 C 
ATOM      6  C   UNL     1      33.707 -14.126 -23.658  0.00  0.00    +0.056 C 
ATOM      7  C   UNL     1      32.820 -14.344 -25.985  0.00  0.00    +0.097 C 
ATOM      8  C   UNL     1      33.932 -11.876 -24.533  0.00  0.00    +0.062 C 
ATOM      9  C   UNL     1      34.190 -12.138 -25.898  0.00  0.00    +0.049 C 
ATOM     10  C   UNL     1      33.675 -13.316 -26.669  0.00  0.00    +0.179 C 
ATOM     11  C   UNL     1      33.992 -16.238 -24.806  0.00  0.00    -0.003 C 
ATOM     12  C   UNL     1      34.346 -14.670 -22.532  0.00  0.00    +0.015 C 
ATOM     13  C   UNL     1      34.430 -10.668 -23.993  0.00  0.00    +0.015 C 
ATOM     14  C   UNL     1      34.923 -11.203 -26.660  0.00  0.00    +0.004 C 
ATOM     15  C   UNL     1      32.360 -12.288 -22.639  0.00  0.00    +0.308 C 
ATOM     16  C   UNL     1      34.629 -16.770 -23.686  0.00  0.00    -0.000 C 
ATOM     17  C   UNL     1      34.805 -15.987 -22.548  0.00  0.00    +0.001 C 
ATOM     18  C   UNL     1      35.149  -9.752 -24.762  0.00  0.00    +0.001 C 
ATOM     19  C   UNL     1      35.398 -10.021 -26.096  0.00  0.00    +0.000 C 
ATOM     20  H   UNL     1      31.143 -12.991 -21.130  0.00  0.00    +0.147 HD
ATOM     21  H   UNL     1      31.976 -14.207 -21.987  0.00  0.00    +0.147 HD
ENDROOT
TORSDOF 0
ENDMDL
MODEL 3
REMARK VINA RESULT:      -9.7      4.230      6.550
REMARK  Name = 34312
REMARK  0 active torsions:
REMARK  status: ('A' for Active; 'I' for Inactive)
REMARK                            x       y       z     vdW  Elec       q    Type
REMARK                         _______ _______ _______ _____ _____    ______ ____
ROOT
ATOM      1  O   UNL     1      32.388 -13.501 -20.503  0.00  0.00    -0.291 OA
ATOM      2  O   UNL     1      33.018 -15.626 -26.239  0.00  0.00    -0.252 OA
ATOM      3  N   UNL     1      33.437 -13.898 -24.696  0.00  0.00    -0.222 N 
ATOM      4  N   UNL     1      32.666 -13.492 -26.900  0.00  0.00    -0.313 N 
ATOM      5  C   UNL     1      32.909 -11.840 -23.466  0.00  0.00    -0.000 C 
ATOM      6  C   UNL     1      33.626 -12.501 -24.469  0.00  0.00    +0.056 C 
ATOM      7  C   UNL     1      31.921 -12.604 -22.644  0.00  0.00    +0.097 C 
ATOM      8  C   UNL     1      33.879 -14.759 -23.623  0.00  0.00    +0.062 C 
ATOM      9  C   UNL     1      33.569 -14.575 -22.255  0.00  0.00    +0.049 C 
ATOM     10  C   UNL     1      32.621 -13.550 -21.711  0.00  0.00    +0.179 C 
ATOM     11  C   UNL     1      33.117 -10.472 -23.254  0.00  0.00    -0.003 C 
ATOM     12  C   UNL     1      34.537 -11.781 -25.259  0.00  0.00    +0.015 C 
ATOM     13  C   UNL     1      34.733 -15.835 -23.961  0.00  0.00    +0.015 C 
ATOM     14  C   UNL     1      34.113 -15.453 -21.294  0.00  0.00    +0.004 C 
ATOM     15  C   UNL     1      33.072 -14.425 -25.960  0.00  0.00    +0.308 C 
ATOM     16  C   UNL     1      34.025  -9.763 -24.039  0.00  0.00    -0.000 C 
ATOM     17  C   UNL     1      34.734 -10.417 -25.043  0.00  0.00    +0.001 C 
ATOM     18  C   UNL     1      35.257 -16.697 -22.998  0.00  0.00    +0.001 C 
ATOM     19  C   UNL     1      34.949 -16.505 -21.662  0.00  0.00    +0.000 C 
ATOM     20  H   UNL     1      32.399 -13.785 -27.801  0.00  0.00    +0.147 HD
ATOM     21  H   UNL     1      32.646 -12.535 -26.668  0.00  0.00    +0.147 HD
ENDROOT
TORSDOF 0
ENDMDL
MODEL 4
REMARK VINA RESULT:      -9.1      3.548      5.961
REMARK  Name = 34312
REMARK  0 active torsions:
REMARK  status: ('A' for Active; 'I' for Inactive)
REMARK                            x       y       z     vdW  Elec       q    Type
REMARK                         _______ _______ _______ _____ _____    ______ ____
ROOT
ATOM      1  O   UNL     1      32.759 -14.671 -21.167  0.00  0.00    -0.291 OA
ATOM      2  O   UNL     1      34.698  -9.406 -23.683  0.00  0.00    -0.252 OA
ATOM      3  N   UNL     1      33.737 -11.532 -24.000  0.00  0.00    -0.222 N 
ATOM      4  N   UNL     1      35.465 -10.685 -25.385  0.00  0.00    -0.313 N 
ATOM      5  C   UNL     1      33.782 -13.958 -24.370  0.00  0.00    -0.000 C 
ATOM      6  C   UNL     1      33.564 -12.664 -24.853  0.00  0.00    +0.056 C 
ATOM      7  C   UNL     1      34.222 -14.150 -22.954  0.00  0.00    +0.097 C 
ATOM      8  C   UNL     1      32.791 -11.432 -22.913  0.00  0.00    +0.062 C 
ATOM      9  C   UNL     1      32.447 -12.489 -22.038  0.00  0.00    +0.049 C 
ATOM     10  C   UNL     1      33.107 -13.834 -22.000  0.00  0.00    +0.179 C 
ATOM     11  C   UNL     1      33.596 -15.055 -25.221  0.00  0.00    -0.003 C 
ATOM     12  C   UNL     1      33.173 -12.479 -26.190  0.00  0.00    +0.015 C 
ATOM     13  C   UNL     1      32.116 -10.200 -22.748  0.00  0.00    +0.015 C 
ATOM     14  C   UNL     1      31.461 -12.281 -21.050  0.00  0.00    +0.004 C 
ATOM     15  C   UNL     1      34.606 -10.459 -24.321  0.00  0.00    +0.308 C 
ATOM     16  C   UNL     1      33.205 -14.866 -26.545  0.00  0.00    -0.000 C 
ATOM     17  C   UNL     1      32.995 -13.578 -27.030  0.00  0.00    +0.001 C 
ATOM     18  C   UNL     1      31.147 -10.011 -21.762  0.00  0.00    +0.001 C 
ATOM     19  C   UNL     1      30.817 -11.053 -20.913  0.00  0.00    +0.000 C 
ATOM     20  H   UNL     1      36.096  -9.984 -25.665  0.00  0.00    +0.147 HD
ATOM     21  H   UNL     1      35.442 -11.546 -25.862  0.00  0.00    +0.147 HD
ENDROOT
TORSDOF 0
ENDMDL
MODEL 5
REMARK VINA RESULT:      -8.2      1.516      5.358
REMARK  Name = 34312
REMARK  0 active torsions:
REMARK  status: ('A' for Active; 'I' for Inactive)
REMARK                            x       y       z     vdW  Elec       q    Type
REMARK                         _______ _______ _______ _____ _____    ______ ____
ROOT
ATOM      1  O   UNL     1      31.906  -5.877 -19.816  0.00  0.00    -0.291 OA
ATOM      2  O   UNL     1      34.576  -8.271 -24.812  0.00  0.00    -0.252 OA
ATOM      3  N   UNL     1      33.001  -8.521 -23.080  0.00  0.00    -0.222 N 
ATOM      4  N   UNL     1      34.496 -10.247 -23.715  0.00  0.00    -0.313 N 
ATOM      5  C   UNL     1      32.258  -9.144 -20.825  0.00  0.00    -0.000 C 
ATOM      6  C   UNL     1      32.305  -9.403 -22.199  0.00  0.00    +0.056 C 
ATOM      7  C   UNL     1      32.964  -7.945 -20.278  0.00  0.00    +0.097 C 
ATOM      8  C   UNL     1      32.425  -7.202 -23.210  0.00  0.00    +0.062 C 
ATOM      9  C   UNL     1      32.023  -6.383 -22.129  0.00  0.00    +0.049 C 
ATOM     10  C   UNL     1      32.259  -6.681 -20.679  0.00  0.00    +0.179 C 
ATOM     11  C   UNL     1      31.561 -10.017 -19.979  0.00  0.00    -0.003 C 
ATOM     12  C   UNL     1      31.662 -10.542 -22.712  0.00  0.00    +0.015 C 
ATOM     13  C   UNL     1      32.193  -6.719 -24.518  0.00  0.00    +0.015 C 
ATOM     14  C   UNL     1      31.416  -5.136 -22.389  0.00  0.00    +0.004 C 
ATOM     15  C   UNL     1      34.031  -8.963 -23.947  0.00  0.00    +0.308 C 
ATOM     16  C   UNL     1      30.922 -11.144 -20.496  0.00  0.00    -0.000 C 
ATOM     17  C   UNL     1      30.974 -11.407 -21.862  0.00  0.00    +0.001 C 
ATOM     18  C   UNL     1      31.596  -5.481 -24.757  0.00  0.00    +0.001 C 
ATOM     19  C   UNL     1      31.205  -4.689 -23.691  0.00  0.00    +0.000 C 
ATOM     20  H   UNL     1      35.210 -10.622 -24.278  0.00  0.00    +0.147 HD
ATOM     21  H   UNL     1      34.111 -10.786 -22.986  0.00  0.00    +0.147 HD
ENDROOT
TORSDOF 0
ENDMDL
MODEL 6
REMARK VINA RESULT:      -8.0     16.179     18.480
REMARK  Name = 34312
REMARK  0 active torsions:
REMARK  status: ('A' for Active; 'I' for Inactive)
REMARK                            x       y       z     vdW  Elec       q    Type
REMARK                         _______ _______ _______ _____ _____    ______ ____
ROOT
ATOM      1  O   UNL     1      32.948 -23.526 -12.593  0.00  0.00    -0.291 OA
ATOM      2  O   UNL     1      36.648 -21.773 -17.181  0.00  0.00    -0.252 OA
ATOM      3  N   UNL     1      36.034 -23.448 -15.644  0.00  0.00    -0.222 N 
ATOM      4  N   UNL     1      38.290 -22.850 -16.058  0.00  0.00    -0.313 N 
ATOM      5  C   UNL     1      36.088 -24.606 -13.481  0.00  0.00    -0.000 C 
ATOM      6  C   UNL     1      36.441 -24.550 -14.833  0.00  0.00    +0.056 C 
ATOM      7  C   UNL     1      35.298 -23.487 -12.880  0.00  0.00    +0.097 C 
ATOM      8  C   UNL     1      34.611 -23.344 -15.871  0.00  0.00    +0.062 C 
ATOM      9  C   UNL     1      33.621 -23.430 -14.864  0.00  0.00    +0.049 C 
ATOM     10  C   UNL     1      33.886 -23.496 -13.390  0.00  0.00    +0.179 C 
ATOM     11  C   UNL     1      36.488 -25.702 -12.706  0.00  0.00    -0.003 C 
ATOM     12  C   UNL     1      37.203 -25.588 -15.395  0.00  0.00    +0.015 C 
ATOM     13  C   UNL     1      34.173 -23.203 -17.208  0.00  0.00    +0.015 C 
ATOM     14  C   UNL     1      32.257 -23.374 -15.222  0.00  0.00    +0.004 C 
ATOM     15  C   UNL     1      36.955 -22.654 -16.372  0.00  0.00    +0.308 C 
ATOM     16  C   UNL     1      37.242 -26.731 -13.269  0.00  0.00    -0.000 C 
ATOM     17  C   UNL     1      37.600 -26.673 -14.613  0.00  0.00    +0.001 C 
ATOM     18  C   UNL     1      32.820 -23.144 -17.544  0.00  0.00    +0.001 C 
ATOM     19  C   UNL     1      31.861 -23.232 -16.549  0.00  0.00    +0.000 C 
ATOM     20  H   UNL     1      38.987 -22.335 -16.524  0.00  0.00    +0.147 HD
ATOM     21  H   UNL     1      38.543 -23.507 -15.369  0.00  0.00    +0.147 HD
ENDROOT
TORSDOF 0
ENDMDL
MODEL 7
REMARK VINA RESULT:      -7.9      2.132      4.462
REMARK  Name = 34312
REMARK  0 active torsions:
REMARK  status: ('A' for Active; 'I' for Inactive)
REMARK                            x       y       z     vdW  Elec       q    Type
REMARK                         _______ _______ _______ _____ _____    ______ ____
ROOT
ATOM      1  O   UNL     1      32.299 -13.014 -23.408  0.00  0.00    -0.291 OA
ATOM      2  O   UNL     1      31.911  -6.939 -24.275  0.00  0.00    -0.252 OA
ATOM      3  N   UNL     1      32.209  -8.722 -22.768  0.00  0.00    -0.222 N 
ATOM      4  N   UNL     1      30.770  -6.891 -22.323  0.00  0.00    -0.313 N 
ATOM      5  C   UNL     1      31.456 -10.487 -21.237  0.00  0.00    -0.000 C 
ATOM      6  C   UNL     1      32.029  -9.227 -21.444  0.00  0.00    +0.056 C 
ATOM      7  C   UNL     1      31.010 -11.295 -22.413  0.00  0.00    +0.097 C 
ATOM      8  C   UNL     1      33.168  -9.442 -23.575  0.00  0.00    +0.062 C 
ATOM      9  C   UNL     1      33.210 -10.848 -23.721  0.00  0.00    +0.049 C 
ATOM     10  C   UNL     1      32.191 -11.808 -23.187  0.00  0.00    +0.179 C 
ATOM     11  C   UNL     1      31.298 -10.968 -19.931  0.00  0.00    -0.003 C 
ATOM     12  C   UNL     1      32.427  -8.456 -20.340  0.00  0.00    +0.015 C 
ATOM     13  C   UNL     1      34.173  -8.686 -24.220  0.00  0.00    +0.015 C 
ATOM     14  C   UNL     1      34.236 -11.436 -24.492  0.00  0.00    +0.004 C 
ATOM     15  C   UNL     1      31.680  -7.476 -23.188  0.00  0.00    +0.308 C 
ATOM     16  C   UNL     1      31.698 -10.199 -18.839  0.00  0.00    -0.000 C 
ATOM     17  C   UNL     1      32.261  -8.942 -19.044  0.00  0.00    +0.001 C 
ATOM     18  C   UNL     1      35.177  -9.284 -24.983  0.00  0.00    +0.001 C 
ATOM     19  C   UNL     1      35.210 -10.661 -25.117  0.00  0.00    +0.000 C 
ATOM     20  H   UNL     1      30.363  -6.025 -22.548  0.00  0.00    +0.147 HD
ATOM     21  H   UNL     1      30.532  -7.343 -21.480  0.00  0.00    +0.147 HD
ENDROOT
TORSDOF 0
ENDMDL
MODEL 8
REMARK VINA RESULT:      -7.9     15.374     17.571
REMARK  Name = 34312
REMARK  0 active torsions:
REMARK  status: ('A' for Active; 'I' for Inactive)
REMARK                            x       y       z     vdW  Elec       q    Type
REMARK                         _______ _______ _______ _____ _____    ______ ____
ROOT
ATOM      1  O   UNL     1      39.043 -22.894 -16.056  0.00  0.00    -0.291 OA
ATOM      2  O   UNL     1      33.883 -24.160 -12.960  0.00  0.00    -0.252 OA
ATOM      3  N   UNL     1      34.910 -23.745 -15.037  0.00  0.00    -0.222 N 
ATOM      4  N   UNL     1      32.860 -22.742 -14.395  0.00  0.00    -0.313 N 
ATOM      5  C   UNL     1      35.749 -22.328 -16.858  0.00  0.00    -0.000 C 
ATOM      6  C   UNL     1      34.792 -23.219 -16.359  0.00  0.00    +0.056 C 
ATOM      7  C   UNL     1      36.890 -21.911 -15.986  0.00  0.00    +0.097 C 
ATOM      8  C   UNL     1      36.037 -24.624 -14.825  0.00  0.00    +0.062 C 
ATOM      9  C   UNL     1      37.367 -24.347 -15.219  0.00  0.00    +0.049 C 
ATOM     10  C   UNL     1      37.852 -23.046 -15.785  0.00  0.00    +0.179 C 
ATOM     11  C   UNL     1      35.619 -21.832 -18.161  0.00  0.00    -0.003 C 
ATOM     12  C   UNL     1      33.706 -23.594 -17.167  0.00  0.00    +0.015 C 
ATOM     13  C   UNL     1      35.780 -25.881 -14.230  0.00  0.00    +0.015 C 
ATOM     14  C   UNL     1      38.372 -25.316 -15.009  0.00  0.00    +0.004 C 
ATOM     15  C   UNL     1      33.882 -23.619 -14.069  0.00  0.00    +0.308 C 
ATOM     16  C   UNL     1      34.541 -22.211 -18.960  0.00  0.00    -0.000 C 
ATOM     17  C   UNL     1      33.583 -23.091 -18.462  0.00  0.00    +0.001 C 
ATOM     18  C   UNL     1      36.786 -26.825 -14.025  0.00  0.00    +0.001 C 
ATOM     19  C   UNL     1      38.083 -26.543 -14.417  0.00  0.00    +0.000 C 
ATOM     20  H   UNL     1      32.112 -22.605 -13.772  0.00  0.00    +0.147 HD
ATOM     21  H   UNL     1      32.882 -22.258 -15.253  0.00  0.00    +0.147 HD
ENDROOT
TORSDOF 0
ENDMDL
MODEL 9
REMARK VINA RESULT:      -7.6      8.630     11.310
REMARK  Name = 34312
REMARK  0 active torsions:
REMARK  status: ('A' for Active; 'I' for Inactive)
REMARK                            x       y       z     vdW  Elec       q    Type
REMARK                         _______ _______ _______ _____ _____    ______ ____
ROOT
ATOM      1  O   UNL     1      32.187 -20.640 -19.578  0.00  0.00    -0.291 OA
ATOM      2  O   UNL     1      36.556 -19.007 -23.586  0.00  0.00    -0.252 OA
ATOM      3  N   UNL     1      35.071 -18.354 -21.879  0.00  0.00    -0.222 N 
ATOM      4  N   UNL     1      35.360 -17.110 -23.877  0.00  0.00    -0.313 N 
ATOM      5  C   UNL     1      32.920 -17.588 -20.979  0.00  0.00    -0.000 C 
ATOM      6  C   UNL     1      34.252 -17.327 -21.320  0.00  0.00    +0.056 C 
ATOM      7  C   UNL     1      32.350 -18.947 -21.226  0.00  0.00    +0.097 C 
ATOM      8  C   UNL     1      35.371 -19.453 -20.991  0.00  0.00    +0.062 C 
ATOM      9  C   UNL     1      34.419 -20.145 -20.207  0.00  0.00    +0.049 C 
ATOM     10  C   UNL     1      32.934 -19.953 -20.276  0.00  0.00    +0.179 C 
ATOM     11  C   UNL     1      32.137 -16.569 -20.421  0.00  0.00    -0.003 C 
ATOM     12  C   UNL     1      34.783 -16.044 -21.110  0.00  0.00    +0.015 C 
ATOM     13  C   UNL     1      36.728 -19.827 -20.853  0.00  0.00    +0.015 C 
ATOM     14  C   UNL     1      34.847 -21.165 -19.331  0.00  0.00    +0.004 C 
ATOM     15  C   UNL     1      35.742 -18.206 -23.119  0.00  0.00    +0.308 C 
ATOM     16  C   UNL     1      32.671 -15.298 -20.212  0.00  0.00    -0.000 C 
ATOM     17  C   UNL     1      33.994 -15.036 -20.558  0.00  0.00    +0.001 C 
ATOM     18  C   UNL     1      37.134 -20.841 -19.985  0.00  0.00    +0.001 C 
ATOM     19  C   UNL     1      36.192 -21.509 -19.221  0.00  0.00    +0.000 C 
ATOM     20  H   UNL     1      35.783 -16.942 -24.749  0.00  0.00    +0.147 HD
ATOM     21  H   UNL     1      34.665 -16.497 -23.541  0.00  0.00    +0.147 HD
ENDROOT
TORSDOF 0
ENDMDL
