MODEL 1
REMARK VINA RESULT:      -7.3      0.000      0.000
REMARK  Name = 1676
REMARK  2 active torsions:
REMARK  status: ('A' for Active; 'I' for Inactive)
REMARK    1  A    between atoms: N_3  and  C_15
REMARK    2  A    between atoms: C_15  and  C_16
REMARK                            x       y       z     vdW  Elec       q    Type
REMARK                         _______ _______ _______ _____ _____    ______ ____
ROOT
ATOM      1  O   UNL     1      34.945 -19.759 -24.284  0.00  0.00    -0.246 OA
ATOM      2  O   UNL     1      33.890 -15.716 -26.264  0.00  0.00    -0.266 OA
ATOM      3  N   UNL     1      34.859 -17.887 -22.884  0.00  0.00    -0.269 N 
ATOM      4  N   UNL     1      34.421 -17.729 -25.237  0.00  0.00    -0.273 N 
ATOM      5  N   UNL     1      34.157 -14.506 -23.505  0.00  0.00    -0.310 N 
ATOM      6  N   UNL     1      34.683 -15.726 -21.711  0.00  0.00    -0.302 N 
ATOM      7  C   UNL     1      34.628 -16.515 -22.828  0.00  0.00    +0.132 A 
ATOM      8  C   UNL     1      34.305 -15.789 -23.945  0.00  0.00    +0.133 A 
ATOM      9  C   UNL     1      34.758 -18.549 -24.131  0.00  0.00    +0.331 A 
ATOM     10  C   UNL     1      34.177 -16.348 -25.251  0.00  0.00    +0.277 A 
ATOM     11  C   UNL     1      34.395 -14.519 -22.154  0.00  0.00    +0.183 C 
ATOM     12  H   UNL     1      34.350 -18.187 -26.106  0.00  0.00    +0.173 HD
ATOM     13  H   UNL     1      33.924 -13.721 -24.053  0.00  0.00    +0.149 HD
ATOM     14  H   UNL     1      34.892 -15.997 -20.788  0.00  0.00    +0.150 HD
ENDROOT
BRANCH   3  15
ATOM     15  C   UNL     1      35.200 -18.624 -21.675  0.00  0.00    +0.112 C 
BRANCH  15  16
ATOM     16  C   UNL     1      33.976 -19.235 -21.004  0.00  0.00    +0.025 C 
ATOM     17  C   UNL     1      34.293 -20.531 -20.270  0.00  0.00    +0.002 C 
ENDBRANCH  15  16
ENDBRANCH   3  15
TORSDOF 2
ENDMDL
MODEL 2
REMARK VINA RESULT:      -7.2      2.251      4.648
REMARK  Name = 1676
REMARK  2 active torsions:
REMARK  status: ('A' for Active; 'I' for Inactive)
REMARK    1  A    between atoms: N_3  and  C_15
REMARK    2  A    between atoms: C_15  and  C_16
REMARK                            x       y       z     vdW  Elec       q    Type
REMARK                         _______ _______ _______ _____ _____    ______ ____
ROOT
ATOM      1  O   UNL     1      34.864 -15.380 -20.101  0.00  0.00    -0.246 OA
ATOM      2  O   UNL     1      35.461 -19.787 -21.368  0.00  0.00    -0.266 OA
ATOM      3  N   UNL     1      34.598 -15.872 -22.372  0.00  0.00    -0.269 N 
ATOM      4  N   UNL     1      35.152 -17.566 -20.766  0.00  0.00    -0.273 N 
ATOM      5  N   UNL     1      34.856 -18.866 -24.184  0.00  0.00    -0.310 N 
ATOM      6  N   UNL     1      34.396 -16.737 -24.672  0.00  0.00    -0.302 N 
ATOM      7  C   UNL     1      34.630 -16.881 -23.332  0.00  0.00    +0.132 A 
ATOM      8  C   UNL     1      34.915 -18.181 -23.005  0.00  0.00    +0.133 A 
ATOM      9  C   UNL     1      34.867 -16.201 -21.022  0.00  0.00    +0.331 A 
ATOM     10  C   UNL     1      35.203 -18.628 -21.681  0.00  0.00    +0.277 A 
ATOM     11  C   UNL     1      34.540 -17.952 -25.158  0.00  0.00    +0.183 C 
ATOM     12  H   UNL     1      35.340 -17.797 -19.828  0.00  0.00    +0.173 HD
ATOM     13  H   UNL     1      35.010 -19.830 -24.311  0.00  0.00    +0.149 HD
ATOM     14  H   UNL     1      34.171 -15.913 -25.162  0.00  0.00    +0.150 HD
ENDROOT
BRANCH   3  15
ATOM     15  C   UNL     1      34.292 -14.502 -22.758  0.00  0.00    +0.112 C 
BRANCH  15  16
ATOM     16  C   UNL     1      32.794 -14.223 -22.767  0.00  0.00    +0.025 C 
ATOM     17  C   UNL     1      32.349 -13.360 -21.593  0.00  0.00    +0.002 C 
ENDBRANCH  15  16
ENDBRANCH   3  15
TORSDOF 2
ENDMDL
MODEL 3
REMARK VINA RESULT:      -7.2      2.009      2.997
REMARK  Name = 1676
REMARK  2 active torsions:
REMARK  status: ('A' for Active; 'I' for Inactive)
REMARK    1  A    between atoms: N_3  and  C_15
REMARK    2  A    between atoms: C_15  and  C_16
REMARK                            x       y       z     vdW  Elec       q    Type
REMARK                         _______ _______ _______ _____ _____    ______ ____
ROOT
ATOM      1  O   UNL     1      34.943 -16.024 -19.904  0.00  0.00    -0.246 OA
ATOM      2  O   UNL     1      34.107 -13.657 -23.787  0.00  0.00    -0.266 OA
ATOM      3  N   UNL     1      34.883 -17.249 -21.895  0.00  0.00    -0.269 N 
ATOM      4  N   UNL     1      34.530 -14.876 -21.857  0.00  0.00    -0.273 N 
ATOM      5  N   UNL     1      34.328 -16.306 -25.230  0.00  0.00    -0.310 N 
ATOM      6  N   UNL     1      34.750 -18.218 -24.158  0.00  0.00    -0.302 N 
ATOM      7  C   UNL     1      34.702 -17.175 -23.275  0.00  0.00    +0.132 A 
ATOM      8  C   UNL     1      34.445 -15.986 -23.908  0.00  0.00    +0.133 A 
ATOM      9  C   UNL     1      34.799 -16.062 -21.129  0.00  0.00    +0.331 A 
ATOM     10  C   UNL     1      34.337 -14.731 -23.239  0.00  0.00    +0.277 A 
ATOM     11  C   UNL     1      34.521 -17.661 -25.330  0.00  0.00    +0.183 C 
ATOM     12  H   UNL     1      34.471 -14.049 -21.326  0.00  0.00    +0.173 HD
ATOM     13  H   UNL     1      34.143 -15.683 -25.969  0.00  0.00    +0.149 HD
ATOM     14  H   UNL     1      34.917 -19.169 -23.964  0.00  0.00    +0.150 HD
ENDROOT
BRANCH   3  15
ATOM     15  C   UNL     1      35.154 -18.530 -21.259  0.00  0.00    +0.112 C 
BRANCH  15  16
ATOM     16  C   UNL     1      33.881 -19.315 -20.971  0.00  0.00    +0.025 C 
ATOM     17  C   UNL     1      34.141 -20.584 -20.169  0.00  0.00    +0.002 C 
ENDBRANCH  15  16
ENDBRANCH   3  15
TORSDOF 2
ENDMDL
MODEL 4
REMARK VINA RESULT:      -7.1      1.541      1.936
REMARK  Name = 1676
REMARK  2 active torsions:
REMARK  status: ('A' for Active; 'I' for Inactive)
REMARK    1  A    between atoms: N_3  and  C_15
REMARK    2  A    between atoms: C_15  and  C_16
REMARK                            x       y       z     vdW  Elec       q    Type
REMARK                         _______ _______ _______ _____ _____    ______ ____
ROOT
ATOM      1  O   UNL     1      34.729 -17.431 -25.822  0.00  0.00    -0.246 OA
ATOM      2  O   UNL     1      32.806 -13.513 -24.296  0.00  0.00    -0.266 OA
ATOM      3  N   UNL     1      34.909 -16.988 -23.532  0.00  0.00    -0.269 N 
ATOM      4  N   UNL     1      33.780 -15.488 -25.027  0.00  0.00    -0.273 N 
ATOM      5  N   UNL     1      33.779 -14.322 -21.549  0.00  0.00    -0.310 N 
ATOM      6  N   UNL     1      34.912 -16.212 -21.192  0.00  0.00    -0.302 N 
ATOM      7  C   UNL     1      34.593 -16.088 -22.517  0.00  0.00    +0.132 A 
ATOM      8  C   UNL     1      33.895 -14.934 -22.764  0.00  0.00    +0.133 A 
ATOM      9  C   UNL     1      34.497 -16.700 -24.856  0.00  0.00    +0.331 A 
ATOM     10  C   UNL     1      33.431 -14.541 -24.054  0.00  0.00    +0.277 A 
ATOM     11  C   UNL     1      34.408 -15.130 -20.635  0.00  0.00    +0.183 C 
ATOM     12  H   UNL     1      33.493 -15.286 -25.947  0.00  0.00    +0.173 HD
ATOM     13  H   UNL     1      33.331 -13.465 -21.365  0.00  0.00    +0.149 HD
ATOM     14  H   UNL     1      35.407 -16.942 -20.754  0.00  0.00    +0.150 HD
ENDROOT
BRANCH   3  15
ATOM     15  C   UNL     1      35.652 -18.202 -23.232  0.00  0.00    +0.112 C 
BRANCH  15  16
ATOM     16  C   UNL     1      34.740 -19.361 -22.847  0.00  0.00    +0.025 C 
ATOM     17  C   UNL     1      34.847 -19.729 -21.373  0.00  0.00    +0.002 C 
ENDBRANCH  15  16
ENDBRANCH   3  15
TORSDOF 2
ENDMDL
MODEL 5
REMARK VINA RESULT:      -7.0      1.744      3.890
REMARK  Name = 1676
REMARK  2 active torsions:
REMARK  status: ('A' for Active; 'I' for Inactive)
REMARK    1  A    between atoms: N_3  and  C_15
REMARK    2  A    between atoms: C_15  and  C_16
REMARK                            x       y       z     vdW  Elec       q    Type
REMARK                         _______ _______ _______ _____ _____    ______ ____
ROOT
ATOM      1  O   UNL     1      33.861 -13.861 -23.697  0.00  0.00    -0.246 OA
ATOM      2  O   UNL     1      34.701 -18.011 -25.555  0.00  0.00    -0.266 OA
ATOM      3  N   UNL     1      34.461 -15.576 -22.224  0.00  0.00    -0.269 N 
ATOM      4  N   UNL     1      34.288 -15.941 -24.589  0.00  0.00    -0.273 N 
ATOM      5  N   UNL     1      35.257 -18.956 -22.736  0.00  0.00    -0.310 N 
ATOM      6  N   UNL     1      35.113 -17.597 -20.971  0.00  0.00    -0.302 N 
ATOM      7  C   UNL     1      34.812 -16.920 -22.121  0.00  0.00    +0.132 A 
ATOM      8  C   UNL     1      34.894 -17.733 -23.223  0.00  0.00    +0.133 A 
ATOM      9  C   UNL     1      34.182 -15.037 -23.503  0.00  0.00    +0.331 A 
ATOM     10  C   UNL     1      34.634 -17.300 -24.556  0.00  0.00    +0.277 A 
ATOM     11  C   UNL     1      35.376 -18.823 -21.375  0.00  0.00    +0.183 C 
ATOM     12  H   UNL     1      34.094 -15.568 -25.479  0.00  0.00    +0.173 HD
ATOM     13  H   UNL     1      35.405 -19.775 -23.261  0.00  0.00    +0.149 HD
ATOM     14  H   UNL     1      35.128 -17.249 -20.050  0.00  0.00    +0.150 HD
ENDROOT
BRANCH   3  15
ATOM     15  C   UNL     1      34.384 -14.745 -21.032  0.00  0.00    +0.112 C 
BRANCH  15  16
ATOM     16  C   UNL     1      32.980 -14.703 -20.443  0.00  0.00    +0.025 C 
ATOM     17  C   UNL     1      32.310 -13.346 -20.613  0.00  0.00    +0.002 C 
ENDBRANCH  15  16
ENDBRANCH   3  15
TORSDOF 2
ENDMDL
MODEL 6
REMARK VINA RESULT:      -7.0     10.652     12.587
REMARK  Name = 1676
REMARK  2 active torsions:
REMARK  status: ('A' for Active; 'I' for Inactive)
REMARK    1  A    between atoms: N_3  and  C_15
REMARK    2  A    between atoms: C_15  and  C_16
REMARK                            x       y       z     vdW  Elec       q    Type
REMARK                         _______ _______ _______ _____ _____    ______ ____
ROOT
ATOM      1  O   UNL     1      35.946 -26.496 -15.975  0.00  0.00    -0.246 OA
ATOM      2  O   UNL     1      39.695 -26.067 -13.303  0.00  0.00    -0.266 OA
ATOM      3  N   UNL     1      35.874 -24.857 -14.308  0.00  0.00    -0.269 N 
ATOM      4  N   UNL     1      37.798 -26.254 -14.626  0.00  0.00    -0.273 N 
ATOM      5  N   UNL     1      38.201 -23.856 -11.880  0.00  0.00    -0.310 N 
ATOM      6  N   UNL     1      36.137 -23.241 -12.464  0.00  0.00    -0.302 N 
ATOM      7  C   UNL     1      36.578 -24.258 -13.265  0.00  0.00    +0.132 A 
ATOM      8  C   UNL     1      37.846 -24.655 -12.928  0.00  0.00    +0.133 A 
ATOM      9  C   UNL     1      36.487 -25.903 -15.037  0.00  0.00    +0.331 A 
ATOM     10  C   UNL     1      38.561 -25.697 -13.590  0.00  0.00    +0.277 A 
ATOM     11  C   UNL     1      37.139 -23.021 -11.639  0.00  0.00    +0.183 C 
ATOM     12  H   UNL     1      38.226 -26.982 -15.132  0.00  0.00    +0.173 HD
ATOM     13  H   UNL     1      39.056 -23.874 -11.392  0.00  0.00    +0.149 HD
ATOM     14  H   UNL     1      35.268 -22.778 -12.497  0.00  0.00    +0.150 HD
ENDROOT
BRANCH   3  15
ATOM     15  C   UNL     1      34.528 -24.408 -14.637  0.00  0.00    +0.112 C 
BRANCH  15  16
ATOM     16  C   UNL     1      34.529 -23.237 -15.611  0.00  0.00    +0.025 C 
ATOM     17  C   UNL     1      33.462 -23.369 -16.690  0.00  0.00    +0.002 C 
ENDBRANCH  15  16
ENDBRANCH   3  15
TORSDOF 2
ENDMDL
MODEL 7
REMARK VINA RESULT:      -6.8      2.530      3.588
REMARK  Name = 1676
REMARK  2 active torsions:
REMARK  status: ('A' for Active; 'I' for Inactive)
REMARK    1  A    between atoms: N_3  and  C_15
REMARK    2  A    between atoms: C_15  and  C_16
REMARK                            x       y       z     vdW  Elec       q    Type
REMARK                         _______ _______ _______ _____ _____    ______ ____
ROOT
ATOM      1  O   UNL     1      34.911 -15.806 -20.339  0.00  0.00    -0.246 OA
ATOM      2  O   UNL     1      32.126 -12.766 -22.432  0.00  0.00    -0.266 OA
ATOM      3  N   UNL     1      34.638 -16.041 -22.650  0.00  0.00    -0.269 N 
ATOM      4  N   UNL     1      33.531 -14.307 -21.413  0.00  0.00    -0.273 N 
ATOM      5  N   UNL     1      32.761 -14.232 -25.000  0.00  0.00    -0.310 N 
ATOM      6  N   UNL     1      34.126 -15.996 -25.061  0.00  0.00    -0.302 N 
ATOM      7  C   UNL     1      34.011 -15.525 -23.782  0.00  0.00    +0.132 A 
ATOM      8  C   UNL     1      33.178 -14.438 -23.716  0.00  0.00    +0.133 A 
ATOM      9  C   UNL     1      34.405 -15.424 -21.397  0.00  0.00    +0.331 A 
ATOM     10  C   UNL     1      32.869 -13.739 -22.512  0.00  0.00    +0.277 A 
ATOM     11  C   UNL     1      33.360 -15.195 -25.772  0.00  0.00    +0.183 C 
ATOM     12  H   UNL     1      33.367 -13.877 -20.543  0.00  0.00    +0.173 HD
ATOM     13  H   UNL     1      32.149 -13.526 -25.311  0.00  0.00    +0.149 HD
ATOM     14  H   UNL     1      34.660 -16.761 -25.379  0.00  0.00    +0.150 HD
ENDROOT
BRANCH   3  15
ATOM     15  C   UNL     1      35.516 -17.196 -22.759  0.00  0.00    +0.112 C 
BRANCH  15  16
ATOM     16  C   UNL     1      34.755 -18.513 -22.679  0.00  0.00    +0.025 C 
ATOM     17  C   UNL     1      34.863 -19.335 -23.957  0.00  0.00    +0.002 C 
ENDBRANCH  15  16
ENDBRANCH   3  15
TORSDOF 2
ENDMDL
MODEL 8
REMARK VINA RESULT:      -6.8      1.905      4.488
REMARK  Name = 1676
REMARK  2 active torsions:
REMARK  status: ('A' for Active; 'I' for Inactive)
REMARK    1  A    between atoms: N_3  and  C_15
REMARK    2  A    between atoms: C_15  and  C_16
REMARK                            x       y       z     vdW  Elec       q    Type
REMARK                         _______ _______ _______ _____ _____    ______ ____
ROOT
ATOM      1  O   UNL     1      33.816 -15.673 -26.261  0.00  0.00    -0.246 OA
ATOM      2  O   UNL     1      35.914 -18.457 -23.224  0.00  0.00    -0.266 OA
ATOM      3  N   UNL     1      33.718 -15.046 -24.010  0.00  0.00    -0.269 N 
ATOM      4  N   UNL     1      34.852 -17.037 -24.722  0.00  0.00    -0.273 N 
ATOM      5  N   UNL     1      34.995 -16.520 -21.092  0.00  0.00    -0.310 N 
ATOM      6  N   UNL     1      33.810 -14.690 -21.572  0.00  0.00    -0.302 N 
ATOM      7  C   UNL     1      34.094 -15.389 -22.713  0.00  0.00    +0.132 A 
ATOM      8  C   UNL     1      34.823 -16.519 -22.447  0.00  0.00    +0.133 A 
ATOM      9  C   UNL     1      34.101 -15.890 -25.080  0.00  0.00    +0.331 A 
ATOM     10  C   UNL     1      35.262 -17.441 -23.442  0.00  0.00    +0.277 A 
ATOM     11  C   UNL     1      34.367 -15.399 -20.611  0.00  0.00    +0.183 C 
ATOM     12  H   UNL     1      35.119 -17.625 -25.465  0.00  0.00    +0.173 HD
ATOM     13  H   UNL     1      35.478 -17.195 -20.563  0.00  0.00    +0.149 HD
ATOM     14  H   UNL     1      33.303 -13.850 -21.487  0.00  0.00    +0.150 HD
ENDROOT
BRANCH   3  15
ATOM     15  C   UNL     1      32.943 -13.838 -24.254  0.00  0.00    +0.112 C 
BRANCH  15  16
ATOM     16  C   UNL     1      33.817 -12.592 -24.320  0.00  0.00    +0.025 C 
ATOM     17  C   UNL     1      33.799 -11.932 -25.692  0.00  0.00    +0.002 C 
ENDBRANCH  15  16
ENDBRANCH   3  15
TORSDOF 2
ENDMDL
MODEL 9
REMARK VINA RESULT:      -6.8      1.760      3.453
REMARK  Name = 1676
REMARK  2 active torsions:
REMARK  status: ('A' for Active; 'I' for Inactive)
REMARK    1  A    between atoms: N_3  and  C_15
REMARK    2  A    between atoms: C_15  and  C_16
REMARK                            x       y       z     vdW  Elec       q    Type
REMARK                         _______ _______ _______ _____ _____    ______ ____
ROOT
ATOM      1  O   UNL     1      35.408 -17.547 -20.685  0.00  0.00    -0.246 OA
ATOM      2  O   UNL     1      34.762 -18.821 -25.082  0.00  0.00    -0.266 OA
ATOM      3  N   UNL     1      34.540 -15.931 -22.136  0.00  0.00    -0.269 N 
ATOM      4  N   UNL     1      35.072 -18.148 -22.883  0.00  0.00    -0.273 N 
ATOM      5  N   UNL     1      33.746 -16.011 -25.554  0.00  0.00    -0.310 N 
ATOM      6  N   UNL     1      33.647 -14.488 -23.925  0.00  0.00    -0.302 N 
ATOM      7  C   UNL     1      34.142 -15.670 -23.445  0.00  0.00    +0.132 A 
ATOM      8  C   UNL     1      34.212 -16.625 -24.427  0.00  0.00    +0.133 A 
ATOM      9  C   UNL     1      35.031 -17.219 -21.813  0.00  0.00    +0.331 A 
ATOM     10  C   UNL     1      34.690 -17.952 -24.218  0.00  0.00    +0.277 A 
ATOM     11  C   UNL     1      33.418 -14.727 -25.200  0.00  0.00    +0.183 C 
ATOM     12  H   UNL     1      35.414 -19.044 -22.660  0.00  0.00    +0.173 HD
ATOM     13  H   UNL     1      33.661 -16.414 -26.448  0.00  0.00    +0.149 HD
ATOM     14  H   UNL     1      33.496 -13.650 -23.431  0.00  0.00    +0.150 HD
ENDROOT
BRANCH   3  15
ATOM     15  C   UNL     1      34.450 -14.892 -21.121  0.00  0.00    +0.112 C 
BRANCH  15  16
ATOM     16  C   UNL     1      33.073 -14.831 -20.472  0.00  0.00    +0.025 C 
ATOM     17  C   UNL     1      32.372 -13.499 -20.703  0.00  0.00    +0.002 C 
ENDBRANCH  15  16
ENDBRANCH   3  15
TORSDOF 2
ENDMDL
