MODEL 1
REMARK VINA RESULT:     -10.6      0.000      0.000
REMARK  Name = 11188898
REMARK  6 active torsions:
REMARK  status: ('A' for Active; 'I' for Inactive)
REMARK    1  A    between atoms: C_4  and  C_28
REMARK    2  A    between atoms: C_17  and  O_19
REMARK    3  A    between atoms: C_18  and  O_21
REMARK    4  A    between atoms: O_21  and  S_22
REMARK    5  A    between atoms: S_22  and  N_25
REMARK    6  A    between atoms: C_28  and  C_30
REMARK                            x       y       z     vdW  Elec       q    Type
REMARK                         _______ _______ _______ _____ _____    ______ ____
ROOT
ATOM      1  C   UNL     1      34.391 -18.968 -21.592  0.00  0.00    +0.001 C 
ATOM      2  C   UNL     1      35.616 -19.854 -21.274  0.00  0.00    +0.000 C 
ATOM      3  C   UNL     1      35.551 -20.457 -19.871  0.00  0.00    +0.004 C 
ATOM      4  C   UNL     1      34.794 -18.489 -23.007  0.00  0.00    +0.015 C 
ATOM      5  C   UNL     1      34.287 -21.364 -19.776  0.00  0.00    +0.022 C 
ATOM      6  C   UNL     1      33.142 -19.859 -21.542  0.00  0.00    +0.000 C 
ATOM      7  C   UNL     1      36.803 -18.973 -21.653  0.00  0.00    +0.000 C 
ATOM      8  C   UNL     1      36.303 -18.172 -22.869  0.00  0.00    +0.001 C 
ATOM      9  C   UNL     1      33.008 -20.589 -20.191  0.00  0.00    +0.004 C 
ATOM     10  C   UNL     1      36.787 -21.293 -19.532  0.00  0.00    +0.005 C 
ATOM     11  C   UNL     1      34.206 -17.768 -20.629  0.00  0.00    +0.000 C 
ATOM     12  C   UNL     1      34.209 -22.063 -18.421  0.00  0.00    -0.023 C 
ATOM     13  C   UNL     1      36.726 -21.745 -18.077  0.00  0.00    +0.026 C 
ATOM     14  C   UNL     1      35.376 -22.272 -17.653  0.00  0.00    -0.023 C 
ATOM     15  C   UNL     1      32.997 -22.594 -17.944  0.00  0.00    +0.036 C 
ATOM     16  C   UNL     1      35.294 -22.948 -16.424  0.00  0.00    +0.038 C 
ATOM     17  C   UNL     1      32.932 -23.272 -16.725  0.00  0.00    +0.175 C 
ATOM     18  C   UNL     1      34.079 -23.445 -15.962  0.00  0.00    +0.206 C 
ENDROOT
BRANCH  17  19
ATOM     19  O   UNL     1      31.735 -23.763 -16.297  0.00  0.00    -0.468 OA
ATOM     20  C   UNL     1      30.606 -22.897 -16.394  0.00  0.00    +0.253 C 
ENDBRANCH  17  19
BRANCH  18  21
ATOM     21  O   UNL     1      34.029 -24.100 -14.770  0.00  0.00    -0.346 OA
BRANCH  21  22
ATOM     22  S   UNL     1      35.348 -24.378 -13.835  0.00  0.00    +0.086 S 
ATOM     23  O   UNL     1      35.995 -23.106 -13.569  0.00  0.00    -0.046 OA
ATOM     24  O   UNL     1      36.092 -25.484 -14.410  0.00  0.00    -0.046 OA
BRANCH  22  25
ATOM     25  N   UNL     1      34.672 -24.928 -12.357  0.00  0.00    -0.194 NA
ATOM     26  H   UNL     1      33.836 -25.481 -12.550  0.00  0.00    +0.145 HD
ATOM     27  H   UNL     1      34.424 -24.127 -11.777  0.00  0.00    +0.145 HD
ENDBRANCH  22  25
ENDBRANCH  21  22
ENDBRANCH  18  21
BRANCH   4  28
ATOM     28  C   UNL     1      33.997 -17.331 -23.590  0.00  0.00    +0.105 C 
BRANCH  28  30
ATOM     29  N   UNL     1      34.881 -16.671 -25.973  0.00  0.00    -0.196 NA
ATOM     30  C   UNL     1      34.492 -16.964 -24.921  0.00  0.00    +0.073 C 
ENDBRANCH  28  30
ENDBRANCH   4  28
TORSDOF 6
ENDMDL
MODEL 2
REMARK VINA RESULT:      -9.5     10.388     13.705
REMARK  Name = 11188898
REMARK  6 active torsions:
REMARK  status: ('A' for Active; 'I' for Inactive)
REMARK    1  A    between atoms: C_4  and  C_28
REMARK    2  A    between atoms: C_17  and  O_19
REMARK    3  A    between atoms: C_18  and  O_21
REMARK    4  A    between atoms: O_21  and  S_22
REMARK    5  A    between atoms: S_22  and  N_25
REMARK    6  A    between atoms: C_28  and  C_30
REMARK                            x       y       z     vdW  Elec       q    Type
REMARK                         _______ _______ _______ _____ _____    ______ ____
ROOT
ATOM      1  C   UNL     1      33.635 -14.336 -22.389  0.00  0.00    +0.001 C 
ATOM      2  C   UNL     1      32.377 -13.821 -21.656  0.00  0.00    +0.000 C 
ATOM      3  C   UNL     1      32.421 -12.312 -21.414  0.00  0.00    +0.004 C 
ATOM      4  C   UNL     1      33.302 -15.847 -22.417  0.00  0.00    +0.015 C 
ATOM      5  C   UNL     1      32.483 -11.586 -22.792  0.00  0.00    +0.022 C 
ATOM      6  C   UNL     1      33.686 -13.659 -23.766  0.00  0.00    +0.000 C 
ATOM      7  C   UNL     1      32.245 -14.763 -20.464  0.00  0.00    +0.000 C 
ATOM      8  C   UNL     1      32.733 -16.121 -21.004  0.00  0.00    +0.001 C 
ATOM      9  C   UNL     1      33.656 -12.123 -23.655  0.00  0.00    +0.004 C 
ATOM     10  C   UNL     1      31.201 -11.804 -20.641  0.00  0.00    +0.005 C 
ATOM     11  C   UNL     1      34.964 -14.072 -21.637  0.00  0.00    +0.000 C 
ATOM     12  C   UNL     1      32.447 -10.070 -22.620  0.00  0.00    -0.023 C 
ATOM     13  C   UNL     1      31.375 -10.326 -20.309  0.00  0.00    +0.026 C 
ATOM     14  C   UNL     1      31.881  -9.493 -21.462  0.00  0.00    -0.023 C 
ATOM     15  C   UNL     1      32.889  -9.211 -23.642  0.00  0.00    +0.036 C 
ATOM     16  C   UNL     1      31.822  -8.094 -21.333  0.00  0.00    +0.038 C 
ATOM     17  C   UNL     1      32.816  -7.823 -23.505  0.00  0.00    +0.175 C 
ATOM     18  C   UNL     1      32.287  -7.264 -22.349  0.00  0.00    +0.206 C 
ENDROOT
BRANCH  17  19
ATOM     19  O   UNL     1      33.264  -7.027 -24.516  0.00  0.00    -0.468 OA
ATOM     20  C   UNL     1      34.673  -6.826 -24.608  0.00  0.00    +0.253 C 
ENDBRANCH  17  19
BRANCH  18  21
ATOM     21  O   UNL     1      32.213  -5.913 -22.200  0.00  0.00    -0.346 OA
BRANCH  21  22
ATOM     22  S   UNL     1      30.926  -5.018 -22.682  0.00  0.00    +0.086 S 
ATOM     23  O   UNL     1      29.903  -5.100 -21.655  0.00  0.00    -0.046 OA
ATOM     24  O   UNL     1      30.623  -5.357 -24.061  0.00  0.00    -0.046 OA
BRANCH  22  25
ATOM     25  N   UNL     1      31.537  -3.414 -22.670  0.00  0.00    -0.194 NA
ATOM     26  H   UNL     1      32.046  -3.251 -21.801  0.00  0.00    +0.145 HD
ATOM     27  H   UNL     1      30.762  -2.755 -22.741  0.00  0.00    +0.145 HD
ENDBRANCH  22  25
ENDBRANCH  21  22
ENDBRANCH  18  21
BRANCH   4  28
ATOM     28  C   UNL     1      34.436 -16.790 -22.791  0.00  0.00    +0.105 C 
BRANCH  28  30
ATOM     29  N   UNL     1      34.636 -17.045 -25.397  0.00  0.00    -0.196 NA
ATOM     30  C   UNL     1      34.546 -16.935 -24.247  0.00  0.00    +0.073 C 
ENDBRANCH  28  30
ENDBRANCH   4  28
TORSDOF 6
ENDMDL
MODEL 3
REMARK VINA RESULT:      -9.3      9.538     12.539
REMARK  Name = 11188898
REMARK  6 active torsions:
REMARK  status: ('A' for Active; 'I' for Inactive)
REMARK    1  A    between atoms: C_4  and  C_28
REMARK    2  A    between atoms: C_17  and  O_19
REMARK    3  A    between atoms: C_18  and  O_21
REMARK    4  A    between atoms: O_21  and  S_22
REMARK    5  A    between atoms: S_22  and  N_25
REMARK    6  A    between atoms: C_28  and  C_30
REMARK                            x       y       z     vdW  Elec       q    Type
REMARK                         _______ _______ _______ _____ _____    ______ ____
ROOT
ATOM      1  C   UNL     1      31.838  -6.863 -23.515  0.00  0.00    +0.001 C 
ATOM      2  C   UNL     1      31.985  -7.332 -22.050  0.00  0.00    +0.000 C 
ATOM      3  C   UNL     1      31.788  -8.841 -21.899  0.00  0.00    +0.004 C 
ATOM      4  C   UNL     1      32.030  -5.342 -23.306  0.00  0.00    +0.015 C 
ATOM      5  C   UNL     1      32.883  -9.574 -22.731  0.00  0.00    +0.022 C 
ATOM      6  C   UNL     1      32.939  -7.547 -24.338  0.00  0.00    +0.000 C 
ATOM      7  C   UNL     1      31.077  -6.381 -21.277  0.00  0.00    +0.000 C 
ATOM      8  C   UNL     1      31.209  -5.043 -22.028  0.00  0.00    +0.001 C 
ATOM      9  C   UNL     1      32.892  -9.080 -24.203  0.00  0.00    +0.004 C 
ATOM     10  C   UNL     1      31.880  -9.303 -20.443  0.00  0.00    +0.005 C 
ATOM     11  C   UNL     1      30.457  -7.170 -24.147  0.00  0.00    +0.000 C 
ATOM     12  C   UNL     1      32.791 -11.087 -22.555  0.00  0.00    -0.023 C 
ATOM     13  C   UNL     1      31.534 -10.785 -20.346  0.00  0.00    +0.026 C 
ATOM     14  C   UNL     1      32.189 -11.640 -21.403  0.00  0.00    -0.023 C 
ATOM     15  C   UNL     1      33.377 -11.965 -23.484  0.00  0.00    +0.036 C 
ATOM     16  C   UNL     1      32.142 -13.035 -21.238  0.00  0.00    +0.038 C 
ATOM     17  C   UNL     1      33.332 -13.349 -23.303  0.00  0.00    +0.175 C 
ATOM     18  C   UNL     1      32.711 -13.884 -22.183  0.00  0.00    +0.206 C 
ENDROOT
BRANCH  17  19
ATOM     19  O   UNL     1      33.906 -14.164 -24.232  0.00  0.00    -0.468 OA
ATOM     20  C   UNL     1      33.149 -14.439 -25.409  0.00  0.00    +0.253 C 
ENDBRANCH  17  19
BRANCH  18  21
ATOM     21  O   UNL     1      32.655 -15.232 -21.995  0.00  0.00    -0.346 OA
BRANCH  21  22
ATOM     22  S   UNL     1      33.902 -16.115 -21.400  0.00  0.00    +0.086 S 
ATOM     23  O   UNL     1      33.382 -17.393 -20.948  0.00  0.00    -0.046 OA
ATOM     24  O   UNL     1      34.675 -15.271 -20.505  0.00  0.00    -0.046 OA
BRANCH  22  25
ATOM     25  N   UNL     1      34.869 -16.415 -22.785  0.00  0.00    -0.194 NA
ATOM     26  H   UNL     1      35.555 -15.667 -22.888  0.00  0.00    +0.145 HD
ATOM     27  H   UNL     1      34.275 -16.448 -23.613  0.00  0.00    +0.145 HD
ENDBRANCH  22  25
ENDBRANCH  21  22
ENDBRANCH  18  21
BRANCH   4  28
ATOM     28  C   UNL     1      31.657  -4.439 -24.473  0.00  0.00    +0.105 C 
BRANCH  28  30
ATOM     29  N   UNL     1      31.581  -1.918 -23.740  0.00  0.00    -0.196 NA
ATOM     30  C   UNL     1      31.614  -3.032 -24.062  0.00  0.00    +0.073 C 
ENDBRANCH  28  30
ENDBRANCH   4  28
TORSDOF 6
ENDMDL
MODEL 4
REMARK VINA RESULT:      -9.0      5.491      7.663
REMARK  Name = 11188898
REMARK  6 active torsions:
REMARK  status: ('A' for Active; 'I' for Inactive)
REMARK    1  A    between atoms: C_4  and  C_28
REMARK    2  A    between atoms: C_17  and  O_19
REMARK    3  A    between atoms: C_18  and  O_21
REMARK    4  A    between atoms: O_21  and  S_22
REMARK    5  A    between atoms: S_22  and  N_25
REMARK    6  A    between atoms: C_28  and  C_30
REMARK                            x       y       z     vdW  Elec       q    Type
REMARK                         _______ _______ _______ _____ _____    ______ ____
ROOT
ATOM      1  C   UNL     1      30.631 -23.746 -15.917  0.00  0.00    +0.001 C 
ATOM      2  C   UNL     1      31.045 -23.680 -14.430  0.00  0.00    +0.000 C 
ATOM      3  C   UNL     1      32.483 -24.146 -14.204  0.00  0.00    +0.004 C 
ATOM      4  C   UNL     1      29.161 -23.282 -15.783  0.00  0.00    +0.015 C 
ATOM      5  C   UNL     1      33.443 -23.204 -14.993  0.00  0.00    +0.022 C 
ATOM      6  C   UNL     1      31.542 -22.790 -16.699  0.00  0.00    +0.000 C 
ATOM      7  C   UNL     1      29.908 -24.398 -13.710  0.00  0.00    +0.000 C 
ATOM      8  C   UNL     1      28.655 -24.030 -14.527  0.00  0.00    +0.001 C 
ATOM      9  C   UNL     1      33.034 -23.112 -16.487  0.00  0.00    +0.004 C 
ATOM     10  C   UNL     1      32.881 -24.133 -12.727  0.00  0.00    +0.005 C 
ATOM     11  C   UNL     1      30.715 -25.162 -16.540  0.00  0.00    +0.000 C 
ATOM     12  C   UNL     1      34.904 -23.567 -14.742  0.00  0.00    -0.023 C 
ATOM     13  C   UNL     1      34.270 -24.741 -12.557  0.00  0.00    +0.026 C 
ATOM     14  C   UNL     1      35.280 -24.254 -13.567  0.00  0.00    -0.023 C 
ATOM     15  C   UNL     1      35.918 -23.152 -15.623  0.00  0.00    +0.036 C 
ATOM     16  C   UNL     1      36.634 -24.551 -13.333  0.00  0.00    +0.038 C 
ATOM     17  C   UNL     1      37.261 -23.446 -15.373  0.00  0.00    +0.175 C 
ATOM     18  C   UNL     1      37.619 -24.149 -14.231  0.00  0.00    +0.206 C 
ENDROOT
BRANCH  17  19
ATOM     19  O   UNL     1      38.212 -23.032 -16.257  0.00  0.00    -0.468 OA
ATOM     20  C   UNL     1      37.872 -21.939 -17.109  0.00  0.00    +0.253 C 
ENDBRANCH  17  19
BRANCH  18  21
ATOM     21  O   UNL     1      38.923 -24.446 -13.976  0.00  0.00    -0.346 OA
BRANCH  21  22
ATOM     22  S   UNL     1      39.648 -25.833 -14.467  0.00  0.00    +0.086 S 
ATOM     23  O   UNL     1      38.625 -26.850 -14.630  0.00  0.00    -0.046 OA
ATOM     24  O   UNL     1      40.802 -26.070 -13.619  0.00  0.00    -0.046 OA
BRANCH  22  25
ATOM     25  N   UNL     1      40.233 -25.438 -16.031  0.00  0.00    -0.194 NA
ATOM     26  H   UNL     1      41.229 -25.223 -15.977  0.00  0.00    +0.145 HD
ATOM     27  H   UNL     1      39.728 -24.626 -16.388  0.00  0.00    +0.145 HD
ENDBRANCH  22  25
ENDBRANCH  21  22
ENDBRANCH  18  21
BRANCH   4  28
ATOM     28  C   UNL     1      28.266 -23.490 -16.996  0.00  0.00    +0.105 C 
BRANCH  28  30
ATOM     29  N   UNL     1      26.744 -21.392 -17.421  0.00  0.00    -0.196 NA
ATOM     30  C   UNL     1      27.414 -22.320 -17.233  0.00  0.00    +0.073 C 
ENDBRANCH  28  30
ENDBRANCH   4  28
TORSDOF 6
ENDMDL
MODEL 5
REMARK VINA RESULT:      -9.0      4.513      8.988
REMARK  Name = 11188898
REMARK  6 active torsions:
REMARK  status: ('A' for Active; 'I' for Inactive)
REMARK    1  A    between atoms: C_4  and  C_28
REMARK    2  A    between atoms: C_17  and  O_19
REMARK    3  A    between atoms: C_18  and  O_21
REMARK    4  A    between atoms: O_21  and  S_22
REMARK    5  A    between atoms: S_22  and  N_25
REMARK    6  A    between atoms: C_28  and  C_30
REMARK                            x       y       z     vdW  Elec       q    Type
REMARK                         _______ _______ _______ _____ _____    ______ ____
ROOT
ATOM      1  C   UNL     1      36.361 -23.052 -15.844  0.00  0.00    +0.001 C 
ATOM      2  C   UNL     1      35.164 -23.487 -16.717  0.00  0.00    +0.000 C 
ATOM      3  C   UNL     1      34.664 -22.361 -17.624  0.00  0.00    +0.004 C 
ATOM      4  C   UNL     1      36.565 -24.358 -15.039  0.00  0.00    +0.015 C 
ATOM      5  C   UNL     1      35.816 -21.950 -18.590  0.00  0.00    +0.022 C 
ATOM      6  C   UNL     1      37.518 -22.683 -16.783  0.00  0.00    +0.000 C 
ATOM      7  C   UNL     1      34.201 -24.120 -15.717  0.00  0.00    +0.000 C 
ATOM      8  C   UNL     1      35.124 -24.799 -14.687  0.00  0.00    +0.001 C 
ATOM      9  C   UNL     1      37.110 -21.604 -17.804  0.00  0.00    +0.004 C 
ATOM     10  C   UNL     1      33.445 -22.771 -18.453  0.00  0.00    +0.005 C 
ATOM     11  C   UNL     1      36.063 -21.858 -14.902  0.00  0.00    +0.000 C 
ATOM     12  C   UNL     1      35.354 -20.883 -19.578  0.00  0.00    -0.023 C 
ATOM     13  C   UNL     1      32.913 -21.567 -19.223  0.00  0.00    +0.026 C 
ATOM     14  C   UNL     1      33.985 -20.746 -19.897  0.00  0.00    -0.023 C 
ATOM     15  C   UNL     1      36.280 -20.074 -20.261  0.00  0.00    +0.036 C 
ATOM     16  C   UNL     1      33.578 -19.782 -20.836  0.00  0.00    +0.038 C 
ATOM     17  C   UNL     1      35.862 -19.127 -21.199  0.00  0.00    +0.175 C 
ATOM     18  C   UNL     1      34.511 -18.977 -21.483  0.00  0.00    +0.206 C 
ENDROOT
BRANCH  17  19
ATOM     19  O   UNL     1      36.792 -18.358 -21.833  0.00  0.00    -0.468 OA
ATOM     20  C   UNL     1      38.109 -18.893 -21.942  0.00  0.00    +0.253 C 
ENDBRANCH  17  19
BRANCH  18  21
ATOM     21  O   UNL     1      34.089 -18.055 -22.392  0.00  0.00    -0.346 OA
BRANCH  21  22
ATOM     22  S   UNL     1      34.336 -16.443 -22.227  0.00  0.00    +0.086 S 
ATOM     23  O   UNL     1      34.850 -16.194 -20.892  0.00  0.00    -0.046 OA
ATOM     24  O   UNL     1      33.156 -15.747 -22.709  0.00  0.00    -0.046 OA
BRANCH  22  25
ATOM     25  N   UNL     1      35.607 -16.124 -23.334  0.00  0.00    -0.194 NA
ATOM     26  H   UNL     1      35.671 -16.889 -24.007  0.00  0.00    +0.145 HD
ATOM     27  H   UNL     1      36.488 -16.043 -22.826  0.00  0.00    +0.145 HD
ENDBRANCH  22  25
ENDBRANCH  21  22
ENDBRANCH  18  21
BRANCH   4  28
ATOM     28  C   UNL     1      37.473 -24.275 -13.820  0.00  0.00    +0.105 C 
BRANCH  28  30
ATOM     29  N   UNL     1      36.972 -26.219 -12.126  0.00  0.00    -0.196 NA
ATOM     30  C   UNL     1      37.191 -25.362 -12.876  0.00  0.00    +0.073 C 
ENDBRANCH  28  30
ENDBRANCH   4  28
TORSDOF 6
ENDMDL
MODEL 6
REMARK VINA RESULT:      -8.6      4.982      8.765
REMARK  Name = 11188898
REMARK  6 active torsions:
REMARK  status: ('A' for Active; 'I' for Inactive)
REMARK    1  A    between atoms: C_4  and  C_28
REMARK    2  A    between atoms: C_17  and  O_19
REMARK    3  A    between atoms: C_18  and  O_21
REMARK    4  A    between atoms: O_21  and  S_22
REMARK    5  A    between atoms: S_22  and  N_25
REMARK    6  A    between atoms: C_28  and  C_30
REMARK                            x       y       z     vdW  Elec       q    Type
REMARK                         _______ _______ _______ _____ _____    ______ ____
ROOT
ATOM      1  C   UNL     1      37.007 -24.301 -13.820  0.00  0.00    +0.001 C 
ATOM      2  C   UNL     1      35.739 -25.006 -13.288  0.00  0.00    +0.000 C 
ATOM      3  C   UNL     1      34.458 -24.259 -13.660  0.00  0.00    +0.004 C 
ATOM      4  C   UNL     1      38.079 -25.251 -13.236  0.00  0.00    +0.015 C 
ATOM      5  C   UNL     1      34.342 -24.209 -15.214  0.00  0.00    +0.022 C 
ATOM      6  C   UNL     1      36.925 -24.282 -15.353  0.00  0.00    +0.000 C 
ATOM      7  C   UNL     1      36.057 -25.253 -11.817  0.00  0.00    +0.000 C 
ATOM      8  C   UNL     1      37.571 -25.540 -11.803  0.00  0.00    +0.001 C 
ATOM      9  C   UNL     1      35.627 -23.619 -15.853  0.00  0.00    +0.004 C 
ATOM     10  C   UNL     1      33.203 -24.925 -13.091  0.00  0.00    +0.005 C 
ATOM     11  C   UNL     1      37.199 -22.855 -13.297  0.00  0.00    +0.000 C 
ATOM     12  C   UNL     1      33.038 -23.546 -15.649  0.00  0.00    -0.023 C 
ATOM     13  C   UNL     1      31.981 -24.057 -13.375  0.00  0.00    +0.026 C 
ATOM     14  C   UNL     1      31.922 -23.522 -14.785  0.00  0.00    -0.023 C 
ATOM     15  C   UNL     1      32.885 -23.025 -16.947  0.00  0.00    +0.036 C 
ATOM     16  C   UNL     1      30.716 -22.939 -15.213  0.00  0.00    +0.038 C 
ATOM     17  C   UNL     1      31.678 -22.457 -17.362  0.00  0.00    +0.175 C 
ATOM     18  C   UNL     1      30.596 -22.409 -16.495  0.00  0.00    +0.206 C 
ENDROOT
BRANCH  17  19
ATOM     19  O   UNL     1      31.576 -21.956 -18.626  0.00  0.00    -0.468 OA
ATOM     20  C   UNL     1      32.768 -21.445 -19.219  0.00  0.00    +0.253 C 
ENDBRANCH  17  19
BRANCH  18  21
ATOM     21  O   UNL     1      29.415 -21.855 -16.885  0.00  0.00    -0.346 OA
BRANCH  21  22
ATOM     22  S   UNL     1      27.973 -22.629 -16.780  0.00  0.00    +0.086 S 
ATOM     23  O   UNL     1      27.590 -22.694 -15.381  0.00  0.00    -0.046 OA
ATOM     24  O   UNL     1      28.041 -23.834 -17.587  0.00  0.00    -0.046 OA
BRANCH  22  25
ATOM     25  N   UNL     1      26.890 -21.550 -17.559  0.00  0.00    -0.194 NA
ATOM     26  H   UNL     1      25.966 -21.978 -17.615  0.00  0.00    +0.145 HD
ATOM     27  H   UNL     1      27.230 -21.348 -18.499  0.00  0.00    +0.145 HD
ENDBRANCH  22  25
ENDBRANCH  21  22
ENDBRANCH  18  21
BRANCH   4  28
ATOM     28  C   UNL     1      39.519 -24.757 -13.265  0.00  0.00    +0.105 C 
BRANCH  28  30
ATOM     29  N   UNL     1      40.940 -26.082 -15.032  0.00  0.00    -0.196 NA
ATOM     30  C   UNL     1      40.313 -25.495 -14.253  0.00  0.00    +0.073 C 
ENDBRANCH  28  30
ENDBRANCH   4  28
TORSDOF 6
ENDMDL
MODEL 7
REMARK VINA RESULT:      -8.4      5.896      8.386
REMARK  Name = 11188898
REMARK  6 active torsions:
REMARK  status: ('A' for Active; 'I' for Inactive)
REMARK    1  A    between atoms: C_4  and  C_28
REMARK    2  A    between atoms: C_17  and  O_19
REMARK    3  A    between atoms: C_18  and  O_21
REMARK    4  A    between atoms: O_21  and  S_22
REMARK    5  A    between atoms: S_22  and  N_25
REMARK    6  A    between atoms: C_28  and  C_30
REMARK                            x       y       z     vdW  Elec       q    Type
REMARK                         _______ _______ _______ _____ _____    ______ ____
ROOT
ATOM      1  C   UNL     1      36.888 -24.745 -14.163  0.00  0.00    +0.001 C 
ATOM      2  C   UNL     1      36.498 -23.597 -15.121  0.00  0.00    +0.000 C 
ATOM      3  C   UNL     1      35.102 -23.783 -15.716  0.00  0.00    +0.004 C 
ATOM      4  C   UNL     1      38.322 -24.288 -13.803  0.00  0.00    +0.015 C 
ATOM      5  C   UNL     1      34.061 -23.792 -14.556  0.00  0.00    +0.022 C 
ATOM      6  C   UNL     1      35.894 -24.738 -12.994  0.00  0.00    +0.000 C 
ATOM      7  C   UNL     1      37.698 -23.487 -16.056  0.00  0.00    +0.000 C 
ATOM      8  C   UNL     1      38.905 -23.816 -15.157  0.00  0.00    +0.001 C 
ATOM      9  C   UNL     1      34.435 -24.842 -13.476  0.00  0.00    +0.004 C 
ATOM     10  C   UNL     1      34.732 -22.676 -16.706  0.00  0.00    +0.005 C 
ATOM     11  C   UNL     1      36.898 -26.148 -14.821  0.00  0.00    +0.000 C 
ATOM     12  C   UNL     1      32.636 -23.893 -15.093  0.00  0.00    -0.023 C 
ATOM     13  C   UNL     1      33.396 -22.997 -17.368  0.00  0.00    +0.026 C 
ATOM     14  C   UNL     1      32.333 -23.473 -16.407  0.00  0.00    -0.023 C 
ATOM     15  C   UNL     1      31.577 -24.319 -14.272  0.00  0.00    +0.036 C 
ATOM     16  C   UNL     1      31.010 -23.539 -16.877  0.00  0.00    +0.038 C 
ATOM     17  C   UNL     1      30.265 -24.371 -14.748  0.00  0.00    +0.175 C 
ATOM     18  C   UNL     1      29.982 -23.986 -16.051  0.00  0.00    +0.206 C 
ENDROOT
BRANCH  17  19
ATOM     19  O   UNL     1      29.270 -24.798 -13.920  0.00  0.00    -0.468 OA
ATOM     20  C   UNL     1      28.574 -25.983 -14.301  0.00  0.00    +0.253 C 
ENDBRANCH  17  19
BRANCH  18  21
ATOM     21  O   UNL     1      28.708 -24.035 -16.530  0.00  0.00    -0.346 OA
BRANCH  21  22
ATOM     22  S   UNL     1      27.842 -22.703 -16.936  0.00  0.00    +0.086 S 
ATOM     23  O   UNL     1      27.084 -23.001 -18.138  0.00  0.00    -0.046 OA
ATOM     24  O   UNL     1      28.723 -21.550 -16.881  0.00  0.00    -0.046 OA
BRANCH  22  25
ATOM     25  N   UNL     1      26.721 -22.555 -15.646  0.00  0.00    -0.194 NA
ATOM     26  H   UNL     1      26.925 -23.259 -14.936  0.00  0.00    +0.145 HD
ATOM     27  H   UNL     1      25.775 -22.692 -16.000  0.00  0.00    +0.145 HD
ENDBRANCH  22  25
ENDBRANCH  21  22
ENDBRANCH  18  21
BRANCH   4  28
ATOM     28  C   UNL     1      39.207 -25.307 -13.100  0.00  0.00    +0.105 C 
BRANCH  28  30
ATOM     29  N   UNL     1      40.917 -26.390 -14.775  0.00  0.00    -0.196 NA
ATOM     30  C   UNL     1      40.164 -25.911 -14.034  0.00  0.00    +0.073 C 
ENDBRANCH  28  30
ENDBRANCH   4  28
TORSDOF 6
ENDMDL
MODEL 8
REMARK VINA RESULT:      -8.1      7.959     10.906
REMARK  Name = 11188898
REMARK  6 active torsions:
REMARK  status: ('A' for Active; 'I' for Inactive)
REMARK    1  A    between atoms: C_4  and  C_28
REMARK    2  A    between atoms: C_17  and  O_19
REMARK    3  A    between atoms: C_18  and  O_21
REMARK    4  A    between atoms: O_21  and  S_22
REMARK    5  A    between atoms: S_22  and  N_25
REMARK    6  A    between atoms: C_28  and  C_30
REMARK                            x       y       z     vdW  Elec       q    Type
REMARK                         _______ _______ _______ _____ _____    ______ ____
ROOT
ATOM      1  C   UNL     1      34.467 -17.901 -21.777  0.00  0.00    +0.001 C 
ATOM      2  C   UNL     1      34.699 -17.110 -23.083  0.00  0.00    +0.000 C 
ATOM      3  C   UNL     1      33.777 -15.896 -23.201  0.00  0.00    +0.004 C 
ATOM      4  C   UNL     1      35.480 -19.049 -22.003  0.00  0.00    +0.015 C 
ATOM      5  C   UNL     1      34.072 -14.928 -22.015  0.00  0.00    +0.022 C 
ATOM      6  C   UNL     1      34.794 -16.971 -20.601  0.00  0.00    +0.000 C 
ATOM      7  C   UNL     1      34.658 -18.184 -24.166  0.00  0.00    +0.000 C 
ATOM      8  C   UNL     1      35.289 -19.418 -23.493  0.00  0.00    +0.001 C 
ATOM      9  C   UNL     1      33.977 -15.666 -20.653  0.00  0.00    +0.004 C 
ATOM     10  C   UNL     1      33.966 -15.138 -24.517  0.00  0.00    +0.005 C 
ATOM     11  C   UNL     1      33.028 -18.452 -21.613  0.00  0.00    +0.000 C 
ATOM     12  C   UNL     1      33.238 -13.654 -22.120  0.00  0.00    -0.023 C 
ATOM     13  C   UNL     1      32.924 -14.031 -24.633  0.00  0.00    +0.026 C 
ATOM     14  C   UNL     1      32.741 -13.224 -23.371  0.00  0.00    -0.023 C 
ATOM     15  C   UNL     1      33.019 -12.832 -21.000  0.00  0.00    +0.036 C 
ATOM     16  C   UNL     1      32.005 -12.030 -23.458  0.00  0.00    +0.038 C 
ATOM     17  C   UNL     1      32.293 -11.643 -21.104  0.00  0.00    +0.175 C 
ATOM     18  C   UNL     1      31.782 -11.244 -22.331  0.00  0.00    +0.206 C 
ENDROOT
BRANCH  17  19
ATOM     19  O   UNL     1      32.098 -10.881 -19.991  0.00  0.00    -0.468 OA
ATOM     20  C   UNL     1      30.809 -10.940 -19.383  0.00  0.00    +0.253 C 
ENDBRANCH  17  19
BRANCH  18  21
ATOM     21  O   UNL     1      31.069 -10.090 -22.446  0.00  0.00    -0.346 OA
BRANCH  21  22
ATOM     22  S   UNL     1      31.752  -8.630 -22.750  0.00  0.00    +0.086 S 
ATOM     23  O   UNL     1      30.775  -7.803 -23.435  0.00  0.00    -0.046 OA
ATOM     24  O   UNL     1      33.068  -8.852 -23.323  0.00  0.00    -0.046 OA
BRANCH  22  25
ATOM     25  N   UNL     1      31.979  -7.968 -21.184  0.00  0.00    -0.194 NA
ATOM     26  H   UNL     1      31.165  -8.177 -20.606  0.00  0.00    +0.145 HD
ATOM     27  H   UNL     1      32.096  -6.958 -21.256  0.00  0.00    +0.145 HD
ENDBRANCH  22  25
ENDBRANCH  21  22
ENDBRANCH  18  21
BRANCH   4  28
ATOM     28  C   UNL     1      35.368 -20.251 -21.076  0.00  0.00    +0.105 C 
BRANCH  28  30
ATOM     29  N   UNL     1      37.130 -20.124 -19.133  0.00  0.00    -0.196 NA
ATOM     30  C   UNL     1      36.352 -20.178 -19.991  0.00  0.00    +0.073 C 
ENDBRANCH  28  30
ENDBRANCH   4  28
TORSDOF 6
ENDMDL
