MODEL 1
REMARK VINA RESULT:     -12.1      0.000      0.000
REMARK  Name = 154000
REMARK  7 active torsions:
REMARK  status: ('A' for Active; 'I' for Inactive)
REMARK    1  A    between atoms: O_1  and  C_5
REMARK    2  A    between atoms: O_1  and  C_17
REMARK    3  A    between atoms: C_2  and  C_8
REMARK    4  A    between atoms: C_8  and  C_13
REMARK    5  A    between atoms: C_17  and  C_18
REMARK    6  A    between atoms: C_18  and  C_21
REMARK    7  A    between atoms: C_23  and  C_25
REMARK                            x       y       z     vdW  Elec       q    Type
REMARK                         _______ _______ _______ _____ _____    ______ ____
ROOT
ATOM      1  O   UNL     1      32.679 -22.447 -18.741  0.00  0.00    -0.475 OA
ENDROOT
BRANCH   1   5
ATOM      2  C   UNL     1      34.809 -19.673 -20.943  0.00  0.00    -0.021 C 
ATOM      3  C   UNL     1      35.493 -20.655 -20.241  0.00  0.00    -0.001 C 
ATOM      4  C   UNL     1      33.425 -19.605 -20.919  0.00  0.00    -0.001 C 
ATOM      5  C   UNL     1      33.381 -21.534 -19.465  0.00  0.00    +0.139 C 
ATOM      6  C   UNL     1      34.775 -21.592 -19.498  0.00  0.00    +0.037 C 
ATOM      7  C   UNL     1      32.707 -20.541 -20.176  0.00  0.00    +0.037 C 
BRANCH   2   8
ATOM      8  C   UNL     1      35.587 -18.660 -21.746  0.00  0.00    +0.047 C 
BRANCH   8  13
ATOM      9  O   UNL     1      35.292 -15.511 -23.100  0.00  0.00    -0.346 OA
ATOM     10  O   UNL     1      34.777 -18.593 -24.661  0.00  0.00    -0.272 OA
ATOM     11  O   UNL     1      34.975 -15.819 -20.846  0.00  0.00    -0.247 OA
ATOM     12  N   UNL     1      35.232 -16.348 -24.234  0.00  0.00    -0.144 N 
ATOM     13  C   UNL     1      34.677 -17.655 -22.424  0.00  0.00    +0.184 C 
ATOM     14  C   UNL     1      34.891 -17.639 -23.908  0.00  0.00    +0.264 C 
ATOM     15  C   UNL     1      34.990 -16.247 -21.989  0.00  0.00    +0.348 C 
ATOM     16  H   UNL     1      35.414 -16.043 -25.152  0.00  0.00    +0.196 HD
ENDBRANCH   8  13
ENDBRANCH   2   8
ENDBRANCH   1   5
BRANCH   1  17
ATOM     17  C   UNL     1      33.366 -23.092 -17.668  0.00  0.00    +0.213 C 
BRANCH  17  18
ATOM     18  C   UNL     1      32.404 -23.325 -16.507  0.00  0.00    +0.105 C 
BRANCH  18  21
ATOM     19  O   UNL     1      33.578 -24.382 -13.216  0.00  0.00    -0.449 OA
ATOM     20  N   UNL     1      34.458 -23.671 -15.175  0.00  0.00    -0.373 NA
ATOM     21  C   UNL     1      33.106 -23.719 -15.239  0.00  0.00    +0.134 C 
ATOM     22  C   UNL     1      32.552 -24.142 -14.079  0.00  0.00    +0.216 C 
ATOM     23  C   UNL     1      34.686 -24.076 -13.945  0.00  0.00    +0.277 C 
ATOM     24  C   UNL     1      31.192 -24.380 -13.583  0.00  0.00    +0.055 C 
BRANCH  23  25
ATOM     25  C   UNL     1      35.936 -24.246 -13.257  0.00  0.00    +0.066 C 
ATOM     26  C   UNL     1      36.440 -23.223 -12.449  0.00  0.00    +0.006 C 
ATOM     27  C   UNL     1      36.658 -25.435 -13.396  0.00  0.00    +0.006 C 
ATOM     28  C   UNL     1      37.654 -23.388 -11.784  0.00  0.00    +0.000 C 
ATOM     29  C   UNL     1      37.872 -25.600 -12.730  0.00  0.00    +0.000 C 
ATOM     30  C   UNL     1      38.371 -24.576 -11.924  0.00  0.00    +0.000 C 
ENDBRANCH  23  25
ENDBRANCH  18  21
ENDBRANCH  17  18
ENDBRANCH   1  17
TORSDOF 7
ENDMDL
MODEL 2
REMARK VINA RESULT:     -12.0      5.647     10.015
REMARK  Name = 154000
REMARK  7 active torsions:
REMARK  status: ('A' for Active; 'I' for Inactive)
REMARK    1  A    between atoms: O_1  and  C_5
REMARK    2  A    between atoms: O_1  and  C_17
REMARK    3  A    between atoms: C_2  and  C_8
REMARK    4  A    between atoms: C_8  and  C_13
REMARK    5  A    between atoms: C_17  and  C_18
REMARK    6  A    between atoms: C_18  and  C_21
REMARK    7  A    between atoms: C_23  and  C_25
REMARK                            x       y       z     vdW  Elec       q    Type
REMARK                         _______ _______ _______ _____ _____    ______ ____
ROOT
ATOM      1  O   UNL     1      33.912 -13.855 -24.025  0.00  0.00    -0.475 OA
ENDROOT
BRANCH   1   5
ATOM      2  C   UNL     1      32.174 -10.309 -22.803  0.00  0.00    -0.021 C 
ATOM      3  C   UNL     1      33.167 -10.283 -23.771  0.00  0.00    -0.001 C 
ATOM      4  C   UNL     1      31.754 -11.504 -22.238  0.00  0.00    -0.001 C 
ATOM      5  C   UNL     1      33.340 -12.687 -23.623  0.00  0.00    +0.139 C 
ATOM      6  C   UNL     1      33.754 -11.479 -24.183  0.00  0.00    +0.037 C 
ATOM      7  C   UNL     1      32.340 -12.700 -22.650  0.00  0.00    +0.037 C 
BRANCH   2   8
ATOM      8  C   UNL     1      31.541  -9.015 -22.356  0.00  0.00    +0.047 C 
BRANCH   8  13
ATOM      9  O   UNL     1      32.247  -5.679 -21.896  0.00  0.00    -0.346 OA
ATOM     10  O   UNL     1      32.396  -8.264 -19.552  0.00  0.00    -0.272 OA
ATOM     11  O   UNL     1      32.489  -6.621 -23.976  0.00  0.00    -0.247 OA
ATOM     12  N   UNL     1      32.218  -6.180 -20.577  0.00  0.00    -0.144 N 
ATOM     13  C   UNL     1      32.579  -7.984 -21.956  0.00  0.00    +0.184 C 
ATOM     14  C   UNL     1      32.391  -7.542 -20.536  0.00  0.00    +0.264 C 
ATOM     15  C   UNL     1      32.439  -6.719 -22.761  0.00  0.00    +0.348 C 
ATOM     16  H   UNL     1      32.089  -5.618 -19.779  0.00  0.00    +0.196 HD
ENDBRANCH   8  13
ENDBRANCH   2   8
ENDBRANCH   1   5
BRANCH   1  17
ATOM     17  C   UNL     1      33.627 -15.019 -23.248  0.00  0.00    +0.213 C 
BRANCH  17  18
ATOM     18  C   UNL     1      34.931 -15.680 -22.813  0.00  0.00    +0.105 C 
BRANCH  18  21
ATOM     19  O   UNL     1      34.555 -19.309 -22.911  0.00  0.00    -0.449 OA
ATOM     20  N   UNL     1      34.841 -17.683 -21.366  0.00  0.00    -0.373 NA
ATOM     21  C   UNL     1      34.796 -17.163 -22.616  0.00  0.00    +0.134 C 
ATOM     22  C   UNL     1      34.625 -18.114 -23.562  0.00  0.00    +0.216 C 
ATOM     23  C   UNL     1      34.692 -18.967 -21.601  0.00  0.00    +0.277 C 
ATOM     24  C   UNL     1      34.507 -18.142 -25.024  0.00  0.00    +0.055 C 
BRANCH  23  25
ATOM     25  C   UNL     1      34.654 -20.065 -20.675  0.00  0.00    +0.066 C 
ATOM     26  C   UNL     1      35.842 -20.640 -20.215  0.00  0.00    +0.006 C 
ATOM     27  C   UNL     1      33.427 -20.567 -20.231  0.00  0.00    +0.006 C 
ATOM     28  C   UNL     1      35.803 -21.707 -19.318  0.00  0.00    +0.000 C 
ATOM     29  C   UNL     1      33.389 -21.634 -19.333  0.00  0.00    +0.000 C 
ATOM     30  C   UNL     1      34.577 -22.204 -18.877  0.00  0.00    +0.000 C 
ENDBRANCH  23  25
ENDBRANCH  18  21
ENDBRANCH  17  18
ENDBRANCH   1  17
TORSDOF 7
ENDMDL
MODEL 3
REMARK VINA RESULT:     -11.8      1.647      4.371
REMARK  Name = 154000
REMARK  7 active torsions:
REMARK  status: ('A' for Active; 'I' for Inactive)
REMARK    1  A    between atoms: O_1  and  C_5
REMARK    2  A    between atoms: O_1  and  C_17
REMARK    3  A    between atoms: C_2  and  C_8
REMARK    4  A    between atoms: C_8  and  C_13
REMARK    5  A    between atoms: C_17  and  C_18
REMARK    6  A    between atoms: C_18  and  C_21
REMARK    7  A    between atoms: C_23  and  C_25
REMARK                            x       y       z     vdW  Elec       q    Type
REMARK                         _______ _______ _______ _____ _____    ______ ____
ROOT
ATOM      1  O   UNL     1      35.849 -22.771 -17.722  0.00  0.00    -0.475 OA
ENDROOT
BRANCH   1   5
ATOM      2  C   UNL     1      34.470 -20.183 -20.635  0.00  0.00    -0.021 C 
ATOM      3  C   UNL     1      33.560 -20.936 -19.907  0.00  0.00    -0.001 C 
ATOM      4  C   UNL     1      35.834 -20.284 -20.404  0.00  0.00    -0.001 C 
ATOM      5  C   UNL     1      35.394 -21.920 -18.681  0.00  0.00    +0.139 C 
ATOM      6  C   UNL     1      34.025 -21.809 -18.924  0.00  0.00    +0.037 C 
ATOM      7  C   UNL     1      36.298 -21.157 -19.421  0.00  0.00    +0.037 C 
BRANCH   2   8
ATOM      8  C   UNL     1      33.967 -19.240 -21.699  0.00  0.00    +0.047 C 
BRANCH   8  13
ATOM      9  O   UNL     1      34.845 -16.829 -23.991  0.00  0.00    -0.346 OA
ATOM     10  O   UNL     1      35.212 -16.746 -20.519  0.00  0.00    -0.272 OA
ATOM     11  O   UNL     1      34.776 -19.036 -24.624  0.00  0.00    -0.247 OA
ATOM     12  N   UNL     1      34.974 -16.154 -22.760  0.00  0.00    -0.144 N 
ATOM     13  C   UNL     1      35.085 -18.402 -22.290  0.00  0.00    +0.184 C 
ATOM     14  C   UNL     1      35.102 -17.023 -21.703  0.00  0.00    +0.264 C 
ATOM     15  C   UNL     1      34.883 -18.176 -23.765  0.00  0.00    +0.348 C 
ATOM     16  H   UNL     1      34.972 -15.174 -22.668  0.00  0.00    +0.196 HD
ENDBRANCH   8  13
ENDBRANCH   2   8
ENDBRANCH   1   5
BRANCH   1  17
ATOM     17  C   UNL     1      36.196 -22.202 -16.459  0.00  0.00    +0.213 C 
BRANCH  17  18
ATOM     18  C   UNL     1      36.188 -23.287 -15.386  0.00  0.00    +0.105 C 
BRANCH  18  21
ATOM     19  O   UNL     1      33.098 -24.171 -13.656  0.00  0.00    -0.449 OA
ATOM     20  N   UNL     1      33.741 -23.444 -15.699  0.00  0.00    -0.373 NA
ATOM     21  C   UNL     1      34.808 -23.596 -14.880  0.00  0.00    +0.134 C 
ATOM     22  C   UNL     1      34.453 -24.030 -13.649  0.00  0.00    +0.216 C 
ATOM     23  C   UNL     1      32.746 -23.802 -14.918  0.00  0.00    +0.277 C 
ATOM     24  C   UNL     1      35.153 -24.360 -12.402  0.00  0.00    +0.055 C 
BRANCH  23  25
ATOM     25  C   UNL     1      31.339 -23.858 -15.201  0.00  0.00    +0.066 C 
ATOM     26  C   UNL     1      30.758 -22.932 -16.073  0.00  0.00    +0.006 C 
ATOM     27  C   UNL     1      30.541 -24.838 -14.604  0.00  0.00    +0.006 C 
ATOM     28  C   UNL     1      29.392 -22.986 -16.345  0.00  0.00    +0.000 C 
ATOM     29  C   UNL     1      29.174 -24.893 -14.877  0.00  0.00    +0.000 C 
ATOM     30  C   UNL     1      28.599 -23.967 -15.748  0.00  0.00    +0.000 C 
ENDBRANCH  23  25
ENDBRANCH  18  21
ENDBRANCH  17  18
ENDBRANCH   1  17
TORSDOF 7
ENDMDL
MODEL 4
REMARK VINA RESULT:     -11.8      5.767     10.065
REMARK  Name = 154000
REMARK  7 active torsions:
REMARK  status: ('A' for Active; 'I' for Inactive)
REMARK    1  A    between atoms: O_1  and  C_5
REMARK    2  A    between atoms: O_1  and  C_17
REMARK    3  A    between atoms: C_2  and  C_8
REMARK    4  A    between atoms: C_8  and  C_13
REMARK    5  A    between atoms: C_17  and  C_18
REMARK    6  A    between atoms: C_18  and  C_21
REMARK    7  A    between atoms: C_23  and  C_25
REMARK                            x       y       z     vdW  Elec       q    Type
REMARK                         _______ _______ _______ _____ _____    ______ ____
ROOT
ATOM      1  O   UNL     1      32.950 -14.038 -23.775  0.00  0.00    -0.475 OA
ENDROOT
BRANCH   1   5
ATOM      2  C   UNL     1      33.049  -9.959 -23.117  0.00  0.00    -0.021 C 
ATOM      3  C   UNL     1      32.183 -10.748 -22.374  0.00  0.00    -0.001 C 
ATOM      4  C   UNL     1      33.882 -10.514 -24.076  0.00  0.00    -0.001 C 
ATOM      5  C   UNL     1      32.982 -12.695 -23.558  0.00  0.00    +0.139 C 
ATOM      6  C   UNL     1      32.149 -12.124 -22.595  0.00  0.00    +0.037 C 
ATOM      7  C   UNL     1      33.848 -11.890 -24.298  0.00  0.00    +0.037 C 
BRANCH   2   8
ATOM      8  C   UNL     1      33.084  -8.470 -22.877  0.00  0.00    +0.047 C 
BRANCH   8  13
ATOM      9  O   UNL     1      31.653  -6.024 -20.926  0.00  0.00    -0.346 OA
ATOM     10  O   UNL     1      30.733  -7.042 -24.138  0.00  0.00    -0.272 OA
ATOM     11  O   UNL     1      32.746  -7.783 -19.933  0.00  0.00    -0.247 OA
ATOM     12  N   UNL     1      31.055  -5.811 -22.186  0.00  0.00    -0.144 N 
ATOM     13  C   UNL     1      31.829  -7.977 -22.184  0.00  0.00    +0.184 C 
ATOM     14  C   UNL     1      31.138  -6.921 -22.993  0.00  0.00    +0.264 C 
ATOM     15  C   UNL     1      32.150  -7.296 -20.880  0.00  0.00    +0.348 C 
ATOM     16  H   UNL     1      30.629  -4.966 -22.456  0.00  0.00    +0.196 HD
ENDBRANCH   8  13
ENDBRANCH   2   8
ENDBRANCH   1   5
BRANCH   1  17
ATOM     17  C   UNL     1      33.190 -14.884 -22.651  0.00  0.00    +0.213 C 
BRANCH  17  18
ATOM     18  C   UNL     1      34.593 -15.477 -22.742  0.00  0.00    +0.105 C 
BRANCH  18  21
ATOM     19  O   UNL     1      34.628 -19.121 -22.947  0.00  0.00    -0.449 OA
ATOM     20  N   UNL     1      34.603 -17.520 -21.349  0.00  0.00    -0.373 NA
ATOM     21  C   UNL     1      34.605 -16.971 -22.588  0.00  0.00    +0.134 C 
ATOM     22  C   UNL     1      34.620 -17.906 -23.565  0.00  0.00    +0.216 C 
ATOM     23  C   UNL     1      34.616 -18.806 -21.623  0.00  0.00    +0.277 C 
ATOM     24  C   UNL     1      34.628 -17.903 -25.032  0.00  0.00    +0.055 C 
BRANCH  23  25
ATOM     25  C   UNL     1      34.622 -19.929 -20.727  0.00  0.00    +0.066 C 
ATOM     26  C   UNL     1      33.418 -20.490 -20.293  0.00  0.00    +0.006 C 
ATOM     27  C   UNL     1      35.833 -20.466 -20.283  0.00  0.00    +0.006 C 
ATOM     28  C   UNL     1      33.425 -21.578 -19.421  0.00  0.00    +0.000 C 
ATOM     29  C   UNL     1      35.841 -21.555 -19.412  0.00  0.00    +0.000 C 
ATOM     30  C   UNL     1      34.636 -22.112 -18.980  0.00  0.00    +0.000 C 
ENDBRANCH  23  25
ENDBRANCH  18  21
ENDBRANCH  17  18
ENDBRANCH   1  17
TORSDOF 7
ENDMDL
MODEL 5
REMARK VINA RESULT:     -11.7      5.521     13.113
REMARK  Name = 154000
REMARK  7 active torsions:
REMARK  status: ('A' for Active; 'I' for Inactive)
REMARK    1  A    between atoms: O_1  and  C_5
REMARK    2  A    between atoms: O_1  and  C_17
REMARK    3  A    between atoms: C_2  and  C_8
REMARK    4  A    between atoms: C_8  and  C_13
REMARK    5  A    between atoms: C_17  and  C_18
REMARK    6  A    between atoms: C_18  and  C_21
REMARK    7  A    between atoms: C_23  and  C_25
REMARK                            x       y       z     vdW  Elec       q    Type
REMARK                         _______ _______ _______ _____ _____    ______ ____
ROOT
ATOM      1  O   UNL     1      34.530 -14.074 -22.885  0.00  0.00    -0.475 OA
ENDROOT
BRANCH   1   5
ATOM      2  C   UNL     1      34.811 -18.140 -22.198  0.00  0.00    -0.021 C 
ATOM      3  C   UNL     1      34.887 -17.662 -23.498  0.00  0.00    -0.001 C 
ATOM      4  C   UNL     1      34.642 -17.278 -21.125  0.00  0.00    -0.001 C 
ATOM      5  C   UNL     1      34.622 -15.413 -22.660  0.00  0.00    +0.139 C 
ATOM      6  C   UNL     1      34.792 -16.290 -23.730  0.00  0.00    +0.037 C 
ATOM      7  C   UNL     1      34.547 -15.906 -21.357  0.00  0.00    +0.037 C 
BRANCH   2   8
ATOM      8  C   UNL     1      34.912 -19.624 -21.947  0.00  0.00    +0.047 C 
BRANCH   8  13
ATOM      9  O   UNL     1      33.556 -21.819 -19.672  0.00  0.00    -0.346 OA
ATOM     10  O   UNL     1      36.907 -20.925 -20.080  0.00  0.00    -0.272 OA
ATOM     11  O   UNL     1      32.278 -20.100 -20.502  0.00  0.00    -0.247 OA
ATOM     12  N   UNL     1      34.941 -22.057 -19.552  0.00  0.00    -0.144 N 
ATOM     13  C   UNL     1      34.713 -19.967 -20.484  0.00  0.00    +0.184 C 
ATOM     14  C   UNL     1      35.690 -21.009 -20.030  0.00  0.00    +0.264 C 
ATOM     15  C   UNL     1      33.364 -20.592 -20.243  0.00  0.00    +0.348 C 
ATOM     16  H   UNL     1      35.325 -22.879 -19.170  0.00  0.00    +0.196 HD
ENDBRANCH   8  13
ENDBRANCH   2   8
ENDBRANCH   1   5
BRANCH   1  17
ATOM     17  C   UNL     1      33.314 -13.594 -23.460  0.00  0.00    +0.213 C 
BRANCH  17  18
ATOM     18  C   UNL     1      33.627 -12.705 -24.660  0.00  0.00    +0.105 C 
BRANCH  18  21
ATOM     19  O   UNL     1      34.304  -9.151 -24.178  0.00  0.00    -0.449 OA
ATOM     20  N   UNL     1      32.928 -10.737 -23.337  0.00  0.00    -0.373 NA
ATOM     21  C   UNL     1      33.734 -11.252 -24.296  0.00  0.00    +0.134 C 
ATOM     22  C   UNL     1      34.569 -10.324 -24.818  0.00  0.00    +0.216 C 
ATOM     23  C   UNL     1      33.311  -9.480 -23.307  0.00  0.00    +0.277 C 
ATOM     24  C   UNL     1      35.618 -10.304 -25.843  0.00  0.00    +0.055 C 
BRANCH  23  25
ATOM     25  C   UNL     1      32.833  -8.400 -22.489  0.00  0.00    +0.066 C 
ATOM     26  C   UNL     1      32.565  -7.151 -23.057  0.00  0.00    +0.006 C 
ATOM     27  C   UNL     1      32.634  -8.591 -21.119  0.00  0.00    +0.006 C 
ATOM     28  C   UNL     1      32.103  -6.103 -22.262  0.00  0.00    +0.000 C 
ATOM     29  C   UNL     1      32.171  -7.543 -20.323  0.00  0.00    +0.000 C 
ATOM     30  C   UNL     1      31.906  -6.299 -20.895  0.00  0.00    +0.000 C 
ENDBRANCH  23  25
ENDBRANCH  18  21
ENDBRANCH  17  18
ENDBRANCH   1  17
TORSDOF 7
ENDMDL
MODEL 6
REMARK VINA RESULT:     -11.6      2.690     10.987
REMARK  Name = 154000
REMARK  7 active torsions:
REMARK  status: ('A' for Active; 'I' for Inactive)
REMARK    1  A    between atoms: O_1  and  C_5
REMARK    2  A    between atoms: O_1  and  C_17
REMARK    3  A    between atoms: C_2  and  C_8
REMARK    4  A    between atoms: C_8  and  C_13
REMARK    5  A    between atoms: C_17  and  C_18
REMARK    6  A    between atoms: C_18  and  C_21
REMARK    7  A    between atoms: C_23  and  C_25
REMARK                            x       y       z     vdW  Elec       q    Type
REMARK                         _______ _______ _______ _____ _____    ______ ____
ROOT
ATOM      1  O   UNL     1      35.714 -21.218 -20.303  0.00  0.00    -0.475 OA
ENDROOT
BRANCH   1   5
ATOM      2  C   UNL     1      35.595 -22.803 -16.487  0.00  0.00    -0.021 C 
ATOM      3  C   UNL     1      36.735 -22.135 -16.912  0.00  0.00    -0.001 C 
ATOM      4  C   UNL     1      34.496 -22.949 -17.319  0.00  0.00    -0.001 C 
ATOM      5  C   UNL     1      35.676 -21.740 -19.046  0.00  0.00    +0.139 C 
ATOM      6  C   UNL     1      36.775 -21.600 -18.199  0.00  0.00    +0.037 C 
ATOM      7  C   UNL     1      34.537 -22.414 -18.606  0.00  0.00    +0.037 C 
BRANCH   2   8
ATOM      8  C   UNL     1      35.553 -23.382 -15.095  0.00  0.00    +0.047 C 
BRANCH   8  13
ATOM      9  O   UNL     1      37.281 -25.204 -12.742  0.00  0.00    -0.346 OA
ATOM     10  O   UNL     1      35.930 -26.309 -15.767  0.00  0.00    -0.272 OA
ATOM     11  O   UNL     1      37.655 -22.946 -12.938  0.00  0.00    -0.247 OA
ATOM     12  N   UNL     1      36.762 -26.202 -13.594  0.00  0.00    -0.144 N 
ATOM     13  C   UNL     1      36.766 -24.244 -14.802  0.00  0.00    +0.184 C 
ATOM     14  C   UNL     1      36.418 -25.702 -14.827  0.00  0.00    +0.264 C 
ATOM     15  C   UNL     1      37.285 -24.010 -13.408  0.00  0.00    +0.348 C 
ATOM     16  H   UNL     1      36.659 -27.146 -13.334  0.00  0.00    +0.196 HD
ENDBRANCH   8  13
ENDBRANCH   2   8
ENDBRANCH   1   5
BRANCH   1  17
ATOM     17  C   UNL     1      34.939 -20.043 -20.542  0.00  0.00    +0.213 C 
BRANCH  17  18
ATOM     18  C   UNL     1      35.858 -18.892 -20.940  0.00  0.00    +0.105 C 
BRANCH  18  21
ATOM     19  O   UNL     1      34.268 -16.836 -23.502  0.00  0.00    -0.449 OA
ATOM     20  N   UNL     1      34.802 -16.688 -21.309  0.00  0.00    -0.373 NA
ATOM     21  C   UNL     1      35.180 -17.883 -21.822  0.00  0.00    +0.134 C 
ATOM     22  C   UNL     1      34.873 -18.000 -23.134  0.00  0.00    +0.216 C 
ATOM     23  C   UNL     1      34.263 -16.102 -22.355  0.00  0.00    +0.277 C 
ATOM     24  C   UNL     1      35.035 -19.025 -24.171  0.00  0.00    +0.055 C 
BRANCH  23  25
ATOM     25  C   UNL     1      33.667 -14.799 -22.465  0.00  0.00    +0.066 C 
ATOM     26  C   UNL     1      34.038 -13.941 -23.505  0.00  0.00    +0.006 C 
ATOM     27  C   UNL     1      32.715 -14.382 -21.531  0.00  0.00    +0.006 C 
ATOM     28  C   UNL     1      33.460 -12.676 -23.608  0.00  0.00    +0.000 C 
ATOM     29  C   UNL     1      32.137 -13.117 -21.636  0.00  0.00    +0.000 C 
ATOM     30  C   UNL     1      32.510 -12.263 -22.674  0.00  0.00    +0.000 C 
ENDBRANCH  23  25
ENDBRANCH  18  21
ENDBRANCH  17  18
ENDBRANCH   1  17
TORSDOF 7
ENDMDL
MODEL 7
REMARK VINA RESULT:     -11.5      3.076     11.076
REMARK  Name = 154000
REMARK  7 active torsions:
REMARK  status: ('A' for Active; 'I' for Inactive)
REMARK    1  A    between atoms: O_1  and  C_5
REMARK    2  A    between atoms: O_1  and  C_17
REMARK    3  A    between atoms: C_2  and  C_8
REMARK    4  A    between atoms: C_8  and  C_13
REMARK    5  A    between atoms: C_17  and  C_18
REMARK    6  A    between atoms: C_18  and  C_21
REMARK    7  A    between atoms: C_23  and  C_25
REMARK                            x       y       z     vdW  Elec       q    Type
REMARK                         _______ _______ _______ _____ _____    ______ ____
ROOT
ATOM      1  O   UNL     1      35.626 -18.869 -21.482  0.00  0.00    -0.475 OA
ENDROOT
BRANCH   1   5
ATOM      2  C   UNL     1      34.173 -22.016 -19.230  0.00  0.00    -0.021 C 
ATOM      3  C   UNL     1      35.544 -21.849 -19.362  0.00  0.00    -0.001 C 
ATOM      4  C   UNL     1      33.282 -21.147 -19.841  0.00  0.00    -0.001 C 
ATOM      5  C   UNL     1      35.148 -19.906 -20.741  0.00  0.00    +0.139 C 
ATOM      6  C   UNL     1      36.034 -20.787 -20.122  0.00  0.00    +0.037 C 
ATOM      7  C   UNL     1      33.772 -20.086 -20.600  0.00  0.00    +0.037 C 
BRANCH   2   8
ATOM      8  C   UNL     1      33.643 -23.165 -18.410  0.00  0.00    +0.047 C 
BRANCH   8  13
ATOM      9  O   UNL     1      32.037 -23.889 -15.454  0.00  0.00    -0.346 OA
ATOM     10  O   UNL     1      35.472 -23.701 -16.059  0.00  0.00    -0.272 OA
ATOM     11  O   UNL     1      30.988 -22.599 -17.037  0.00  0.00    -0.247 OA
ATOM     12  N   UNL     1      33.380 -24.215 -15.170  0.00  0.00    -0.144 N 
ATOM     13  C   UNL     1      33.419 -22.773 -16.962  0.00  0.00    +0.184 C 
ATOM     14  C   UNL     1      34.256 -23.603 -16.036  0.00  0.00    +0.264 C 
ATOM     15  C   UNL     1      32.002 -23.047 -16.530  0.00  0.00    +0.348 C 
ATOM     16  H   UNL     1      33.658 -24.811 -14.437  0.00  0.00    +0.196 HD
ENDBRANCH   8  13
ENDBRANCH   2   8
ENDBRANCH   1   5
BRANCH   1  17
ATOM     17  C   UNL     1      34.672 -18.104 -22.220  0.00  0.00    +0.213 C 
BRANCH  17  18
ATOM     18  C   UNL     1      35.329 -16.834 -22.751  0.00  0.00    +0.105 C 
BRANCH  18  21
ATOM     19  O   UNL     1      32.933 -14.276 -23.770  0.00  0.00    -0.449 OA
ATOM     20  N   UNL     1      34.026 -14.915 -21.895  0.00  0.00    -0.373 NA
ATOM     21  C   UNL     1      34.354 -15.709 -22.943  0.00  0.00    +0.134 C 
ATOM     22  C   UNL     1      33.713 -15.350 -24.079  0.00  0.00    +0.216 C 
ATOM     23  C   UNL     1      33.176 -14.077 -22.445  0.00  0.00    +0.277 C 
ATOM     24  C   UNL     1      33.677 -15.824 -25.467  0.00  0.00    +0.055 C 
BRANCH  23  25
ATOM     25  C   UNL     1      32.462 -12.981 -21.851  0.00  0.00    +0.066 C 
ATOM     26  C   UNL     1      32.281 -12.927 -20.466  0.00  0.00    +0.006 C 
ATOM     27  C   UNL     1      31.944 -11.962 -22.655  0.00  0.00    +0.006 C 
ATOM     28  C   UNL     1      31.586 -11.864 -19.890  0.00  0.00    +0.000 C 
ATOM     29  C   UNL     1      31.250 -10.898 -22.079  0.00  0.00    +0.000 C 
ATOM     30  C   UNL     1      31.070 -10.849 -20.697  0.00  0.00    +0.000 C 
ENDBRANCH  23  25
ENDBRANCH  18  21
ENDBRANCH  17  18
ENDBRANCH   1  17
TORSDOF 7
ENDMDL
MODEL 8
REMARK VINA RESULT:     -11.3      2.835     11.384
REMARK  Name = 154000
REMARK  7 active torsions:
REMARK  status: ('A' for Active; 'I' for Inactive)
REMARK    1  A    between atoms: O_1  and  C_5
REMARK    2  A    between atoms: O_1  and  C_17
REMARK    3  A    between atoms: C_2  and  C_8
REMARK    4  A    between atoms: C_8  and  C_13
REMARK    5  A    between atoms: C_17  and  C_18
REMARK    6  A    between atoms: C_18  and  C_21
REMARK    7  A    between atoms: C_23  and  C_25
REMARK                            x       y       z     vdW  Elec       q    Type
REMARK                         _______ _______ _______ _____ _____    ______ ____
ROOT
ATOM      1  O   UNL     1      35.707 -19.376 -21.016  0.00  0.00    -0.475 OA
ENDROOT
BRANCH   1   5
ATOM      2  C   UNL     1      34.161 -22.364 -18.614  0.00  0.00    -0.021 C 
ATOM      3  C   UNL     1      35.531 -22.152 -18.640  0.00  0.00    -0.001 C 
ATOM      4  C   UNL     1      33.300 -21.592 -19.380  0.00  0.00    -0.001 C 
ATOM      5  C   UNL     1      35.199 -20.360 -20.225  0.00  0.00    +0.139 C 
ATOM      6  C   UNL     1      36.054 -21.144 -19.450  0.00  0.00    +0.037 C 
ATOM      7  C   UNL     1      33.823 -20.584 -20.190  0.00  0.00    +0.037 C 
BRANCH   2   8
ATOM      8  C   UNL     1      33.597 -23.454 -17.739  0.00  0.00    +0.047 C 
BRANCH   8  13
ATOM      9  O   UNL     1      32.682 -24.258 -14.521  0.00  0.00    -0.346 OA
ATOM     10  O   UNL     1      35.889 -24.188 -15.904  0.00  0.00    -0.272 OA
ATOM     11  O   UNL     1      31.365 -22.845 -15.763  0.00  0.00    -0.247 OA
ATOM     12  N   UNL     1      34.035 -24.656 -14.572  0.00  0.00    -0.144 N 
ATOM     13  C   UNL     1      33.735 -23.127 -16.264  0.00  0.00    +0.184 C 
ATOM     14  C   UNL     1      34.717 -24.039 -15.593  0.00  0.00    +0.264 C 
ATOM     15  C   UNL     1      32.444 -23.361 -15.524  0.00  0.00    +0.348 C 
ATOM     16  H   UNL     1      34.442 -25.300 -13.949  0.00  0.00    +0.196 HD
ENDBRANCH   8  13
ENDBRANCH   2   8
ENDBRANCH   1   5
BRANCH   1  17
ATOM     17  C   UNL     1      34.774 -18.475 -21.612  0.00  0.00    +0.213 C 
BRANCH  17  18
ATOM     18  C   UNL     1      34.961 -17.078 -21.027  0.00  0.00    +0.105 C 
BRANCH  18  21
ATOM     19  O   UNL     1      32.854 -14.440 -22.413  0.00  0.00    -0.449 OA
ATOM     20  N   UNL     1      34.578 -15.747 -23.074  0.00  0.00    -0.373 NA
ATOM     21  C   UNL     1      34.223 -16.020 -21.796  0.00  0.00    +0.134 C 
ATOM     22  C   UNL     1      33.194 -15.252 -21.373  0.00  0.00    +0.216 C 
ATOM     23  C   UNL     1      33.728 -14.797 -23.394  0.00  0.00    +0.277 C 
ATOM     24  C   UNL     1      32.418 -15.111 -20.135  0.00  0.00    +0.055 C 
BRANCH  23  25
ATOM     25  C   UNL     1      33.587 -14.077 -24.630  0.00  0.00    +0.066 C 
ATOM     26  C   UNL     1      33.205 -14.747 -25.795  0.00  0.00    +0.006 C 
ATOM     27  C   UNL     1      33.834 -12.702 -24.673  0.00  0.00    +0.006 C 
ATOM     28  C   UNL     1      33.072 -14.048 -26.994  0.00  0.00    +0.000 C 
ATOM     29  C   UNL     1      33.700 -12.002 -25.872  0.00  0.00    +0.000 C 
ATOM     30  C   UNL     1      33.318 -12.675 -27.033  0.00  0.00    +0.000 C 
ENDBRANCH  23  25
ENDBRANCH  18  21
ENDBRANCH  17  18
ENDBRANCH   1  17
TORSDOF 7
ENDMDL
MODEL 9
REMARK VINA RESULT:     -11.2      1.200      2.068
REMARK  Name = 154000
REMARK  7 active torsions:
REMARK  status: ('A' for Active; 'I' for Inactive)
REMARK    1  A    between atoms: O_1  and  C_5
REMARK    2  A    between atoms: O_1  and  C_17
REMARK    3  A    between atoms: C_2  and  C_8
REMARK    4  A    between atoms: C_8  and  C_13
REMARK    5  A    between atoms: C_17  and  C_18
REMARK    6  A    between atoms: C_18  and  C_21
REMARK    7  A    between atoms: C_23  and  C_25
REMARK                            x       y       z     vdW  Elec       q    Type
REMARK                         _______ _______ _______ _____ _____    ______ ____
ROOT
ATOM      1  O   UNL     1      34.930 -22.422 -18.770  0.00  0.00    -0.475 OA
ENDROOT
BRANCH   1   5
ATOM      2  C   UNL     1      34.189 -19.227 -21.286  0.00  0.00    -0.021 C 
ATOM      3  C   UNL     1      35.500 -19.578 -20.999  0.00  0.00    -0.001 C 
ATOM      4  C   UNL     1      33.123 -19.928 -20.744  0.00  0.00    -0.001 C 
ATOM      5  C   UNL     1      34.687 -21.370 -19.599  0.00  0.00    +0.139 C 
ATOM      6  C   UNL     1      35.751 -20.656 -20.150  0.00  0.00    +0.037 C 
ATOM      7  C   UNL     1      33.374 -21.006 -19.895  0.00  0.00    +0.037 C 
BRANCH   2   8
ATOM      8  C   UNL     1      33.920 -18.060 -22.203  0.00  0.00    +0.047 C 
BRANCH   8  13
ATOM      9  O   UNL     1      34.796 -17.770 -25.518  0.00  0.00    -0.346 OA
ATOM     10  O   UNL     1      35.252 -15.447 -22.950  0.00  0.00    -0.272 OA
ATOM     11  O   UNL     1      34.660 -19.849 -24.550  0.00  0.00    -0.247 OA
ATOM     12  N   UNL     1      34.971 -16.458 -25.030  0.00  0.00    -0.144 N 
ATOM     13  C   UNL     1      35.041 -17.853 -23.202  0.00  0.00    +0.184 C 
ATOM     14  C   UNL     1      35.105 -16.428 -23.663  0.00  0.00    +0.264 C 
ATOM     15  C   UNL     1      34.809 -18.641 -24.464  0.00  0.00    +0.348 C 
ATOM     16  H   UNL     1      34.994 -15.658 -25.603  0.00  0.00    +0.196 HD
ENDBRANCH   8  13
ENDBRANCH   2   8
ENDBRANCH   1   5
BRANCH   1  17
ATOM     17  C   UNL     1      33.855 -23.334 -18.547  0.00  0.00    +0.213 C 
BRANCH  17  18
ATOM     18  C   UNL     1      33.139 -22.979 -17.247  0.00  0.00    +0.105 C 
BRANCH  18  21
ATOM     19  O   UNL     1      34.340 -24.196 -14.023  0.00  0.00    -0.449 OA
ATOM     20  N   UNL     1      35.155 -23.836 -16.102  0.00  0.00    -0.373 NA
ATOM     21  C   UNL     1      33.844 -23.505 -16.030  0.00  0.00    +0.134 C 
ATOM     22  C   UNL     1      33.329 -23.711 -14.796  0.00  0.00    +0.216 C 
ATOM     23  C   UNL     1      35.400 -24.242 -14.876  0.00  0.00    +0.277 C 
ATOM     24  C   UNL     1      32.021 -23.539 -14.154  0.00  0.00    +0.055 C 
BRANCH  23  25
ATOM     25  C   UNL     1      36.625 -24.729 -14.304  0.00  0.00    +0.066 C 
ATOM     26  C   UNL     1      37.811 -24.690 -15.043  0.00  0.00    +0.006 C 
ATOM     27  C   UNL     1      36.636 -25.248 -13.007  0.00  0.00    +0.006 C 
ATOM     28  C   UNL     1      38.999 -25.166 -14.487  0.00  0.00    +0.000 C 
ATOM     29  C   UNL     1      37.824 -25.723 -12.451  0.00  0.00    +0.000 C 
ATOM     30  C   UNL     1      39.006 -25.682 -13.191  0.00  0.00    +0.000 C 
ENDBRANCH  23  25
ENDBRANCH  18  21
ENDBRANCH  17  18
ENDBRANCH   1  17
TORSDOF 7
ENDMDL
