MODEL 1
REMARK VINA RESULT:      -8.5      0.000      0.000
REMARK  Name = 5280953
REMARK  1 active torsions:
REMARK  status: ('A' for Active; 'I' for Inactive)
REMARK    1  A    between atoms: C_11  and  O_16
REMARK                            x       y       z     vdW  Elec       q    Type
REMARK                         _______ _______ _______ _____ _____    ______ ____
ROOT
ATOM      1  N   UNL     1      34.398 -15.050 -22.460  0.00  0.00    -0.352 N 
ATOM      2  N   UNL     1      33.163 -13.531 -25.586  0.00  0.00    -0.247 NA
ATOM      3  C   UNL     1      34.522 -16.962 -23.601  0.00  0.00    +0.017 A 
ATOM      4  C   UNL     1      34.037 -15.937 -24.475  0.00  0.00    +0.020 A 
ATOM      5  C   UNL     1      33.970 -14.758 -23.733  0.00  0.00    +0.070 A 
ATOM      6  C   UNL     1      34.738 -16.377 -22.353  0.00  0.00    +0.060 A 
ATOM      7  C   UNL     1      33.535 -13.561 -24.287  0.00  0.00    +0.075 C 
ATOM      8  C   UNL     1      34.798 -18.336 -23.759  0.00  0.00    +0.005 C 
ATOM      9  C   UNL     1      35.217 -17.097 -21.253  0.00  0.00    +0.054 C 
ATOM     10  C   UNL     1      33.649 -15.902 -25.823  0.00  0.00    +0.022 C 
ATOM     11  C   UNL     1      35.484 -18.457 -21.434  0.00  0.00    +0.140 C 
ATOM     12  C   UNL     1      35.278 -19.070 -22.668  0.00  0.00    +0.037 C 
ATOM     13  C   UNL     1      33.225 -14.672 -26.309  0.00  0.00    +0.099 C 
ATOM     14  C   UNL     1      33.454 -12.286 -23.522  0.00  0.00    +0.054 C 
ATOM     15  H   UNL     1      34.452 -14.395 -21.726  0.00  0.00    +0.166 HD
ENDROOT
BRANCH  11  16
ATOM     16  O   UNL     1      35.952 -19.193 -20.387  0.00  0.00    -0.471 OA
ATOM     17  C   UNL     1      35.489 -20.537 -20.281  0.00  0.00    +0.252 C 
ENDBRANCH  11  16
TORSDOF 1
ENDMDL
MODEL 2
REMARK VINA RESULT:      -8.4      4.001      7.890
REMARK  Name = 5280953
REMARK  1 active torsions:
REMARK  status: ('A' for Active; 'I' for Inactive)
REMARK    1  A    between atoms: C_11  and  O_16
REMARK                            x       y       z     vdW  Elec       q    Type
REMARK                         _______ _______ _______ _____ _____    ______ ____
ROOT
ATOM      1  N   UNL     1      36.592 -20.702 -19.106  0.00  0.00    -0.352 N 
ATOM      2  N   UNL     1      35.000 -23.158 -16.862  0.00  0.00    -0.247 NA
ATOM      3  C   UNL     1      34.640 -20.626 -20.182  0.00  0.00    +0.017 A 
ATOM      4  C   UNL     1      34.528 -21.549 -19.094  0.00  0.00    +0.020 A 
ATOM      5  C   UNL     1      35.762 -21.574 -18.443  0.00  0.00    +0.070 A 
ATOM      6  C   UNL     1      35.938 -20.114 -20.163  0.00  0.00    +0.060 A 
ATOM      7  C   UNL     1      35.996 -22.375 -17.333  0.00  0.00    +0.075 C 
ATOM      8  C   UNL     1      33.753 -20.178 -21.183  0.00  0.00    +0.005 C 
ATOM      9  C   UNL     1      36.395 -19.176 -21.094  0.00  0.00    +0.054 C 
ATOM     10  C   UNL     1      33.497 -22.364 -18.601  0.00  0.00    +0.022 C 
ATOM     11  C   UNL     1      35.498 -18.747 -22.076  0.00  0.00    +0.140 C 
ATOM     12  C   UNL     1      34.195 -19.239 -22.122  0.00  0.00    +0.037 C 
ATOM     13  C   UNL     1      33.802 -23.138 -17.490  0.00  0.00    +0.099 C 
ATOM     14  C   UNL     1      37.300 -22.423 -16.617  0.00  0.00    +0.054 C 
ATOM     15  H   UNL     1      37.528 -20.523 -18.856  0.00  0.00    +0.166 HD
ENDROOT
BRANCH  11  16
ATOM     16  O   UNL     1      35.905 -17.833 -23.002  0.00  0.00    -0.471 OA
ATOM     17  C   UNL     1      34.984 -17.509 -24.041  0.00  0.00    +0.252 C 
ENDBRANCH  11  16
TORSDOF 1
ENDMDL
MODEL 3
REMARK VINA RESULT:      -8.0     10.606     12.288
REMARK  Name = 5280953
REMARK  1 active torsions:
REMARK  status: ('A' for Active; 'I' for Inactive)
REMARK    1  A    between atoms: C_11  and  O_16
REMARK                            x       y       z     vdW  Elec       q    Type
REMARK                         _______ _______ _______ _____ _____    ______ ____
ROOT
ATOM      1  N   UNL     1      34.652 -24.629 -13.507  0.00  0.00    -0.352 N 
ATOM      2  N   UNL     1      37.873 -23.325 -14.743  0.00  0.00    -0.247 NA
ATOM      3  C   UNL     1      33.728 -23.633 -15.276  0.00  0.00    +0.017 A 
ATOM      4  C   UNL     1      35.139 -23.395 -15.301  0.00  0.00    +0.020 A 
ATOM      5  C   UNL     1      35.686 -24.028 -14.184  0.00  0.00    +0.070 A 
ATOM      6  C   UNL     1      33.455 -24.405 -14.146  0.00  0.00    +0.060 A 
ATOM      7  C   UNL     1      37.046 -23.993 -13.908  0.00  0.00    +0.075 C 
ATOM      8  C   UNL     1      32.655 -23.262 -16.113  0.00  0.00    +0.005 C 
ATOM      9  C   UNL     1      32.164 -24.827 -13.811  0.00  0.00    +0.054 C 
ATOM     10  C   UNL     1      36.001 -22.702 -16.165  0.00  0.00    +0.022 C 
ATOM     11  C   UNL     1      31.118 -24.446 -14.656  0.00  0.00    +0.140 C 
ATOM     12  C   UNL     1      31.358 -23.675 -15.792  0.00  0.00    +0.037 C 
ATOM     13  C   UNL     1      37.347 -22.709 -15.826  0.00  0.00    +0.099 C 
ATOM     14  C   UNL     1      37.660 -24.659 -12.726  0.00  0.00    +0.054 C 
ATOM     15  H   UNL     1      34.756 -25.148 -12.677  0.00  0.00    +0.166 HD
ENDROOT
BRANCH  11  16
ATOM     16  O   UNL     1      29.845 -24.837 -14.364  0.00  0.00    -0.471 OA
ATOM     17  C   UNL     1      28.845 -24.569 -15.344  0.00  0.00    +0.252 C 
ENDBRANCH  11  16
TORSDOF 1
ENDMDL
MODEL 4
REMARK VINA RESULT:      -8.0      2.938      5.298
REMARK  Name = 5280953
REMARK  1 active torsions:
REMARK  status: ('A' for Active; 'I' for Inactive)
REMARK    1  A    between atoms: C_11  and  O_16
REMARK                            x       y       z     vdW  Elec       q    Type
REMARK                         _______ _______ _______ _____ _____    ______ ____
ROOT
ATOM      1  N   UNL     1      33.965 -16.268 -21.328  0.00  0.00    -0.352 N 
ATOM      2  N   UNL     1      35.184 -18.304 -24.152  0.00  0.00    -0.247 NA
ATOM      3  C   UNL     1      33.308 -14.787 -22.860  0.00  0.00    +0.017 A 
ATOM      4  C   UNL     1      33.916 -15.897 -23.527  0.00  0.00    +0.020 A 
ATOM      5  C   UNL     1      34.316 -16.803 -22.544  0.00  0.00    +0.070 A 
ATOM      6  C   UNL     1      33.353 -15.048 -21.490  0.00  0.00    +0.060 A 
ATOM      7  C   UNL     1      34.946 -18.000 -22.856  0.00  0.00    +0.075 C 
ATOM      8  C   UNL     1      32.720 -13.581 -23.298  0.00  0.00    +0.005 C 
ATOM      9  C   UNL     1      32.840 -14.165 -20.534  0.00  0.00    +0.054 C 
ATOM     10  C   UNL     1      34.165 -16.217 -24.871  0.00  0.00    +0.022 C 
ATOM     11  C   UNL     1      32.263 -12.977 -20.993  0.00  0.00    +0.140 C 
ATOM     12  C   UNL     1      32.202 -12.688 -22.354  0.00  0.00    +0.037 C 
ATOM     13  C   UNL     1      34.798 -17.429 -25.108  0.00  0.00    +0.099 C 
ATOM     14  C   UNL     1      35.384 -18.987 -21.830  0.00  0.00    +0.054 C 
ATOM     15  H   UNL     1      34.131 -16.701 -20.459  0.00  0.00    +0.166 HD
ENDROOT
BRANCH  11  16
ATOM     16  O   UNL     1      31.751 -12.090 -20.093  0.00  0.00    -0.471 OA
ATOM     17  C   UNL     1      30.826 -11.126 -20.588  0.00  0.00    +0.252 C 
ENDBRANCH  11  16
TORSDOF 1
ENDMDL
MODEL 5
REMARK VINA RESULT:      -7.9      2.660      5.498
REMARK  Name = 5280953
REMARK  1 active torsions:
REMARK  status: ('A' for Active; 'I' for Inactive)
REMARK    1  A    between atoms: C_11  and  O_16
REMARK                            x       y       z     vdW  Elec       q    Type
REMARK                         _______ _______ _______ _____ _____    ______ ____
ROOT
ATOM      1  N   UNL     1      34.862 -16.028 -22.356  0.00  0.00    -0.352 N 
ATOM      2  N   UNL     1      35.270 -19.555 -23.353  0.00  0.00    -0.247 NA
ATOM      3  C   UNL     1      34.002 -15.697 -24.387  0.00  0.00    +0.017 A 
ATOM      4  C   UNL     1      34.361 -17.077 -24.260  0.00  0.00    +0.020 A 
ATOM      5  C   UNL     1      34.895 -17.250 -22.983  0.00  0.00    +0.070 A 
ATOM      6  C   UNL     1      34.325 -15.069 -23.184  0.00  0.00    +0.060 A 
ATOM      7  C   UNL     1      35.347 -18.483 -22.533  0.00  0.00    +0.075 C 
ATOM      8  C   UNL     1      33.429 -14.924 -25.419  0.00  0.00    +0.005 C 
ATOM      9  C   UNL     1      34.104 -13.707 -22.958  0.00  0.00    +0.054 C 
ATOM     10  C   UNL     1      34.284 -18.192 -25.109  0.00  0.00    +0.022 C 
ATOM     11  C   UNL     1      33.535 -12.962 -23.995  0.00  0.00    +0.140 C 
ATOM     12  C   UNL     1      33.201 -13.559 -25.208  0.00  0.00    +0.037 C 
ATOM     13  C   UNL     1      34.755 -19.391 -24.592  0.00  0.00    +0.099 C 
ATOM     14  C   UNL     1      35.920 -18.700 -21.175  0.00  0.00    +0.054 C 
ATOM     15  H   UNL     1      35.179 -15.862 -21.439  0.00  0.00    +0.166 HD
ENDROOT
BRANCH  11  16
ATOM     16  O   UNL     1      33.304 -11.631 -23.814  0.00  0.00    -0.471 OA
ATOM     17  C   UNL     1      34.151 -10.725 -24.517  0.00  0.00    +0.252 C 
ENDBRANCH  11  16
TORSDOF 1
ENDMDL
MODEL 6
REMARK VINA RESULT:      -7.9      3.122      5.868
REMARK  Name = 5280953
REMARK  1 active torsions:
REMARK  status: ('A' for Active; 'I' for Inactive)
REMARK    1  A    between atoms: C_11  and  O_16
REMARK                            x       y       z     vdW  Elec       q    Type
REMARK                         _______ _______ _______ _____ _____    ______ ____
ROOT
ATOM      1  N   UNL     1      33.434 -15.124 -23.746  0.00  0.00    -0.352 N 
ATOM      2  N   UNL     1      35.450 -18.111 -22.959  0.00  0.00    -0.247 NA
ATOM      3  C   UNL     1      33.334 -14.781 -21.545  0.00  0.00    +0.017 A 
ATOM      4  C   UNL     1      34.101 -15.964 -21.790  0.00  0.00    +0.020 A 
ATOM      5  C   UNL     1      34.144 -16.151 -23.172  0.00  0.00    +0.070 A 
ATOM      6  C   UNL     1      32.933 -14.280 -22.783  0.00  0.00    +0.060 A 
ATOM      7  C   UNL     1      34.816 -17.219 -23.752  0.00  0.00    +0.075 C 
ATOM      8  C   UNL     1      32.944 -14.089 -20.379  0.00  0.00    +0.005 C 
ATOM      9  C   UNL     1      32.162 -13.120 -22.917  0.00  0.00    +0.054 C 
ATOM     10  C   UNL     1      34.761 -16.893 -20.970  0.00  0.00    +0.022 C 
ATOM     11  C   UNL     1      31.788 -12.452 -21.747  0.00  0.00    +0.140 C 
ATOM     12  C   UNL     1      32.173 -12.928 -20.496  0.00  0.00    +0.037 C 
ATOM     13  C   UNL     1      35.410 -17.934 -21.619  0.00  0.00    +0.099 C 
ATOM     14  C   UNL     1      34.880 -17.445 -25.223  0.00  0.00    +0.054 C 
ATOM     15  H   UNL     1      33.303 -15.009 -24.716  0.00  0.00    +0.166 HD
ENDROOT
BRANCH  11  16
ATOM     16  O   UNL     1      31.037 -11.318 -21.835  0.00  0.00    -0.471 OA
ATOM     17  C   UNL     1      31.687 -10.147 -22.323  0.00  0.00    +0.252 C 
ENDBRANCH  11  16
TORSDOF 1
ENDMDL
MODEL 7
REMARK VINA RESULT:      -7.9      4.251      7.809
REMARK  Name = 5280953
REMARK  1 active torsions:
REMARK  status: ('A' for Active; 'I' for Inactive)
REMARK    1  A    between atoms: C_11  and  O_16
REMARK                            x       y       z     vdW  Elec       q    Type
REMARK                         _______ _______ _______ _____ _____    ______ ____
ROOT
ATOM      1  N   UNL     1      33.770 -21.183 -19.882  0.00  0.00    -0.352 N 
ATOM      2  N   UNL     1      35.323 -22.938 -17.035  0.00  0.00    -0.247 NA
ATOM      3  C   UNL     1      35.758 -20.223 -20.197  0.00  0.00    +0.017 A 
ATOM      4  C   UNL     1      35.846 -21.103 -19.072  0.00  0.00    +0.020 A 
ATOM      5  C   UNL     1      34.590 -21.685 -18.901  0.00  0.00    +0.070 A 
ATOM      6  C   UNL     1      34.451 -20.295 -20.681  0.00  0.00    +0.060 A 
ATOM      7  C   UNL     1      34.331 -22.598 -17.888  0.00  0.00    +0.075 C 
ATOM      8  C   UNL     1      36.673 -19.370 -20.850  0.00  0.00    +0.005 C 
ATOM      9  C   UNL     1      34.011 -19.558 -21.786  0.00  0.00    +0.054 C 
ATOM     10  C   UNL     1      36.874 -21.459 -18.184  0.00  0.00    +0.022 C 
ATOM     11  C   UNL     1      34.936 -18.720 -22.416  0.00  0.00    +0.140 C 
ATOM     12  C   UNL     1      36.248 -18.627 -21.957  0.00  0.00    +0.037 C 
ATOM     13  C   UNL     1      36.542 -22.376 -17.196  0.00  0.00    +0.099 C 
ATOM     14  C   UNL     1      33.002 -23.238 -17.680  0.00  0.00    +0.054 C 
ATOM     15  H   UNL     1      32.822 -21.426 -19.996  0.00  0.00    +0.166 HD
ENDROOT
BRANCH  11  16
ATOM     16  O   UNL     1      34.547 -17.986 -23.496  0.00  0.00    -0.471 OA
ATOM     17  C   UNL     1      34.533 -18.648 -24.758  0.00  0.00    +0.252 C 
ENDBRANCH  11  16
TORSDOF 1
ENDMDL
MODEL 8
REMARK VINA RESULT:      -7.8      6.644     11.110
REMARK  Name = 5280953
REMARK  1 active torsions:
REMARK  status: ('A' for Active; 'I' for Inactive)
REMARK    1  A    between atoms: C_11  and  O_16
REMARK                            x       y       z     vdW  Elec       q    Type
REMARK                         _______ _______ _______ _____ _____    ______ ____
ROOT
ATOM      1  N   UNL     1      33.523 -23.502 -16.249  0.00  0.00    -0.352 N 
ATOM      2  N   UNL     1      34.079 -24.405 -12.716  0.00  0.00    -0.247 NA
ATOM      3  C   UNL     1      35.603 -22.700 -16.228  0.00  0.00    +0.017 A 
ATOM      4  C   UNL     1      35.302 -23.228 -14.932  0.00  0.00    +0.020 A 
ATOM      5  C   UNL     1      33.997 -23.719 -14.978  0.00  0.00    +0.070 A 
ATOM      6  C   UNL     1      34.475 -22.886 -17.026  0.00  0.00    +0.060 A 
ATOM      7  C   UNL     1      33.390 -24.305 -13.875  0.00  0.00    +0.075 C 
ATOM      8  C   UNL     1      36.736 -22.080 -16.795  0.00  0.00    +0.005 C 
ATOM      9  C   UNL     1      34.421 -22.485 -18.365  0.00  0.00    +0.054 C 
ATOM     10  C   UNL     1      36.014 -23.333 -13.726  0.00  0.00    +0.022 C 
ATOM     11  C   UNL     1      35.556 -21.873 -18.905  0.00  0.00    +0.140 C 
ATOM     12  C   UNL     1      36.698 -21.673 -18.133  0.00  0.00    +0.037 C 
ATOM     13  C   UNL     1      35.344 -23.929 -12.667  0.00  0.00    +0.099 C 
ATOM     14  C   UNL     1      32.000 -24.840 -13.893  0.00  0.00    +0.054 C 
ATOM     15  H   UNL     1      32.622 -23.754 -16.559  0.00  0.00    +0.166 HD
ENDROOT
BRANCH  11  16
ATOM     16  O   UNL     1      35.543 -21.468 -20.207  0.00  0.00    -0.471 OA
ATOM     17  C   UNL     1      34.863 -20.249 -20.498  0.00  0.00    +0.252 C 
ENDBRANCH  11  16
TORSDOF 1
ENDMDL
MODEL 9
REMARK VINA RESULT:      -7.8      5.355      9.564
REMARK  Name = 5280953
REMARK  1 active torsions:
REMARK  status: ('A' for Active; 'I' for Inactive)
REMARK    1  A    between atoms: C_11  and  O_16
REMARK                            x       y       z     vdW  Elec       q    Type
REMARK                         _______ _______ _______ _____ _____    ______ ____
ROOT
ATOM      1  N   UNL     1      32.385 -22.309 -18.108  0.00  0.00    -0.352 N 
ATOM      2  N   UNL     1      32.644 -24.250 -14.983  0.00  0.00    -0.247 NA
ATOM      3  C   UNL     1      34.613 -22.231 -18.083  0.00  0.00    +0.017 A 
ATOM      4  C   UNL     1      34.167 -22.965 -16.938  0.00  0.00    +0.020 A 
ATOM      5  C   UNL     1      32.773 -22.995 -16.983  0.00  0.00    +0.070 A 
ATOM      6  C   UNL     1      33.479 -21.836 -18.793  0.00  0.00    +0.060 A 
ATOM      7  C   UNL     1      32.016 -23.635 -16.010  0.00  0.00    +0.075 C 
ATOM      8  C   UNL     1      35.882 -21.867 -18.581  0.00  0.00    +0.005 C 
ATOM      9  C   UNL     1      33.548 -21.095 -19.978  0.00  0.00    +0.054 C 
ATOM     10  C   UNL     1      34.815 -23.606 -15.870  0.00  0.00    +0.022 C 
ATOM     11  C   UNL     1      34.817 -20.746 -20.451  0.00  0.00    +0.140 C 
ATOM     12  C   UNL     1      35.968 -21.126 -19.765  0.00  0.00    +0.037 C 
ATOM     13  C   UNL     1      33.995 -24.223 -14.936  0.00  0.00    +0.099 C 
ATOM     14  C   UNL     1      30.528 -23.685 -16.030  0.00  0.00    +0.054 C 
ATOM     15  H   UNL     1      31.449 -22.175 -18.386  0.00  0.00    +0.166 HD
ENDROOT
BRANCH  11  16
ATOM     16  O   UNL     1      34.926 -20.024 -21.602  0.00  0.00    -0.471 OA
ATOM     17  C   UNL     1      35.106 -18.616 -21.469  0.00  0.00    +0.252 C 
ENDBRANCH  11  16
TORSDOF 1
ENDMDL
