MODEL 1
REMARK VINA RESULT:     -10.1      0.000      0.000
REMARK  Name = 447341
REMARK  7 active torsions:
REMARK  status: ('A' for Active; 'I' for Inactive)
REMARK    1  A    between atoms: C_1  and  N_2
REMARK    2  A    between atoms: C_1  and  C_12
REMARK    3  A    between atoms: C_1  and  C_24
REMARK    4  A    between atoms: C_6  and  C_9
REMARK    5  A    between atoms: C_12  and  C_13
REMARK    6  A    between atoms: C_13  and  C_14
REMARK    7  A    between atoms: C_24  and  O_25
REMARK                            x       y       z     vdW  Elec       q    Type
REMARK                         _______ _______ _______ _____ _____    ______ ____
ROOT
ATOM      1  C   UNL     1      35.980 -24.891 -12.248  0.00  0.00    +0.089 C 
ENDROOT
BRANCH   1   2
ATOM      2  N   UNL     1      37.098 -25.457 -13.019  0.00  0.00    -0.246 NA
ATOM      3  N   UNL     1      38.186 -26.794 -14.376  0.00  0.00    -0.251 NA
ATOM      4  C   UNL     1      38.361 -24.983 -13.025  0.00  0.00    +0.125 C 
ATOM      5  C   UNL     1      37.019 -26.534 -13.829  0.00  0.00    +0.201 C 
ATOM      6  C   UNL     1      39.027 -25.830 -13.878  0.00  0.00    +0.124 C 
BRANCH   6   9
ATOM      7  O   UNL     1      40.974 -24.700 -14.602  0.00  0.00    -0.269 OA
ATOM      8  N   UNL     1      41.173 -26.923 -14.139  0.00  0.00    -0.324 N 
ATOM      9  C   UNL     1      40.411 -25.755 -14.234  0.00  0.00    +0.257 C 
ATOM     10  H   UNL     1      42.129 -26.909 -14.376  0.00  0.00    +0.145 HD
ATOM     11  H   UNL     1      40.754 -27.761 -13.837  0.00  0.00    +0.145 HD
ENDBRANCH   6   9
ENDBRANCH   1   2
BRANCH   1  12
ATOM     12  C   UNL     1      34.886 -24.233 -13.124  0.00  0.00    +0.023 C 
BRANCH  12  13
ATOM     13  C   UNL     1      35.420 -23.316 -14.243  0.00  0.00    +0.028 C 
BRANCH  13  14
ATOM     14  C   UNL     1      34.543 -23.170 -15.449  0.00  0.00    -0.022 C 
ATOM     15  C   UNL     1      35.030 -22.675 -16.669  0.00  0.00    -0.004 C 
ATOM     16  C   UNL     1      33.206 -23.546 -15.316  0.00  0.00    -0.004 C 
ATOM     17  C   UNL     1      34.151 -22.562 -17.771  0.00  0.00    -0.000 C 
ATOM     18  C   UNL     1      36.374 -22.293 -16.821  0.00  0.00    -0.000 C 
ATOM     19  C   UNL     1      32.340 -23.434 -16.401  0.00  0.00    -0.000 C 
ATOM     20  C   UNL     1      32.808 -22.945 -17.621  0.00  0.00    -0.000 C 
ATOM     21  C   UNL     1      34.638 -22.068 -18.992  0.00  0.00    -0.000 C 
ATOM     22  C   UNL     1      36.842 -21.804 -18.041  0.00  0.00    -0.000 C 
ATOM     23  C   UNL     1      35.976 -21.691 -19.125  0.00  0.00    -0.000 C 
ENDBRANCH  13  14
ENDBRANCH  12  13
ENDBRANCH   1  12
BRANCH   1  24
ATOM     24  C   UNL     1      36.500 -23.894 -11.195  0.00  0.00    +0.153 C 
BRANCH  24  25
ATOM     25  O   UNL     1      36.037 -24.244  -9.895  0.00  0.00    -0.381 OA
ATOM     26  H   UNL     1      35.091 -24.043  -9.823  0.00  0.00    +0.210 HD
ENDBRANCH  24  25
ENDBRANCH   1  24
TORSDOF 7
ENDMDL
MODEL 2
REMARK VINA RESULT:     -10.0      4.793      7.386
REMARK  Name = 447341
REMARK  7 active torsions:
REMARK  status: ('A' for Active; 'I' for Inactive)
REMARK    1  A    between atoms: C_1  and  N_2
REMARK    2  A    between atoms: C_1  and  C_12
REMARK    3  A    between atoms: C_1  and  C_24
REMARK    4  A    between atoms: C_6  and  C_9
REMARK    5  A    between atoms: C_12  and  C_13
REMARK    6  A    between atoms: C_13  and  C_14
REMARK    7  A    between atoms: C_24  and  O_25
REMARK                            x       y       z     vdW  Elec       q    Type
REMARK                         _______ _______ _______ _____ _____    ______ ____
ROOT
ATOM      1  C   UNL     1      32.426 -23.202 -15.304  0.00  0.00    +0.089 C 
ENDROOT
BRANCH   1   2
ATOM      2  N   UNL     1      31.023 -23.517 -15.615  0.00  0.00    -0.246 NA
ATOM      3  N   UNL     1      29.174 -24.683 -15.800  0.00  0.00    -0.251 NA
ATOM      4  C   UNL     1      30.127 -22.654 -16.137  0.00  0.00    +0.125 C 
ATOM      5  C   UNL     1      30.433 -24.717 -15.425  0.00  0.00    +0.201 C 
ATOM      6  C   UNL     1      28.977 -23.400 -16.247  0.00  0.00    +0.124 C 
BRANCH   6   9
ATOM      7  O   UNL     1      27.305 -23.182 -17.905  0.00  0.00    -0.269 OA
ATOM      8  N   UNL     1      26.900 -22.208 -15.884  0.00  0.00    -0.324 N 
ATOM      9  C   UNL     1      27.717 -22.942 -16.748  0.00  0.00    +0.257 C 
ATOM     10  H   UNL     1      26.026 -21.877 -16.195  0.00  0.00    +0.145 HD
ATOM     11  H   UNL     1      27.198 -22.021 -14.965  0.00  0.00    +0.145 HD
ENDBRANCH   6   9
ENDBRANCH   1   2
BRANCH   1  12
ATOM     12  C   UNL     1      33.413 -23.548 -16.445  0.00  0.00    +0.023 C 
BRANCH  12  13
ATOM     13  C   UNL     1      33.141 -22.818 -17.777  0.00  0.00    +0.028 C 
BRANCH  13  14
ATOM     14  C   UNL     1      34.315 -22.130 -18.402  0.00  0.00    -0.022 C 
ATOM     15  C   UNL     1      34.169 -21.228 -19.469  0.00  0.00    -0.004 C 
ATOM     16  C   UNL     1      35.578 -22.419 -17.883  0.00  0.00    -0.004 C 
ATOM     17  C   UNL     1      35.318 -20.610 -20.016  0.00  0.00    -0.000 C 
ATOM     18  C   UNL     1      32.906 -20.924 -20.004  0.00  0.00    -0.000 C 
ATOM     19  C   UNL     1      36.708 -21.811 -18.421  0.00  0.00    -0.000 C 
ATOM     20  C   UNL     1      36.581 -20.912 -19.480  0.00  0.00    -0.000 C 
ATOM     21  C   UNL     1      35.172 -19.708 -21.081  0.00  0.00    -0.000 C 
ATOM     22  C   UNL     1      32.779 -20.026 -21.063  0.00  0.00    -0.000 C 
ATOM     23  C   UNL     1      33.909 -19.419 -21.602  0.00  0.00    -0.000 C 
ENDBRANCH  13  14
ENDBRANCH  12  13
ENDBRANCH   1  12
BRANCH   1  24
ATOM     24  C   UNL     1      32.855 -23.887 -13.993  0.00  0.00    +0.153 C 
BRANCH  24  25
ATOM     25  O   UNL     1      32.496 -23.094 -12.867  0.00  0.00    -0.381 OA
ATOM     26  H   UNL     1      32.084 -23.657 -12.193  0.00  0.00    +0.210 HD
ENDBRANCH  24  25
ENDBRANCH   1  24
TORSDOF 7
ENDMDL
MODEL 3
REMARK VINA RESULT:      -9.8      0.811      2.092
REMARK  Name = 447341
REMARK  7 active torsions:
REMARK  status: ('A' for Active; 'I' for Inactive)
REMARK    1  A    between atoms: C_1  and  N_2
REMARK    2  A    between atoms: C_1  and  C_12
REMARK    3  A    between atoms: C_1  and  C_24
REMARK    4  A    between atoms: C_6  and  C_9
REMARK    5  A    between atoms: C_12  and  C_13
REMARK    6  A    between atoms: C_13  and  C_14
REMARK    7  A    between atoms: C_24  and  O_25
REMARK                            x       y       z     vdW  Elec       q    Type
REMARK                         _______ _______ _______ _____ _____    ______ ____
ROOT
ATOM      1  C   UNL     1      35.911 -24.912 -12.573  0.00  0.00    +0.089 C 
ENDROOT
BRANCH   1   2
ATOM      2  N   UNL     1      37.074 -25.472 -13.279  0.00  0.00    -0.246 NA
ATOM      3  N   UNL     1      38.242 -26.787 -14.591  0.00  0.00    -0.251 NA
ATOM      4  C   UNL     1      38.339 -25.011 -13.186  0.00  0.00    +0.125 C 
ATOM      5  C   UNL     1      37.042 -26.528 -14.119  0.00  0.00    +0.201 C 
ATOM      6  C   UNL     1      39.055 -25.845 -14.012  0.00  0.00    +0.124 C 
BRANCH   6   9
ATOM      7  O   UNL     1      41.036 -24.751 -14.698  0.00  0.00    -0.269 OA
ATOM      8  N   UNL     1      41.229 -26.913 -14.002  0.00  0.00    -0.324 N 
ATOM      9  C   UNL     1      40.461 -25.776 -14.269  0.00  0.00    +0.257 C 
ATOM     10  H   UNL     1      42.200 -26.902 -14.167  0.00  0.00    +0.145 HD
ATOM     11  H   UNL     1      40.799 -27.725 -13.649  0.00  0.00    +0.145 HD
ENDBRANCH   6   9
ENDBRANCH   1   2
BRANCH   1  12
ATOM     12  C   UNL     1      35.346 -23.626 -13.222  0.00  0.00    +0.023 C 
BRANCH  12  13
ATOM     13  C   UNL     1      34.807 -23.808 -14.657  0.00  0.00    +0.028 C 
BRANCH  13  14
ATOM     14  C   UNL     1      35.534 -23.062 -15.733  0.00  0.00    -0.022 C 
ATOM     15  C   UNL     1      34.918 -22.718 -16.947  0.00  0.00    -0.004 C 
ATOM     16  C   UNL     1      36.863 -22.716 -15.485  0.00  0.00    -0.004 C 
ATOM     17  C   UNL     1      35.659 -22.012 -17.923  0.00  0.00    -0.000 C 
ATOM     18  C   UNL     1      33.581 -23.057 -17.212  0.00  0.00    -0.000 C 
ATOM     19  C   UNL     1      37.592 -22.022 -16.446  0.00  0.00    -0.000 C 
ATOM     20  C   UNL     1      36.996 -21.672 -17.658  0.00  0.00    -0.000 C 
ATOM     21  C   UNL     1      35.044 -21.667 -19.137  0.00  0.00    -0.000 C 
ATOM     22  C   UNL     1      32.984 -22.706 -18.424  0.00  0.00    -0.000 C 
ATOM     23  C   UNL     1      33.714 -22.013 -19.385  0.00  0.00    -0.000 C 
ENDBRANCH  13  14
ENDBRANCH  12  13
ENDBRANCH   1  12
BRANCH   1  24
ATOM     24  C   UNL     1      36.246 -24.667 -11.090  0.00  0.00    +0.153 C 
BRANCH  24  25
ATOM     25  O   UNL     1      35.186 -25.116 -10.252  0.00  0.00    -0.381 OA
ATOM     26  H   UNL     1      35.017 -24.456  -9.562  0.00  0.00    +0.210 HD
ENDBRANCH  24  25
ENDBRANCH   1  24
TORSDOF 7
ENDMDL
MODEL 4
REMARK VINA RESULT:      -9.8      5.096      7.820
REMARK  Name = 447341
REMARK  7 active torsions:
REMARK  status: ('A' for Active; 'I' for Inactive)
REMARK    1  A    between atoms: C_1  and  N_2
REMARK    2  A    between atoms: C_1  and  C_12
REMARK    3  A    between atoms: C_1  and  C_24
REMARK    4  A    between atoms: C_6  and  C_9
REMARK    5  A    between atoms: C_12  and  C_13
REMARK    6  A    between atoms: C_13  and  C_14
REMARK    7  A    between atoms: C_24  and  O_25
REMARK                            x       y       z     vdW  Elec       q    Type
REMARK                         _______ _______ _______ _____ _____    ______ ____
ROOT
ATOM      1  C   UNL     1      30.805 -23.623 -14.496  0.00  0.00    +0.089 C 
ENDROOT
BRANCH   1   2
ATOM      2  N   UNL     1      29.575 -23.537 -15.298  0.00  0.00    -0.246 NA
ATOM      3  N   UNL     1      28.016 -24.109 -16.733  0.00  0.00    -0.251 NA
ATOM      4  C   UNL     1      28.699 -22.510 -15.278  0.00  0.00    +0.125 C 
ATOM      5  C   UNL     1      29.147 -24.474 -16.171  0.00  0.00    +0.201 C 
ATOM      6  C   UNL     1      27.733 -22.884 -16.181  0.00  0.00    +0.124 C 
BRANCH   6   9
ATOM      7  O   UNL     1      25.580 -21.996 -15.769  0.00  0.00    -0.269 OA
ATOM      8  N   UNL     1      26.543 -21.502 -17.775  0.00  0.00    -0.324 N 
ATOM      9  C   UNL     1      26.565 -22.133 -16.528  0.00  0.00    +0.257 C 
ATOM     10  H   UNL     1      25.755 -20.977 -18.048  0.00  0.00    +0.145 HD
ATOM     11  H   UNL     1      27.314 -21.584 -18.381  0.00  0.00    +0.145 HD
ENDBRANCH   6   9
ENDBRANCH   1   2
BRANCH   1  12
ATOM     12  C   UNL     1      31.999 -22.841 -15.097  0.00  0.00    +0.023 C 
BRANCH  12  13
ATOM     13  C   UNL     1      32.762 -23.585 -16.212  0.00  0.00    +0.028 C 
BRANCH  13  14
ATOM     14  C   UNL     1      34.179 -23.156 -16.439  0.00  0.00    -0.022 C 
ATOM     15  C   UNL     1      34.575 -22.477 -17.602  0.00  0.00    -0.004 C 
ATOM     16  C   UNL     1      35.107 -23.459 -15.441  0.00  0.00    -0.004 C 
ATOM     17  C   UNL     1      35.929 -22.098 -17.756  0.00  0.00    -0.000 C 
ATOM     18  C   UNL     1      33.655 -22.163 -18.616  0.00  0.00    -0.000 C 
ATOM     19  C   UNL     1      36.439 -23.087 -15.593  0.00  0.00    -0.000 C 
ATOM     20  C   UNL     1      36.849 -22.411 -16.742  0.00  0.00    -0.000 C 
ATOM     21  C   UNL     1      36.325 -21.418 -18.919  0.00  0.00    -0.000 C 
ATOM     22  C   UNL     1      34.065 -21.486 -19.766  0.00  0.00    -0.000 C 
ATOM     23  C   UNL     1      35.398 -21.115 -19.917  0.00  0.00    -0.000 C 
ENDBRANCH  13  14
ENDBRANCH  12  13
ENDBRANCH   1  12
BRANCH   1  24
ATOM     24  C   UNL     1      31.190 -25.095 -14.253  0.00  0.00    +0.153 C 
BRANCH  24  25
ATOM     25  O   UNL     1      32.126 -25.202 -13.186  0.00  0.00    -0.381 OA
ATOM     26  H   UNL     1      32.931 -25.638 -13.504  0.00  0.00    +0.210 HD
ENDBRANCH  24  25
ENDBRANCH   1  24
TORSDOF 7
ENDMDL
MODEL 5
REMARK VINA RESULT:      -9.6      1.308      3.059
REMARK  Name = 447341
REMARK  7 active torsions:
REMARK  status: ('A' for Active; 'I' for Inactive)
REMARK    1  A    between atoms: C_1  and  N_2
REMARK    2  A    between atoms: C_1  and  C_12
REMARK    3  A    between atoms: C_1  and  C_24
REMARK    4  A    between atoms: C_6  and  C_9
REMARK    5  A    between atoms: C_12  and  C_13
REMARK    6  A    between atoms: C_13  and  C_14
REMARK    7  A    between atoms: C_24  and  O_25
REMARK                            x       y       z     vdW  Elec       q    Type
REMARK                         _______ _______ _______ _____ _____    ______ ____
ROOT
ATOM      1  C   UNL     1      36.031 -24.577 -12.173  0.00  0.00    +0.089 C 
ENDROOT
BRANCH   1   2
ATOM      2  N   UNL     1      37.120 -25.232 -12.914  0.00  0.00    -0.246 NA
ATOM      3  N   UNL     1      38.155 -26.711 -14.161  0.00  0.00    -0.251 NA
ATOM      4  C   UNL     1      38.387 -24.774 -13.006  0.00  0.00    +0.125 C 
ATOM      5  C   UNL     1      37.008 -26.384 -13.608  0.00  0.00    +0.201 C 
ATOM      6  C   UNL     1      39.019 -25.711 -13.788  0.00  0.00    +0.124 C 
BRANCH   6   9
ATOM      7  O   UNL     1      40.986 -24.652 -14.564  0.00  0.00    -0.269 OA
ATOM      8  N   UNL     1      41.107 -26.888 -14.137  0.00  0.00    -0.324 N 
ATOM      9  C   UNL     1      40.392 -25.689 -14.190  0.00  0.00    +0.257 C 
ATOM     10  H   UNL     1      42.054 -26.910 -14.407  0.00  0.00    +0.145 HD
ATOM     11  H   UNL     1      40.664 -27.712 -13.831  0.00  0.00    +0.145 HD
ENDBRANCH   6   9
ENDBRANCH   1   2
BRANCH   1  12
ATOM     12  C   UNL     1      35.158 -23.640 -13.041  0.00  0.00    +0.023 C 
BRANCH  12  13
ATOM     13  C   UNL     1      33.860 -24.279 -13.577  0.00  0.00    +0.028 C 
BRANCH  13  14
ATOM     14  C   UNL     1      33.392 -23.795 -14.916  0.00  0.00    -0.022 C 
ATOM     15  C   UNL     1      32.048 -23.473 -15.164  0.00  0.00    -0.004 C 
ATOM     16  C   UNL     1      34.351 -23.675 -15.923  0.00  0.00    -0.004 C 
ATOM     17  C   UNL     1      31.670 -23.021 -16.450  0.00  0.00    -0.000 C 
ATOM     18  C   UNL     1      31.070 -23.587 -14.162  0.00  0.00    -0.000 C 
ATOM     19  C   UNL     1      33.979 -23.231 -17.189  0.00  0.00    -0.000 C 
ATOM     20  C   UNL     1      32.648 -22.905 -17.452  0.00  0.00    -0.000 C 
ATOM     21  C   UNL     1      30.327 -22.698 -16.698  0.00  0.00    -0.000 C 
ATOM     22  C   UNL     1      29.739 -23.262 -14.425  0.00  0.00    -0.000 C 
ATOM     23  C   UNL     1      29.368 -22.819 -15.691  0.00  0.00    -0.000 C 
ENDBRANCH  13  14
ENDBRANCH  12  13
ENDBRANCH   1  12
BRANCH   1  24
ATOM     24  C   UNL     1      36.588 -23.820 -10.952  0.00  0.00    +0.153 C 
BRANCH  24  25
ATOM     25  O   UNL     1      35.966 -24.268  -9.753  0.00  0.00    -0.381 OA
ATOM     26  H   UNL     1      36.248 -25.175  -9.561  0.00  0.00    +0.210 HD
ENDBRANCH  24  25
ENDBRANCH   1  24
TORSDOF 7
ENDMDL
MODEL 6
REMARK VINA RESULT:      -9.5      9.313     12.615
REMARK  Name = 447341
REMARK  7 active torsions:
REMARK  status: ('A' for Active; 'I' for Inactive)
REMARK    1  A    between atoms: C_1  and  N_2
REMARK    2  A    between atoms: C_1  and  C_12
REMARK    3  A    between atoms: C_1  and  C_24
REMARK    4  A    between atoms: C_6  and  C_9
REMARK    5  A    between atoms: C_12  and  C_13
REMARK    6  A    between atoms: C_13  and  C_14
REMARK    7  A    between atoms: C_24  and  O_25
REMARK                            x       y       z     vdW  Elec       q    Type
REMARK                         _______ _______ _______ _____ _____    ______ ____
ROOT
ATOM      1  C   UNL     1      33.927 -16.074 -23.782  0.00  0.00    +0.089 C 
ENDROOT
BRANCH   1   2
ATOM      2  N   UNL     1      33.469 -14.736 -23.375  0.00  0.00    -0.246 NA
ATOM      3  N   UNL     1      33.227 -12.556 -23.395  0.00  0.00    -0.251 NA
ATOM      4  C   UNL     1      32.663 -14.473 -22.325  0.00  0.00    +0.125 C 
ATOM      5  C   UNL     1      33.791 -13.580 -23.994  0.00  0.00    +0.201 C 
ATOM      6  C   UNL     1      32.523 -13.106 -22.352  0.00  0.00    +0.124 C 
BRANCH   6   9
ATOM      7  O   UNL     1      31.926 -12.328 -20.200  0.00  0.00    -0.269 OA
ATOM      8  N   UNL     1      30.775 -11.473 -21.972  0.00  0.00    -0.324 N 
ATOM      9  C   UNL     1      31.754 -12.317 -21.440  0.00  0.00    +0.257 C 
ATOM     10  H   UNL     1      30.226 -10.916 -21.374  0.00  0.00    +0.145 HD
ATOM     11  H   UNL     1      30.633 -11.437 -22.946  0.00  0.00    +0.145 HD
ENDBRANCH   6   9
ENDBRANCH   1   2
BRANCH   1  12
ATOM     12  C   UNL     1      34.834 -16.768 -22.738  0.00  0.00    +0.023 C 
BRANCH  12  13
ATOM     13  C   UNL     1      34.135 -17.854 -21.894  0.00  0.00    +0.028 C 
BRANCH  13  14
ATOM     14  C   UNL     1      35.032 -18.858 -21.239  0.00  0.00    -0.022 C 
ATOM     15  C   UNL     1      34.526 -19.942 -20.503  0.00  0.00    -0.004 C 
ATOM     16  C   UNL     1      36.409 -18.679 -21.387  0.00  0.00    -0.004 C 
ATOM     17  C   UNL     1      35.427 -20.857 -19.909  0.00  0.00    -0.000 C 
ATOM     18  C   UNL     1      33.144 -20.138 -20.345  0.00  0.00    -0.000 C 
ATOM     19  C   UNL     1      37.295 -19.580 -20.803  0.00  0.00    -0.000 C 
ATOM     20  C   UNL     1      36.808 -20.662 -20.068  0.00  0.00    -0.000 C 
ATOM     21  C   UNL     1      34.921 -21.941 -19.174  0.00  0.00    -0.000 C 
ATOM     22  C   UNL     1      32.658 -21.220 -19.610  0.00  0.00    -0.000 C 
ATOM     23  C   UNL     1      33.544 -22.119 -19.025  0.00  0.00    -0.000 C 
ENDBRANCH  13  14
ENDBRANCH  12  13
ENDBRANCH   1  12
BRANCH   1  24
ATOM     24  C   UNL     1      34.629 -16.011 -25.152  0.00  0.00    +0.153 C 
BRANCH  24  25
ATOM     25  O   UNL     1      33.677 -16.049 -26.210  0.00  0.00    -0.381 OA
ATOM     26  H   UNL     1      32.781 -16.041 -25.839  0.00  0.00    +0.210 HD
ENDBRANCH  24  25
ENDBRANCH   1  24
TORSDOF 7
ENDMDL
MODEL 7
REMARK VINA RESULT:      -9.5     12.433     14.944
REMARK  Name = 447341
REMARK  7 active torsions:
REMARK  status: ('A' for Active; 'I' for Inactive)
REMARK    1  A    between atoms: C_1  and  N_2
REMARK    2  A    between atoms: C_1  and  C_12
REMARK    3  A    between atoms: C_1  and  C_24
REMARK    4  A    between atoms: C_6  and  C_9
REMARK    5  A    between atoms: C_12  and  C_13
REMARK    6  A    between atoms: C_13  and  C_14
REMARK    7  A    between atoms: C_24  and  O_25
REMARK                            x       y       z     vdW  Elec       q    Type
REMARK                         _______ _______ _______ _____ _____    ______ ____
ROOT
ATOM      1  C   UNL     1      33.667 -13.418 -23.378  0.00  0.00    +0.089 C 
ENDROOT
BRANCH   1   2
ATOM      2  N   UNL     1      33.898 -14.737 -23.987  0.00  0.00    -0.246 NA
ATOM      3  N   UNL     1      33.891 -16.331 -25.495  0.00  0.00    -0.251 NA
ATOM      4  C   UNL     1      34.486 -15.787 -23.376  0.00  0.00    +0.125 C 
ATOM      5  C   UNL     1      33.552 -15.086 -25.245  0.00  0.00    +0.201 C 
ATOM      6  C   UNL     1      34.473 -16.774 -24.333  0.00  0.00    +0.124 C 
BRANCH   6   9
ATOM      7  O   UNL     1      34.550 -19.087 -24.818  0.00  0.00    -0.269 OA
ATOM      8  N   UNL     1      36.056 -18.291 -23.304  0.00  0.00    -0.324 N 
ATOM      9  C   UNL     1      34.989 -18.101 -24.186  0.00  0.00    +0.257 C 
ATOM     10  H   UNL     1      36.437 -19.191 -23.177  0.00  0.00    +0.145 HD
ATOM     11  H   UNL     1      36.427 -17.526 -22.808  0.00  0.00    +0.145 HD
ENDBRANCH   6   9
ENDBRANCH   1   2
BRANCH   1  12
ATOM     12  C   UNL     1      32.422 -13.363 -22.460  0.00  0.00    +0.023 C 
BRANCH  12  13
ATOM     13  C   UNL     1      31.590 -12.069 -22.577  0.00  0.00    +0.028 C 
BRANCH  13  14
ATOM     14  C   UNL     1      31.694 -11.113 -21.428  0.00  0.00    -0.022 C 
ATOM     15  C   UNL     1      32.025  -9.761 -21.611  0.00  0.00    -0.004 C 
ATOM     16  C   UNL     1      31.450 -11.620 -20.151  0.00  0.00    -0.004 C 
ATOM     17  C   UNL     1      32.107  -8.909 -20.485  0.00  0.00    -0.000 C 
ATOM     18  C   UNL     1      32.273  -9.234 -22.890  0.00  0.00    -0.000 C 
ATOM     19  C   UNL     1      31.531 -10.782 -19.042  0.00  0.00    -0.000 C 
ATOM     20  C   UNL     1      31.858  -9.435 -19.207  0.00  0.00    -0.000 C 
ATOM     21  C   UNL     1      32.436  -7.557 -20.668  0.00  0.00    -0.000 C 
ATOM     22  C   UNL     1      32.599  -7.888 -23.054  0.00  0.00    -0.000 C 
ATOM     23  C   UNL     1      32.682  -7.050 -21.945  0.00  0.00    -0.000 C 
ENDBRANCH  13  14
ENDBRANCH  12  13
ENDBRANCH   1  12
BRANCH   1  24
ATOM     24  C   UNL     1      33.587 -12.328 -24.463  0.00  0.00    +0.153 C 
BRANCH  24  25
ATOM     25  O   UNL     1      34.665 -11.407 -24.335  0.00  0.00    -0.381 OA
ATOM     26  H   UNL     1      35.346 -11.612 -24.994  0.00  0.00    +0.210 HD
ENDBRANCH  24  25
ENDBRANCH   1  24
TORSDOF 7
ENDMDL
MODEL 8
REMARK VINA RESULT:      -9.5      5.646      8.125
REMARK  Name = 447341
REMARK  7 active torsions:
REMARK  status: ('A' for Active; 'I' for Inactive)
REMARK    1  A    between atoms: C_1  and  N_2
REMARK    2  A    between atoms: C_1  and  C_12
REMARK    3  A    between atoms: C_1  and  C_24
REMARK    4  A    between atoms: C_6  and  C_9
REMARK    5  A    between atoms: C_12  and  C_13
REMARK    6  A    between atoms: C_13  and  C_14
REMARK    7  A    between atoms: C_24  and  O_25
REMARK                            x       y       z     vdW  Elec       q    Type
REMARK                         _______ _______ _______ _____ _____    ______ ____
ROOT
ATOM      1  C   UNL     1      34.593 -21.357 -20.039  0.00  0.00    +0.089 C 
ENDROOT
BRANCH   1   2
ATOM      2  N   UNL     1      35.165 -21.859 -18.779  0.00  0.00    -0.246 NA
ATOM      3  N   UNL     1      36.644 -22.237 -17.204  0.00  0.00    -0.251 NA
ATOM      4  C   UNL     1      34.501 -22.583 -17.854  0.00  0.00    +0.125 C 
ATOM      5  C   UNL     1      36.437 -21.667 -18.370  0.00  0.00    +0.201 C 
ATOM      6  C   UNL     1      35.440 -22.811 -16.877  0.00  0.00    +0.124 C 
BRANCH   6   9
ATOM      7  O   UNL     1      35.373 -24.780 -15.569  0.00  0.00    -0.269 OA
ATOM      8  N   UNL     1      34.892 -22.815 -14.518  0.00  0.00    -0.324 N 
ATOM      9  C   UNL     1      35.237 -23.539 -15.662  0.00  0.00    +0.257 C 
ATOM     10  H   UNL     1      34.744 -23.283 -13.664  0.00  0.00    +0.145 HD
ATOM     11  H   UNL     1      34.795 -21.837 -14.566  0.00  0.00    +0.145 HD
ENDBRANCH   6   9
ENDBRANCH   1   2
BRANCH   1  12
ATOM     12  C   UNL     1      35.558 -20.459 -20.850  0.00  0.00    +0.023 C 
BRANCH  12  13
ATOM     13  C   UNL     1      35.211 -18.956 -20.832  0.00  0.00    +0.028 C 
BRANCH  13  14
ATOM     14  C   UNL     1      34.954 -18.324 -22.165  0.00  0.00    -0.022 C 
ATOM     15  C   UNL     1      34.716 -16.947 -22.303  0.00  0.00    -0.004 C 
ATOM     16  C   UNL     1      34.959 -19.162 -23.282  0.00  0.00    -0.004 C 
ATOM     17  C   UNL     1      34.480 -16.411 -23.591  0.00  0.00    -0.000 C 
ATOM     18  C   UNL     1      34.709 -16.090 -21.191  0.00  0.00    -0.000 C 
ATOM     19  C   UNL     1      34.727 -18.634 -24.548  0.00  0.00    -0.000 C 
ATOM     20  C   UNL     1      34.489 -17.268 -24.703  0.00  0.00    -0.000 C 
ATOM     21  C   UNL     1      34.243 -15.034 -23.729  0.00  0.00    -0.000 C 
ATOM     22  C   UNL     1      34.471 -14.724 -21.346  0.00  0.00    -0.000 C 
ATOM     23  C   UNL     1      34.237 -14.197 -22.613  0.00  0.00    -0.000 C 
ENDBRANCH  13  14
ENDBRANCH  12  13
ENDBRANCH   1  12
BRANCH   1  24
ATOM     24  C   UNL     1      33.265 -20.623 -19.774  0.00  0.00    +0.153 C 
BRANCH  24  25
ATOM     25  O   UNL     1      32.402 -20.718 -20.902  0.00  0.00    -0.381 OA
ATOM     26  H   UNL     1      31.655 -21.299 -20.690  0.00  0.00    +0.210 HD
ENDBRANCH  24  25
ENDBRANCH   1  24
TORSDOF 7
ENDMDL
MODEL 9
REMARK VINA RESULT:      -9.4      7.806     10.461
REMARK  Name = 447341
REMARK  7 active torsions:
REMARK  status: ('A' for Active; 'I' for Inactive)
REMARK    1  A    between atoms: C_1  and  N_2
REMARK    2  A    between atoms: C_1  and  C_12
REMARK    3  A    between atoms: C_1  and  C_24
REMARK    4  A    between atoms: C_6  and  C_9
REMARK    5  A    between atoms: C_12  and  C_13
REMARK    6  A    between atoms: C_13  and  C_14
REMARK    7  A    between atoms: C_24  and  O_25
REMARK                            x       y       z     vdW  Elec       q    Type
REMARK                         _______ _______ _______ _____ _____    ______ ____
ROOT
ATOM      1  C   UNL     1      35.527 -18.467 -21.138  0.00  0.00    +0.089 C 
ENDROOT
BRANCH   1   2
ATOM      2  N   UNL     1      35.413 -19.782 -20.489  0.00  0.00    -0.246 NA
ATOM      3  N   UNL     1      36.023 -21.631 -19.477  0.00  0.00    -0.251 NA
ATOM      4  C   UNL     1      34.262 -20.461 -20.295  0.00  0.00    +0.125 C 
ATOM      5  C   UNL     1      36.445 -20.499 -19.995  0.00  0.00    +0.201 C 
ATOM      6  C   UNL     1      34.662 -21.614 -19.663  0.00  0.00    +0.124 C 
BRANCH   6   9
ATOM      7  O   UNL     1      34.012 -23.882 -19.514  0.00  0.00    -0.269 OA
ATOM      8  N   UNL     1      32.712 -22.354 -18.432  0.00  0.00    -0.324 N 
ATOM      9  C   UNL     1      33.811 -22.680 -19.232  0.00  0.00    +0.257 C 
ATOM     10  H   UNL     1      32.104 -23.062 -18.117  0.00  0.00    +0.145 HD
ATOM     11  H   UNL     1      32.544 -21.416 -18.185  0.00  0.00    +0.145 HD
ENDBRANCH   6   9
ENDBRANCH   1   2
BRANCH   1  12
ATOM     12  C   UNL     1      34.181 -17.712 -21.260  0.00  0.00    +0.023 C 
BRANCH  12  13
ATOM     13  C   UNL     1      34.263 -16.196 -20.981  0.00  0.00    +0.028 C 
BRANCH  13  14
ATOM     14  C   UNL     1      33.774 -15.299 -22.075  0.00  0.00    -0.022 C 
ATOM     15  C   UNL     1      33.030 -14.137 -21.810  0.00  0.00    -0.004 C 
ATOM     16  C   UNL     1      34.086 -15.660 -23.387  0.00  0.00    -0.004 C 
ATOM     17  C   UNL     1      32.598 -13.330 -22.889  0.00  0.00    -0.000 C 
ATOM     18  C   UNL     1      32.708 -13.758 -20.497  0.00  0.00    -0.000 C 
ATOM     19  C   UNL     1      33.660 -14.866 -24.448  0.00  0.00    -0.000 C 
ATOM     20  C   UNL     1      32.920 -13.709 -24.202  0.00  0.00    -0.000 C 
ATOM     21  C   UNL     1      31.855 -12.169 -22.623  0.00  0.00    -0.000 C 
ATOM     22  C   UNL     1      31.969 -12.600 -20.250  0.00  0.00    -0.000 C 
ATOM     23  C   UNL     1      31.542 -11.808 -21.312  0.00  0.00    -0.000 C 
ENDBRANCH  13  14
ENDBRANCH  12  13
ENDBRANCH   1  12
BRANCH   1  24
ATOM     24  C   UNL     1      36.197 -18.602 -22.518  0.00  0.00    +0.153 C 
BRANCH  24  25
ATOM     25  O   UNL     1      35.245 -18.982 -23.507  0.00  0.00    -0.381 OA
ATOM     26  H   UNL     1      35.066 -18.229 -24.090  0.00  0.00    +0.210 HD
ENDBRANCH  24  25
ENDBRANCH   1  24
TORSDOF 7
ENDMDL
