MODEL 1
REMARK VINA RESULT:     -10.3      0.000      0.000
REMARK  Name = 5278688
REMARK  6 active torsions:
REMARK  status: ('A' for Active; 'I' for Inactive)
REMARK    1  A    between atoms: C_1  and  O_2
REMARK    2  A    between atoms: C_1  and  C_14
REMARK    3  A    between atoms: O_2  and  C_4
REMARK    4  A    between atoms: C_4  and  N_5
REMARK    5  A    between atoms: N_5  and  C_8
REMARK    6  A    between atoms: C_14  and  N_17
REMARK                            x       y       z     vdW  Elec       q    Type
REMARK                         _______ _______ _______ _____ _____    ______ ____
ROOT
ATOM      1  C   UNL     1      34.950 -15.695 -23.457  0.00  0.00    +0.229 C 
ENDROOT
BRANCH   1   2
ATOM      2  O   UNL     1      34.752 -16.744 -22.517  0.00  0.00    -0.456 OA
BRANCH   2   4
ATOM      3  S   UNL     1      34.758 -18.806 -24.216  0.00  0.00    +0.006 S 
ATOM      4  C   UNL     1      35.057 -18.061 -22.746  0.00  0.00    +0.233 C 
BRANCH   4   5
ATOM      5  N   UNL     1      35.631 -18.774 -21.713  0.00  0.00    -0.278 N 
ATOM      6  H   UNL     1      36.569 -18.535 -21.528  0.00  0.00    +0.156 HD
BRANCH   5   8
ATOM      7 CL   UNL     1      33.453 -23.000 -18.209  0.00  0.00    -0.082 Cl
ATOM      8  C   UNL     1      35.108 -19.788 -20.872  0.00  0.00    +0.051 C 
ATOM      9  C   UNL     1      33.737 -19.896 -20.716  0.00  0.00    +0.016 C 
ATOM     10  C   UNL     1      35.981 -20.646 -20.227  0.00  0.00    +0.016 C 
ATOM     11  C   UNL     1      33.224 -20.894 -19.888  0.00  0.00    +0.013 C 
ATOM     12  C   UNL     1      35.467 -21.645 -19.399  0.00  0.00    +0.013 C 
ATOM     13  C   UNL     1      34.088 -21.768 -19.230  0.00  0.00    +0.058 C 
ENDBRANCH   5   8
ENDBRANCH   4   5
ENDBRANCH   2   4
ENDBRANCH   1   2
BRANCH   1  14
ATOM     14  C   UNL     1      33.608 -15.264 -24.020  0.00  0.00    +0.149 C 
BRANCH  14  17
ATOM     15  O   UNL     1      32.128 -15.024 -21.443  0.00  0.00    -0.269 OA
ATOM     16  O   UNL     1      33.792 -12.416 -24.892  0.00  0.00    -0.269 OA
ATOM     17  N   UNL     1      33.112 -14.072 -23.360  0.00  0.00    -0.219 N 
ATOM     18  C   UNL     1      32.132 -12.690 -21.857  0.00  0.00    +0.058 C 
ATOM     19  C   UNL     1      32.630 -11.910 -22.891  0.00  0.00    +0.058 C 
ATOM     20  C   UNL     1      32.437 -14.088 -22.157  0.00  0.00    +0.255 C 
ATOM     21  C   UNL     1      33.261 -12.799 -23.866  0.00  0.00    +0.255 C 
ATOM     22  C   UNL     1      31.475 -12.138 -20.778  0.00  0.00    +0.005 C 
ATOM     23  C   UNL     1      32.497 -10.537 -22.898  0.00  0.00    +0.005 C 
ATOM     24  C   UNL     1      31.329 -10.748 -20.763  0.00  0.00    +0.000 C 
ATOM     25  C   UNL     1      31.834  -9.955 -21.813  0.00  0.00    +0.000 C 
ENDBRANCH  14  17
ENDBRANCH   1  14
TORSDOF 6
ENDMDL
MODEL 2
REMARK VINA RESULT:     -10.3      0.062      2.051
REMARK  Name = 5278688
REMARK  6 active torsions:
REMARK  status: ('A' for Active; 'I' for Inactive)
REMARK    1  A    between atoms: C_1  and  O_2
REMARK    2  A    between atoms: C_1  and  C_14
REMARK    3  A    between atoms: O_2  and  C_4
REMARK    4  A    between atoms: C_4  and  N_5
REMARK    5  A    between atoms: N_5  and  C_8
REMARK    6  A    between atoms: C_14  and  N_17
REMARK                            x       y       z     vdW  Elec       q    Type
REMARK                         _______ _______ _______ _____ _____    ______ ____
ROOT
ATOM      1  C   UNL     1      34.923 -15.675 -23.516  0.00  0.00    +0.229 C 
ENDROOT
BRANCH   1   2
ATOM      2  O   UNL     1      34.712 -16.730 -22.586  0.00  0.00    -0.456 OA
BRANCH   2   4
ATOM      3  S   UNL     1      34.767 -18.791 -24.284  0.00  0.00    +0.006 S 
ATOM      4  C   UNL     1      35.038 -18.043 -22.811  0.00  0.00    +0.233 C 
BRANCH   4   5
ATOM      5  N   UNL     1      35.610 -18.747 -21.770  0.00  0.00    -0.278 N 
ATOM      6  H   UNL     1      36.548 -18.512 -21.589  0.00  0.00    +0.156 HD
BRANCH   5   8
ATOM      7 CL   UNL     1      33.409 -22.925 -18.223  0.00  0.00    -0.082 Cl
ATOM      8  C   UNL     1      35.082 -19.750 -20.919  0.00  0.00    +0.051 C 
ATOM      9  C   UNL     1      35.949 -20.617 -20.277  0.00  0.00    +0.016 C 
ATOM     10  C   UNL     1      33.711 -19.839 -20.750  0.00  0.00    +0.016 C 
ATOM     11  C   UNL     1      35.429 -21.603 -19.440  0.00  0.00    +0.013 C 
ATOM     12  C   UNL     1      33.191 -20.826 -19.912  0.00  0.00    +0.013 C 
ATOM     13  C   UNL     1      34.050 -21.708 -19.257  0.00  0.00    +0.058 C 
ENDBRANCH   5   8
ENDBRANCH   4   5
ENDBRANCH   2   4
ENDBRANCH   1   2
BRANCH   1  14
ATOM     14  C   UNL     1      33.586 -15.216 -24.068  0.00  0.00    +0.149 C 
BRANCH  14  17
ATOM     15  O   UNL     1      33.828 -12.358 -24.882  0.00  0.00    -0.269 OA
ATOM     16  O   UNL     1      32.112 -14.997 -21.482  0.00  0.00    -0.269 OA
ATOM     17  N   UNL     1      33.108 -14.030 -23.386  0.00  0.00    -0.219 N 
ATOM     18  C   UNL     1      32.644 -11.870 -22.887  0.00  0.00    +0.058 C 
ATOM     19  C   UNL     1      32.131 -12.660 -21.869  0.00  0.00    +0.058 C 
ATOM     20  C   UNL     1      33.279 -12.749 -23.868  0.00  0.00    +0.255 C 
ATOM     21  C   UNL     1      32.431 -14.056 -22.186  0.00  0.00    +0.255 C 
ATOM     22  C   UNL     1      32.521 -10.496 -22.876  0.00  0.00    +0.005 C 
ATOM     23  C   UNL     1      31.468 -12.119 -20.788  0.00  0.00    +0.005 C 
ATOM     24  C   UNL     1      31.853  -9.924 -21.790  0.00  0.00    +0.000 C 
ATOM     25  C   UNL     1      31.331 -10.728 -20.755  0.00  0.00    +0.000 C 
ENDBRANCH  14  17
ENDBRANCH   1  14
TORSDOF 6
ENDMDL
MODEL 3
REMARK VINA RESULT:     -10.0      4.851      8.604
REMARK  Name = 5278688
REMARK  6 active torsions:
REMARK  status: ('A' for Active; 'I' for Inactive)
REMARK    1  A    between atoms: C_1  and  O_2
REMARK    2  A    between atoms: C_1  and  C_14
REMARK    3  A    between atoms: O_2  and  C_4
REMARK    4  A    between atoms: C_4  and  N_5
REMARK    5  A    between atoms: N_5  and  C_8
REMARK    6  A    between atoms: C_14  and  N_17
REMARK                            x       y       z     vdW  Elec       q    Type
REMARK                         _______ _______ _______ _____ _____    ______ ____
ROOT
ATOM      1  C   UNL     1      33.704 -13.281 -26.747  0.00  0.00    +0.229 C 
ENDROOT
BRANCH   1   2
ATOM      2  O   UNL     1      33.424 -11.997 -26.201  0.00  0.00    -0.456 OA
BRANCH   2   4
ATOM      3  S   UNL     1      35.659 -10.548 -26.398  0.00  0.00    +0.006 S 
ATOM      4  C   UNL     1      34.349 -11.197 -25.581  0.00  0.00    +0.233 C 
BRANCH   4   5
ATOM      5  N   UNL     1      34.168 -10.931 -24.239  0.00  0.00    -0.278 N 
ATOM      6  H   UNL     1      34.418 -11.672 -23.641  0.00  0.00    +0.156 HD
BRANCH   5   8
ATOM      7 CL   UNL     1      32.151  -6.127 -21.458  0.00  0.00    -0.082 Cl
ATOM      8  C   UNL     1      33.684  -9.778 -23.571  0.00  0.00    +0.051 C 
ATOM      9  C   UNL     1      32.501  -9.857 -22.857  0.00  0.00    +0.016 C 
ATOM     10  C   UNL     1      34.406  -8.600 -23.650  0.00  0.00    +0.016 C 
ATOM     11  C   UNL     1      32.025  -8.723 -22.201  0.00  0.00    +0.013 C 
ATOM     12  C   UNL     1      33.929  -7.465 -22.993  0.00  0.00    +0.013 C 
ATOM     13  C   UNL     1      32.739  -7.527 -22.269  0.00  0.00    +0.058 C 
ENDBRANCH   5   8
ENDBRANCH   4   5
ENDBRANCH   2   4
ENDBRANCH   1   2
BRANCH   1  14
ATOM     14  C   UNL     1      32.760 -14.302 -26.140  0.00  0.00    +0.149 C 
BRANCH  14  17
ATOM     15  O   UNL     1      32.520 -13.419 -23.302  0.00  0.00    -0.269 OA
ATOM     16  O   UNL     1      34.465 -16.738 -25.884  0.00  0.00    -0.269 OA
ATOM     17  N   UNL     1      33.322 -14.904 -24.947  0.00  0.00    -0.219 N 
ATOM     18  C   UNL     1      33.857 -15.307 -22.783  0.00  0.00    +0.058 C 
ATOM     19  C   UNL     1      34.440 -16.299 -23.557  0.00  0.00    +0.058 C 
ATOM     20  C   UNL     1      33.137 -14.400 -23.676  0.00  0.00    +0.255 C 
ATOM     21  C   UNL     1      34.100 -16.042 -24.956  0.00  0.00    +0.255 C 
ATOM     22  C   UNL     1      33.998 -15.274 -21.411  0.00  0.00    +0.005 C 
ATOM     23  C   UNL     1      35.194 -17.311 -23.000  0.00  0.00    +0.005 C 
ATOM     24  C   UNL     1      34.758 -16.290 -20.824  0.00  0.00    +0.000 C 
ATOM     25  C   UNL     1      35.350 -17.299 -21.610  0.00  0.00    +0.000 C 
ENDBRANCH  14  17
ENDBRANCH   1  14
TORSDOF 6
ENDMDL
MODEL 4
REMARK VINA RESULT:     -10.0      4.867      8.675
REMARK  Name = 5278688
REMARK  6 active torsions:
REMARK  status: ('A' for Active; 'I' for Inactive)
REMARK    1  A    between atoms: C_1  and  O_2
REMARK    2  A    between atoms: C_1  and  C_14
REMARK    3  A    between atoms: O_2  and  C_4
REMARK    4  A    between atoms: C_4  and  N_5
REMARK    5  A    between atoms: N_5  and  C_8
REMARK    6  A    between atoms: C_14  and  N_17
REMARK                            x       y       z     vdW  Elec       q    Type
REMARK                         _______ _______ _______ _____ _____    ______ ____
ROOT
ATOM      1  C   UNL     1      33.723 -13.252 -26.756  0.00  0.00    +0.229 C 
ENDROOT
BRANCH   1   2
ATOM      2  O   UNL     1      33.443 -11.975 -26.195  0.00  0.00    -0.456 OA
BRANCH   2   4
ATOM      3  S   UNL     1      35.685 -10.537 -26.396  0.00  0.00    +0.006 S 
ATOM      4  C   UNL     1      34.370 -11.175 -25.579  0.00  0.00    +0.233 C 
BRANCH   4   5
ATOM      5  N   UNL     1      34.187 -10.900 -24.238  0.00  0.00    -0.278 N 
ATOM      6  H   UNL     1      34.444 -11.634 -23.634  0.00  0.00    +0.156 HD
BRANCH   5   8
ATOM      7 CL   UNL     1      32.128  -6.095 -21.491  0.00  0.00    -0.082 Cl
ATOM      8  C   UNL     1      33.693  -9.747 -23.579  0.00  0.00    +0.051 C 
ATOM      9  C   UNL     1      34.399  -8.560 -23.672  0.00  0.00    +0.016 C 
ATOM     10  C   UNL     1      32.515  -9.834 -22.857  0.00  0.00    +0.016 C 
ATOM     11  C   UNL     1      33.913  -7.426 -23.024  0.00  0.00    +0.013 C 
ATOM     12  C   UNL     1      32.029  -8.699 -22.208  0.00  0.00    +0.013 C 
ATOM     13  C   UNL     1      32.728  -7.495 -22.292  0.00  0.00    +0.058 C 
ENDBRANCH   5   8
ENDBRANCH   4   5
ENDBRANCH   2   4
ENDBRANCH   1   2
BRANCH   1  14
ATOM     14  C   UNL     1      32.774 -14.279 -26.168  0.00  0.00    +0.149 C 
BRANCH  14  17
ATOM     15  O   UNL     1      34.420 -16.749 -25.896  0.00  0.00    -0.269 OA
ATOM     16  O   UNL     1      32.534 -13.384 -23.331  0.00  0.00    -0.269 OA
ATOM     17  N   UNL     1      33.320 -14.884 -24.969  0.00  0.00    -0.219 N 
ATOM     18  C   UNL     1      34.423 -16.284 -23.571  0.00  0.00    +0.058 C 
ATOM     19  C   UNL     1      33.857 -15.276 -22.804  0.00  0.00    +0.058 C 
ATOM     20  C   UNL     1      34.076 -16.038 -24.970  0.00  0.00    +0.255 C 
ATOM     21  C   UNL     1      33.141 -14.371 -23.702  0.00  0.00    +0.255 C 
ATOM     22  C   UNL     1      35.166 -17.300 -23.008  0.00  0.00    +0.005 C 
ATOM     23  C   UNL     1      34.006 -15.231 -21.433  0.00  0.00    +0.005 C 
ATOM     24  C   UNL     1      35.332 -17.274 -21.620  0.00  0.00    +0.000 C 
ATOM     25  C   UNL     1      34.757 -16.250 -20.840  0.00  0.00    +0.000 C 
ENDBRANCH  14  17
ENDBRANCH   1  14
TORSDOF 6
ENDMDL
MODEL 5
REMARK VINA RESULT:     -10.0      7.065      9.606
REMARK  Name = 5278688
REMARK  6 active torsions:
REMARK  status: ('A' for Active; 'I' for Inactive)
REMARK    1  A    between atoms: C_1  and  O_2
REMARK    2  A    between atoms: C_1  and  C_14
REMARK    3  A    between atoms: O_2  and  C_4
REMARK    4  A    between atoms: C_4  and  N_5
REMARK    5  A    between atoms: N_5  and  C_8
REMARK    6  A    between atoms: C_14  and  N_17
REMARK                            x       y       z     vdW  Elec       q    Type
REMARK                         _______ _______ _______ _____ _____    ______ ____
ROOT
ATOM      1  C   UNL     1      35.110 -23.014 -15.559  0.00  0.00    +0.229 C 
ENDROOT
BRANCH   1   2
ATOM      2  O   UNL     1      35.187 -24.028 -14.565  0.00  0.00    -0.456 OA
BRANCH   2   4
ATOM      3  S   UNL     1      35.663 -24.275 -11.948  0.00  0.00    +0.006 S 
ATOM      4  C   UNL     1      34.723 -23.896 -13.281  0.00  0.00    +0.233 C 
BRANCH   4   5
ATOM      5  N   UNL     1      33.435 -23.429 -13.112  0.00  0.00    -0.278 N 
ATOM      6  H   UNL     1      33.326 -22.805 -12.358  0.00  0.00    +0.156 HD
BRANCH   5   8
ATOM      7 CL   UNL     1      28.469 -24.520 -16.116  0.00  0.00    -0.082 Cl
ATOM      8  C   UNL     1      32.243 -23.691 -13.832  0.00  0.00    +0.051 C 
ATOM      9  C   UNL     1      31.709 -24.967 -13.813  0.00  0.00    +0.016 C 
ATOM     10  C   UNL     1      31.642 -22.663 -14.539  0.00  0.00    +0.016 C 
ATOM     11  C   UNL     1      30.537 -25.224 -14.523  0.00  0.00    +0.013 C 
ATOM     12  C   UNL     1      30.469 -22.921 -15.249  0.00  0.00    +0.013 C 
ATOM     13  C   UNL     1      29.916 -24.202 -15.241  0.00  0.00    +0.058 C 
ENDBRANCH   5   8
ENDBRANCH   4   5
ENDBRANCH   2   4
ENDBRANCH   1   2
BRANCH   1  14
ATOM     14  C   UNL     1      34.465 -23.583 -16.809  0.00  0.00    +0.149 C 
BRANCH  14  17
ATOM     15  O   UNL     1      32.148 -22.433 -18.292  0.00  0.00    -0.269 OA
ATOM     16  O   UNL     1      36.775 -22.245 -18.143  0.00  0.00    -0.269 OA
ATOM     17  N   UNL     1      34.462 -22.620 -17.893  0.00  0.00    -0.219 N 
ATOM     18  C   UNL     1      33.764 -21.209 -19.521  0.00  0.00    +0.058 C 
ATOM     19  C   UNL     1      35.150 -21.154 -19.476  0.00  0.00    +0.058 C 
ATOM     20  C   UNL     1      33.315 -22.158 -18.503  0.00  0.00    +0.255 C 
ATOM     21  C   UNL     1      35.606 -22.066 -18.428  0.00  0.00    +0.255 C 
ATOM     22  C   UNL     1      33.033 -20.456 -20.415  0.00  0.00    +0.005 C 
ATOM     23  C   UNL     1      35.876 -20.342 -20.322  0.00  0.00    +0.005 C 
ATOM     24  C   UNL     1      33.747 -19.625 -21.283  0.00  0.00    +0.000 C 
ATOM     25  C   UNL     1      35.155 -19.569 -21.238  0.00  0.00    +0.000 C 
ENDBRANCH  14  17
ENDBRANCH   1  14
TORSDOF 6
ENDMDL
MODEL 6
REMARK VINA RESULT:      -9.9      6.934      9.538
REMARK  Name = 5278688
REMARK  6 active torsions:
REMARK  status: ('A' for Active; 'I' for Inactive)
REMARK    1  A    between atoms: C_1  and  O_2
REMARK    2  A    between atoms: C_1  and  C_14
REMARK    3  A    between atoms: O_2  and  C_4
REMARK    4  A    between atoms: C_4  and  N_5
REMARK    5  A    between atoms: N_5  and  C_8
REMARK    6  A    between atoms: C_14  and  N_17
REMARK                            x       y       z     vdW  Elec       q    Type
REMARK                         _______ _______ _______ _____ _____    ______ ____
ROOT
ATOM      1  C   UNL     1      35.180 -23.079 -15.766  0.00  0.00    +0.229 C 
ENDROOT
BRANCH   1   2
ATOM      2  O   UNL     1      35.140 -24.084 -14.760  0.00  0.00    -0.456 OA
BRANCH   2   4
ATOM      3  S   UNL     1      36.000 -23.921 -12.237  0.00  0.00    +0.006 S 
ATOM      4  C   UNL     1      34.840 -23.854 -13.442  0.00  0.00    +0.233 C 
BRANCH   4   5
ATOM      5  N   UNL     1      33.530 -23.556 -13.127  0.00  0.00    -0.278 N 
ATOM      6  H   UNL     1      33.412 -23.116 -12.254  0.00  0.00    +0.156 HD
BRANCH   5   8
ATOM      7 CL   UNL     1      28.506 -24.461 -16.098  0.00  0.00    -0.082 Cl
ATOM      8  C   UNL     1      32.324 -23.773 -13.840  0.00  0.00    +0.051 C 
ATOM      9  C   UNL     1      31.740 -22.717 -14.519  0.00  0.00    +0.016 C 
ATOM     10  C   UNL     1      31.758 -25.036 -13.841  0.00  0.00    +0.016 C 
ATOM     11  C   UNL     1      30.554 -22.931 -15.219  0.00  0.00    +0.013 C 
ATOM     12  C   UNL     1      30.572 -25.250 -14.542  0.00  0.00    +0.013 C 
ATOM     13  C   UNL     1      29.970 -24.197 -15.232  0.00  0.00    +0.058 C 
ENDBRANCH   5   8
ENDBRANCH   4   5
ENDBRANCH   2   4
ENDBRANCH   1   2
BRANCH   1  14
ATOM     14  C   UNL     1      34.359 -23.529 -16.960  0.00  0.00    +0.149 C 
BRANCH  14  17
ATOM     15  O   UNL     1      36.706 -22.245 -18.276  0.00  0.00    -0.269 OA
ATOM     16  O   UNL     1      32.074 -22.255 -18.396  0.00  0.00    -0.269 OA
ATOM     17  N   UNL     1      34.383 -22.545 -18.024  0.00  0.00    -0.219 N 
ATOM     18  C   UNL     1      35.113 -21.088 -19.597  0.00  0.00    +0.058 C 
ATOM     19  C   UNL     1      33.726 -21.091 -19.631  0.00  0.00    +0.058 C 
ATOM     20  C   UNL     1      35.542 -22.022 -18.558  0.00  0.00    +0.255 C 
ATOM     21  C   UNL     1      33.250 -22.029 -18.615  0.00  0.00    +0.255 C 
ATOM     22  C   UNL     1      35.862 -20.297 -20.443  0.00  0.00    +0.005 C 
ATOM     23  C   UNL     1      33.016 -20.304 -20.514  0.00  0.00    +0.005 C 
ATOM     24  C   UNL     1      35.164 -19.491 -21.347  0.00  0.00    +0.000 C 
ATOM     25  C   UNL     1      33.754 -19.493 -21.382  0.00  0.00    +0.000 C 
ENDBRANCH  14  17
ENDBRANCH   1  14
TORSDOF 6
ENDMDL
MODEL 7
REMARK VINA RESULT:      -9.8      1.922      2.553
REMARK  Name = 5278688
REMARK  6 active torsions:
REMARK  status: ('A' for Active; 'I' for Inactive)
REMARK    1  A    between atoms: C_1  and  O_2
REMARK    2  A    between atoms: C_1  and  C_14
REMARK    3  A    between atoms: O_2  and  C_4
REMARK    4  A    between atoms: C_4  and  N_5
REMARK    5  A    between atoms: N_5  and  C_8
REMARK    6  A    between atoms: C_14  and  N_17
REMARK                            x       y       z     vdW  Elec       q    Type
REMARK                         _______ _______ _______ _____ _____    ______ ____
ROOT
ATOM      1  C   UNL     1      33.761 -14.046 -22.829  0.00  0.00    +0.229 C 
ENDROOT
BRANCH   1   2
ATOM      2  O   UNL     1      33.484 -15.433 -22.978  0.00  0.00    -0.456 OA
BRANCH   2   4
ATOM      3  S   UNL     1      34.632 -16.900 -24.893  0.00  0.00    +0.006 S 
ATOM      4  C   UNL     1      34.417 -16.381 -23.316  0.00  0.00    +0.233 C 
BRANCH   4   5
ATOM      5  N   UNL     1      35.192 -16.905 -22.302  0.00  0.00    -0.278 N 
ATOM      6  H   UNL     1      35.928 -16.319 -22.010  0.00  0.00    +0.156 HD
BRANCH   5   8
ATOM      7 CL   UNL     1      34.871 -22.043 -19.407  0.00  0.00    -0.082 Cl
ATOM      8  C   UNL     1      35.115 -18.138 -21.607  0.00  0.00    +0.051 C 
ATOM      9  C   UNL     1      33.873 -18.694 -21.354  0.00  0.00    +0.016 C 
ATOM     10  C   UNL     1      36.283 -18.757 -21.198  0.00  0.00    +0.016 C 
ATOM     11  C   UNL     1      33.798 -19.907 -20.670  0.00  0.00    +0.013 C 
ATOM     12  C   UNL     1      36.208 -19.970 -20.514  0.00  0.00    +0.013 C 
ATOM     13  C   UNL     1      34.964 -20.545 -20.250  0.00  0.00    +0.058 C 
ENDBRANCH   5   8
ENDBRANCH   4   5
ENDBRANCH   2   4
ENDBRANCH   1   2
BRANCH   1  14
ATOM     14  C   UNL     1      32.684 -13.240 -23.531  0.00  0.00    +0.149 C 
BRANCH  14  17
ATOM     15  O   UNL     1      31.321 -11.299 -21.725  0.00  0.00    -0.269 OA
ATOM     16  O   UNL     1      34.618 -11.485 -24.974  0.00  0.00    -0.269 OA
ATOM     17  N   UNL     1      32.907 -11.815 -23.389  0.00  0.00    -0.219 N 
ATOM     18  C   UNL     1      32.752  -9.669 -22.682  0.00  0.00    +0.058 C 
ATOM     19  C   UNL     1      33.738  -9.725 -23.656  0.00  0.00    +0.058 C 
ATOM     20  C   UNL     1      32.209 -11.015 -22.508  0.00  0.00    +0.255 C 
ATOM     21  C   UNL     1      33.840 -11.109 -24.117  0.00  0.00    +0.255 C 
ATOM     22  C   UNL     1      32.417  -8.490 -22.050  0.00  0.00    +0.005 C 
ATOM     23  C   UNL     1      34.442  -8.606 -24.047  0.00  0.00    +0.005 C 
ATOM     24  C   UNL     1      33.118  -7.341 -22.430  0.00  0.00    +0.000 C 
ATOM     25  C   UNL     1      34.120  -7.398 -23.420  0.00  0.00    +0.000 C 
ENDBRANCH  14  17
ENDBRANCH   1  14
TORSDOF 6
ENDMDL
MODEL 8
REMARK VINA RESULT:      -9.8      1.651      2.739
REMARK  Name = 5278688
REMARK  6 active torsions:
REMARK  status: ('A' for Active; 'I' for Inactive)
REMARK    1  A    between atoms: C_1  and  O_2
REMARK    2  A    between atoms: C_1  and  C_14
REMARK    3  A    between atoms: O_2  and  C_4
REMARK    4  A    between atoms: C_4  and  N_5
REMARK    5  A    between atoms: N_5  and  C_8
REMARK    6  A    between atoms: C_14  and  N_17
REMARK                            x       y       z     vdW  Elec       q    Type
REMARK                         _______ _______ _______ _____ _____    ______ ____
ROOT
ATOM      1  C   UNL     1      34.241 -14.196 -23.257  0.00  0.00    +0.229 C 
ENDROOT
BRANCH   1   2
ATOM      2  O   UNL     1      33.821 -15.529 -22.993  0.00  0.00    -0.456 OA
BRANCH   2   4
ATOM      3  S   UNL     1      34.626 -17.375 -24.748  0.00  0.00    +0.006 S 
ATOM      4  C   UNL     1      34.577 -16.646 -23.242  0.00  0.00    +0.233 C 
BRANCH   4   5
ATOM      5  N   UNL     1      35.314 -17.165 -22.196  0.00  0.00    -0.278 N 
ATOM      6  H   UNL     1      36.054 -16.589 -21.896  0.00  0.00    +0.156 HD
BRANCH   5   8
ATOM      7 CL   UNL     1      34.808 -22.235 -19.210  0.00  0.00    -0.082 Cl
ATOM      8  C   UNL     1      35.192 -18.382 -21.480  0.00  0.00    +0.051 C 
ATOM      9  C   UNL     1      33.933 -18.905 -21.243  0.00  0.00    +0.016 C 
ATOM     10  C   UNL     1      36.337 -19.019 -21.032  0.00  0.00    +0.016 C 
ATOM     11  C   UNL     1      33.814 -20.101 -20.538  0.00  0.00    +0.013 C 
ATOM     12  C   UNL     1      36.218 -20.217 -20.327  0.00  0.00    +0.013 C 
ATOM     13  C   UNL     1      34.956 -20.758 -20.080  0.00  0.00    +0.058 C 
ENDBRANCH   5   8
ENDBRANCH   4   5
ENDBRANCH   2   4
ENDBRANCH   1   2
BRANCH   1  14
ATOM     14  C   UNL     1      33.132 -13.452 -23.976  0.00  0.00    +0.149 C 
BRANCH  14  17
ATOM     15  O   UNL     1      34.649 -11.164 -25.137  0.00  0.00    -0.269 OA
ATOM     16  O   UNL     1      31.538 -12.113 -21.838  0.00  0.00    -0.269 OA
ATOM     17  N   UNL     1      33.099 -12.052 -23.602  0.00  0.00    -0.219 N 
ATOM     18  C   UNL     1      33.509  -9.825 -23.546  0.00  0.00    +0.058 C 
ATOM     19  C   UNL     1      32.578 -10.111 -22.558  0.00  0.00    +0.058 C 
ATOM     20  C   UNL     1      33.852 -11.077 -24.221  0.00  0.00    +0.255 C 
ATOM     21  C   UNL     1      32.312 -11.548 -22.588  0.00  0.00    +0.255 C 
ATOM     22  C   UNL     1      33.968  -8.544 -23.768  0.00  0.00    +0.005 C 
ATOM     23  C   UNL     1      32.057  -9.129 -21.741  0.00  0.00    +0.005 C 
ATOM     24  C   UNL     1      33.453  -7.532 -22.953  0.00  0.00    +0.000 C 
ATOM     25  C   UNL     1      32.507  -7.822 -21.948  0.00  0.00    +0.000 C 
ENDBRANCH  14  17
ENDBRANCH   1  14
TORSDOF 6
ENDMDL
MODEL 9
REMARK VINA RESULT:      -9.7      2.439      3.704
REMARK  Name = 5278688
REMARK  6 active torsions:
REMARK  status: ('A' for Active; 'I' for Inactive)
REMARK    1  A    between atoms: C_1  and  O_2
REMARK    2  A    between atoms: C_1  and  C_14
REMARK    3  A    between atoms: O_2  and  C_4
REMARK    4  A    between atoms: C_4  and  N_5
REMARK    5  A    between atoms: N_5  and  C_8
REMARK    6  A    between atoms: C_14  and  N_17
REMARK                            x       y       z     vdW  Elec       q    Type
REMARK                         _______ _______ _______ _____ _____    ______ ____
ROOT
ATOM      1  C   UNL     1      35.318 -19.224 -22.394  0.00  0.00    +0.229 C 
ENDROOT
BRANCH   1   2
ATOM      2  O   UNL     1      35.492 -19.702 -21.066  0.00  0.00    -0.456 OA
BRANCH   2   4
ATOM      3  S   UNL     1      32.988 -20.262 -20.327  0.00  0.00    +0.006 S 
ATOM      4  C   UNL     1      34.632 -20.559 -20.428  0.00  0.00    +0.233 C 
BRANCH   4   5
ATOM      5  N   UNL     1      35.168 -21.698 -19.862  0.00  0.00    -0.278 N 
ATOM      6  H   UNL     1      35.426 -22.391 -20.511  0.00  0.00    +0.156 HD
BRANCH   5   8
ATOM      7 CL   UNL     1      36.179 -23.141 -14.224  0.00  0.00    -0.082 Cl
ATOM      8  C   UNL     1      35.411 -22.044 -18.508  0.00  0.00    +0.051 C 
ATOM      9  C   UNL     1      36.625 -21.712 -17.934  0.00  0.00    +0.016 C 
ATOM     10  C   UNL     1      34.427 -22.706 -17.794  0.00  0.00    +0.016 C 
ATOM     11  C   UNL     1      36.864 -22.054 -16.603  0.00  0.00    +0.013 C 
ATOM     12  C   UNL     1      34.666 -23.047 -16.463  0.00  0.00    +0.013 C 
ATOM     13  C   UNL     1      35.885 -22.720 -15.867  0.00  0.00    +0.058 C 
ENDBRANCH   5   8
ENDBRANCH   4   5
ENDBRANCH   2   4
ENDBRANCH   1   2
BRANCH   1  14
ATOM     14  C   UNL     1      36.052 -17.907 -22.556  0.00  0.00    +0.149 C 
BRANCH  14  17
ATOM     15  O   UNL     1      35.025 -16.479 -20.149  0.00  0.00    -0.269 OA
ATOM     16  O   UNL     1      34.720 -16.415 -24.771  0.00  0.00    -0.269 OA
ATOM     17  N   UNL     1      35.145 -16.778 -22.483  0.00  0.00    -0.219 N 
ATOM     18  C   UNL     1      33.850 -15.103 -21.680  0.00  0.00    +0.058 C 
ATOM     19  C   UNL     1      33.758 -15.085 -23.064  0.00  0.00    +0.058 C 
ATOM     20  C   UNL     1      34.741 -16.197 -21.299  0.00  0.00    +0.255 C 
ATOM     21  C   UNL     1      34.591 -16.167 -23.587  0.00  0.00    +0.255 C 
ATOM     22  C   UNL     1      33.171 -14.197 -20.892  0.00  0.00    +0.005 C 
ATOM     23  C   UNL     1      32.984 -14.160 -23.733  0.00  0.00    +0.005 C 
ATOM     24  C   UNL     1      32.380 -13.249 -21.548  0.00  0.00    +0.000 C 
ATOM     25  C   UNL     1      32.287 -13.231 -22.955  0.00  0.00    +0.000 C 
ENDBRANCH  14  17
ENDBRANCH   1  14
TORSDOF 6
ENDMDL
