MODEL 1
REMARK VINA RESULT:     -10.1      0.000      0.000
REMARK  Name = 3885
REMARK  0 active torsions:
REMARK  status: ('A' for Active; 'I' for Inactive)
REMARK                            x       y       z     vdW  Elec       q    Type
REMARK                         _______ _______ _______ _____ _____    ______ ____
ROOT
ATOM      1  O   UNL     1      34.714 -17.251 -21.484  0.00  0.00    -0.483 OA
ATOM      2  O   UNL     1      34.067 -16.140 -26.088  0.00  0.00    -0.283 OA
ATOM      3  O   UNL     1      32.759 -13.946 -25.389  0.00  0.00    -0.283 OA
ATOM      4  C   UNL     1      35.207 -18.569 -21.791  0.00  0.00    +0.134 C 
ATOM      5  C   UNL     1      36.028 -18.572 -23.088  0.00  0.00    +0.045 C 
ATOM      6  C   UNL     1      35.236 -17.993 -24.254  0.00  0.00    +0.036 C 
ATOM      7  C   UNL     1      34.466 -16.780 -23.825  0.00  0.00    +0.054 C 
ATOM      8  C   UNL     1      34.269 -16.467 -22.532  0.00  0.00    +0.137 C 
ATOM      9  C   UNL     1      36.115 -18.967 -20.619  0.00  0.00    +0.044 C 
ATOM     10  C   UNL     1      34.020 -19.542 -21.844  0.00  0.00    +0.044 C 
ATOM     11  C   UNL     1      33.546 -15.247 -22.118  0.00  0.00    +0.037 C 
ATOM     12  C   UNL     1      33.934 -15.904 -24.896  0.00  0.00    +0.233 C 
ATOM     13  C   UNL     1      33.018 -14.365 -23.072  0.00  0.00    +0.045 C 
ATOM     14  C   UNL     1      33.192 -14.664 -24.501  0.00  0.00    +0.234 C 
ATOM     15  C   UNL     1      33.361 -14.930 -20.761  0.00  0.00    +0.003 C 
ATOM     16  C   UNL     1      32.330 -13.206 -22.693  0.00  0.00    +0.003 C 
ATOM     17  C   UNL     1      32.673 -13.773 -20.378  0.00  0.00    +0.000 C 
ATOM     18  C   UNL     1      32.158 -12.914 -21.343  0.00  0.00    +0.000 C 
ENDROOT
TORSDOF 0
ENDMDL
MODEL 2
REMARK VINA RESULT:      -9.3      9.002     10.743
REMARK  Name = 3885
REMARK  0 active torsions:
REMARK  status: ('A' for Active; 'I' for Inactive)
REMARK                            x       y       z     vdW  Elec       q    Type
REMARK                         _______ _______ _______ _____ _____    ______ ____
ROOT
ATOM      1  O   UNL     1      34.857 -23.723 -13.600  0.00  0.00    -0.483 OA
ATOM      2  O   UNL     1      35.193 -22.633 -18.243  0.00  0.00    -0.283 OA
ATOM      3  O   UNL     1      32.551 -22.614 -18.443  0.00  0.00    -0.283 OA
ATOM      4  C   UNL     1      36.267 -23.994 -13.482  0.00  0.00    +0.134 C 
ATOM      5  C   UNL     1      37.094 -23.057 -14.374  0.00  0.00    +0.045 C 
ATOM      6  C   UNL     1      36.638 -23.120 -15.827  0.00  0.00    +0.036 C 
ATOM      7  C   UNL     1      35.143 -23.156 -15.916  0.00  0.00    +0.054 C 
ATOM      8  C   UNL     1      34.360 -23.419 -14.854  0.00  0.00    +0.137 C 
ATOM      9  C   UNL     1      36.628 -23.739 -12.013  0.00  0.00    +0.044 C 
ATOM     10  C   UNL     1      36.515 -25.477 -13.798  0.00  0.00    +0.044 C 
ATOM     11  C   UNL     1      32.885 -23.410 -14.940  0.00  0.00    +0.037 C 
ATOM     12  C   UNL     1      34.537 -22.865 -17.237  0.00  0.00    +0.233 C 
ATOM     13  C   UNL     1      32.238 -23.138 -16.154  0.00  0.00    +0.045 C 
ATOM     14  C   UNL     1      33.043 -22.856 -17.352  0.00  0.00    +0.234 C 
ATOM     15  C   UNL     1      32.083 -23.675 -13.816  0.00  0.00    +0.003 C 
ATOM     16  C   UNL     1      30.840 -23.128 -16.250  0.00  0.00    +0.003 C 
ATOM     17  C   UNL     1      30.688 -23.666 -13.907  0.00  0.00    +0.000 C 
ATOM     18  C   UNL     1      30.068 -23.393 -15.123  0.00  0.00    +0.000 C 
ENDROOT
TORSDOF 0
ENDMDL
MODEL 3
REMARK VINA RESULT:      -8.6      9.687     11.974
REMARK  Name = 3885
REMARK  0 active torsions:
REMARK  status: ('A' for Active; 'I' for Inactive)
REMARK                            x       y       z     vdW  Elec       q    Type
REMARK                         _______ _______ _______ _____ _____    ______ ____
ROOT
ATOM      1  O   UNL     1      32.856 -24.198 -13.972  0.00  0.00    -0.483 OA
ATOM      2  O   UNL     1      35.760 -22.474 -17.357  0.00  0.00    -0.283 OA
ATOM      3  O   UNL     1      37.829 -22.706 -15.718  0.00  0.00    -0.283 OA
ATOM      4  C   UNL     1      31.668 -23.866 -14.714  0.00  0.00    +0.134 C 
ATOM      5  C   UNL     1      31.883 -24.039 -16.225  0.00  0.00    +0.045 C 
ATOM      6  C   UNL     1      33.082 -23.236 -16.714  0.00  0.00    +0.036 C 
ATOM      7  C   UNL     1      34.225 -23.343 -15.750  0.00  0.00    +0.054 C 
ATOM      8  C   UNL     1      34.075 -23.813 -14.499  0.00  0.00    +0.137 C 
ATOM      9  C   UNL     1      30.585 -24.847 -14.245  0.00  0.00    +0.044 C 
ATOM     10  C   UNL     1      31.233 -22.440 -14.342  0.00  0.00    +0.044 C 
ATOM     11  C   UNL     1      35.215 -23.955 -13.569  0.00  0.00    +0.037 C 
ATOM     12  C   UNL     1      35.561 -22.923 -16.237  0.00  0.00    +0.233 C 
ATOM     13  C   UNL     1      36.510 -23.585 -13.957  0.00  0.00    +0.045 C 
ATOM     14  C   UNL     1      36.732 -23.052 -15.310  0.00  0.00    +0.234 C 
ATOM     15  C   UNL     1      35.041 -24.461 -12.269  0.00  0.00    +0.003 C 
ATOM     16  C   UNL     1      37.599 -23.713 -13.085  0.00  0.00    +0.003 C 
ATOM     17  C   UNL     1      36.125 -24.591 -11.395  0.00  0.00    +0.000 C 
ATOM     18  C   UNL     1      37.401 -24.217 -11.803  0.00  0.00    +0.000 C 
ENDROOT
TORSDOF 0
ENDMDL
MODEL 4
REMARK VINA RESULT:      -8.6      7.064      9.985
REMARK  Name = 3885
REMARK  0 active torsions:
REMARK  status: ('A' for Active; 'I' for Inactive)
REMARK                            x       y       z     vdW  Elec       q    Type
REMARK                         _______ _______ _______ _____ _____    ______ ____
ROOT
ATOM      1  O   UNL     1      36.566 -23.449 -16.084  0.00  0.00    -0.483 OA
ATOM      2  O   UNL     1      31.875 -23.960 -15.317  0.00  0.00    -0.283 OA
ATOM      3  O   UNL     1      31.351 -22.580 -17.517  0.00  0.00    -0.283 OA
ATOM      4  C   UNL     1      36.913 -23.965 -14.786  0.00  0.00    +0.134 C 
ATOM      5  C   UNL     1      35.946 -25.075 -14.347  0.00  0.00    +0.045 C 
ATOM      6  C   UNL     1      34.498 -24.602 -14.384  0.00  0.00    +0.036 C 
ATOM      7  C   UNL     1      34.235 -23.784 -15.613  0.00  0.00    +0.054 C 
ATOM      8  C   UNL     1      35.224 -23.290 -16.379  0.00  0.00    +0.137 C 
ATOM      9  C   UNL     1      38.324 -24.554 -14.926  0.00  0.00    +0.044 C 
ATOM     10  C   UNL     1      36.964 -22.801 -13.786  0.00  0.00    +0.044 C 
ATOM     11  C   UNL     1      34.957 -22.521 -17.612  0.00  0.00    +0.037 C 
ATOM     12  C   UNL     1      32.818 -23.550 -15.978  0.00  0.00    +0.233 C 
ATOM     13  C   UNL     1      33.643 -22.262 -18.027  0.00  0.00    +0.045 C 
ATOM     14  C   UNL     1      32.521 -22.767 -17.221  0.00  0.00    +0.234 C 
ATOM     15  C   UNL     1      36.004 -22.023 -18.407  0.00  0.00    +0.003 C 
ATOM     16  C   UNL     1      33.375 -21.534 -19.193  0.00  0.00    +0.003 C 
ATOM     17  C   UNL     1      35.742 -21.295 -19.572  0.00  0.00    +0.000 C 
ATOM     18  C   UNL     1      34.429 -21.051 -19.963  0.00  0.00    +0.000 C 
ENDROOT
TORSDOF 0
ENDMDL
MODEL 5
REMARK VINA RESULT:      -8.5      8.079     10.281
REMARK  Name = 3885
REMARK  0 active torsions:
REMARK  status: ('A' for Active; 'I' for Inactive)
REMARK                            x       y       z     vdW  Elec       q    Type
REMARK                         _______ _______ _______ _____ _____    ______ ____
ROOT
ATOM      1  O   UNL     1      33.030 -23.882 -14.725  0.00  0.00    -0.483 OA
ATOM      2  O   UNL     1      32.716 -22.209 -19.192  0.00  0.00    -0.283 OA
ATOM      3  O   UNL     1      35.320 -21.725 -19.209  0.00  0.00    -0.283 OA
ATOM      4  C   UNL     1      31.600 -23.933 -14.561  0.00  0.00    +0.134 C 
ATOM      5  C   UNL     1      30.900 -24.316 -15.873  0.00  0.00    +0.045 C 
ATOM      6  C   UNL     1      31.292 -23.382 -17.010  0.00  0.00    +0.036 C 
ATOM      7  C   UNL     1      32.760 -23.084 -16.974  0.00  0.00    +0.054 C 
ATOM      8  C   UNL     1      33.527 -23.351 -15.901  0.00  0.00    +0.137 C 
ATOM      9  C   UNL     1      31.332 -25.020 -13.511  0.00  0.00    +0.044 C 
ATOM     10  C   UNL     1      31.115 -22.585 -14.007  0.00  0.00    +0.044 C 
ATOM     11  C   UNL     1      34.982 -23.094 -15.889  0.00  0.00    +0.037 C 
ATOM     12  C   UNL     1      33.360 -22.489 -18.192  0.00  0.00    +0.233 C 
ATOM     13  C   UNL     1      35.624 -22.539 -17.005  0.00  0.00    +0.045 C 
ATOM     14  C   UNL     1      34.833 -22.213 -18.201  0.00  0.00    +0.234 C 
ATOM     15  C   UNL     1      35.769 -23.393 -14.763  0.00  0.00    +0.003 C 
ATOM     16  C   UNL     1      37.002 -22.289 -17.005  0.00  0.00    +0.003 C 
ATOM     17  C   UNL     1      37.146 -23.145 -14.759  0.00  0.00    +0.000 C 
ATOM     18  C   UNL     1      37.760 -22.593 -15.878  0.00  0.00    +0.000 C 
ENDROOT
TORSDOF 0
ENDMDL
MODEL 6
REMARK VINA RESULT:      -8.2      4.460      8.257
REMARK  Name = 3885
REMARK  0 active torsions:
REMARK  status: ('A' for Active; 'I' for Inactive)
REMARK                            x       y       z     vdW  Elec       q    Type
REMARK                         _______ _______ _______ _____ _____    ______ ____
ROOT
ATOM      1  O   UNL     1      33.123  -8.675 -23.882  0.00  0.00    -0.483 OA
ATOM      2  O   UNL     1      31.150  -9.994 -19.732  0.00  0.00    -0.283 OA
ATOM      3  O   UNL     1      31.459 -12.544 -20.381  0.00  0.00    -0.283 OA
ATOM      4  C   UNL     1      32.759  -7.293 -23.704  0.00  0.00    +0.134 C 
ATOM      5  C   UNL     1      32.833  -6.880 -22.227  0.00  0.00    +0.045 C 
ATOM      6  C   UNL     1      31.986  -7.791 -21.348  0.00  0.00    +0.036 C 
ATOM      7  C   UNL     1      32.139  -9.224 -21.762  0.00  0.00    +0.054 C 
ATOM      8  C   UNL     1      32.689  -9.584 -22.935  0.00  0.00    +0.137 C 
ATOM      9  C   UNL     1      33.783  -6.478 -24.506  0.00  0.00    +0.044 C 
ATOM     10  C   UNL     1      31.366  -7.064 -24.310  0.00  0.00    +0.044 C 
ATOM     11  C   UNL     1      32.875 -10.999 -23.316  0.00  0.00    +0.037 C 
ATOM     12  C   UNL     1      31.672 -10.257 -20.806  0.00  0.00    +0.233 C 
ATOM     13  C   UNL     1      32.465 -12.034 -22.464  0.00  0.00    +0.045 C 
ATOM     14  C   UNL     1      31.844 -11.700 -21.174  0.00  0.00    +0.234 C 
ATOM     15  C   UNL     1      33.466 -11.357 -24.541  0.00  0.00    +0.003 C 
ATOM     16  C   UNL     1      32.635 -13.379 -22.814  0.00  0.00    +0.003 C 
ATOM     17  C   UNL     1      33.636 -12.699 -24.896  0.00  0.00    +0.000 C 
ATOM     18  C   UNL     1      33.221 -13.708 -24.033  0.00  0.00    +0.000 C 
ENDROOT
TORSDOF 0
ENDMDL
MODEL 7
REMARK VINA RESULT:      -8.1      2.180      5.208
REMARK  Name = 3885
REMARK  0 active torsions:
REMARK  status: ('A' for Active; 'I' for Inactive)
REMARK                            x       y       z     vdW  Elec       q    Type
REMARK                         _______ _______ _______ _____ _____    ______ ____
ROOT
ATOM      1  O   UNL     1      33.766 -12.155 -23.423  0.00  0.00    -0.483 OA
ATOM      2  O   UNL     1      33.540 -15.265 -27.047  0.00  0.00    -0.283 OA
ATOM      3  O   UNL     1      34.081 -17.258 -25.388  0.00  0.00    -0.283 OA
ATOM      4  C   UNL     1      33.727 -11.013 -24.299  0.00  0.00    +0.134 C 
ATOM      5  C   UNL     1      32.834 -11.274 -25.520  0.00  0.00    +0.045 C 
ATOM      6  C   UNL     1      33.262 -12.530 -26.269  0.00  0.00    +0.036 C 
ATOM      7  C   UNL     1      33.608 -13.630 -25.312  0.00  0.00    +0.054 C 
ATOM      8  C   UNL     1      33.812 -13.411 -24.000  0.00  0.00    +0.137 C 
ATOM      9  C   UNL     1      33.129  -9.865 -23.474  0.00  0.00    +0.044 C 
ATOM     10  C   UNL     1      35.165 -10.639 -24.691  0.00  0.00    +0.044 C 
ATOM     11  C   UNL     1      34.111 -14.507 -23.055  0.00  0.00    +0.037 C 
ATOM     12  C   UNL     1      33.700 -15.002 -25.864  0.00  0.00    +0.233 C 
ATOM     13  C   UNL     1      34.208 -15.833 -23.500  0.00  0.00    +0.045 C 
ATOM     14  C   UNL     1      34.008 -16.130 -24.926  0.00  0.00    +0.234 C 
ATOM     15  C   UNL     1      34.308 -14.260 -21.685  0.00  0.00    +0.003 C 
ATOM     16  C   UNL     1      34.492 -16.881 -22.615  0.00  0.00    +0.003 C 
ATOM     17  C   UNL     1      34.591 -15.303 -20.798  0.00  0.00    +0.000 C 
ATOM     18  C   UNL     1      34.684 -16.611 -21.263  0.00  0.00    +0.000 C 
ENDROOT
TORSDOF 0
ENDMDL
MODEL 8
REMARK VINA RESULT:      -7.8      1.553      5.628
REMARK  Name = 3885
REMARK  0 active torsions:
REMARK  status: ('A' for Active; 'I' for Inactive)
REMARK                            x       y       z     vdW  Elec       q    Type
REMARK                         _______ _______ _______ _____ _____    ______ ____
ROOT
ATOM      1  O   UNL     1      33.901 -14.850 -24.418  0.00  0.00    -0.483 OA
ATOM      2  O   UNL     1      34.986 -15.900 -19.882  0.00  0.00    -0.283 OA
ATOM      3  O   UNL     1      35.351 -18.440 -20.543  0.00  0.00    -0.283 OA
ATOM      4  C   UNL     1      33.447 -13.525 -24.084  0.00  0.00    +0.134 C 
ATOM      5  C   UNL     1      34.278 -12.919 -22.943  0.00  0.00    +0.045 C 
ATOM      6  C   UNL     1      34.290 -13.825 -21.718  0.00  0.00    +0.036 C 
ATOM      7  C   UNL     1      34.450 -15.260 -22.117  0.00  0.00    +0.054 C 
ATOM      8  C   UNL     1      34.280 -15.683 -23.382  0.00  0.00    +0.137 C 
ATOM      9  C   UNL     1      33.638 -12.678 -25.350  0.00  0.00    +0.044 C 
ATOM     10  C   UNL     1      31.948 -13.582 -23.753  0.00  0.00    +0.044 C 
ATOM     11  C   UNL     1      34.481 -17.093 -23.775  0.00  0.00    +0.037 C 
ATOM     12  C   UNL     1      34.831 -16.219 -21.052  0.00  0.00    +0.233 C 
ATOM     13  C   UNL     1      34.848 -18.059 -22.827  0.00  0.00    +0.045 C 
ATOM     14  C   UNL     1      35.035 -17.656 -21.425  0.00  0.00    +0.234 C 
ATOM     15  C   UNL     1      34.312 -17.515 -25.106  0.00  0.00    +0.003 C 
ATOM     16  C   UNL     1      35.041 -19.399 -23.187  0.00  0.00    +0.003 C 
ATOM     17  C   UNL     1      34.503 -18.852 -25.469  0.00  0.00    +0.000 C 
ATOM     18  C   UNL     1      34.867 -19.792 -24.510  0.00  0.00    +0.000 C 
ENDROOT
TORSDOF 0
ENDMDL
MODEL 9
REMARK VINA RESULT:      -7.7      1.626      5.597
REMARK  Name = 3885
REMARK  0 active torsions:
REMARK  status: ('A' for Active; 'I' for Inactive)
REMARK                            x       y       z     vdW  Elec       q    Type
REMARK                         _______ _______ _______ _____ _____    ______ ____
ROOT
ATOM      1  O   UNL     1      33.851 -15.020 -25.502  0.00  0.00    -0.483 OA
ATOM      2  O   UNL     1      34.533 -14.158 -20.850  0.00  0.00    -0.283 OA
ATOM      3  O   UNL     1      35.079 -16.717 -20.441  0.00  0.00    -0.283 OA
ATOM      4  C   UNL     1      33.305 -13.710 -25.745  0.00  0.00    +0.134 C 
ATOM      5  C   UNL     1      33.991 -12.648 -24.872  0.00  0.00    +0.045 C 
ATOM      6  C   UNL     1      33.924 -13.009 -23.394  0.00  0.00    +0.036 C 
ATOM      7  C   UNL     1      34.190 -14.470 -23.189  0.00  0.00    +0.054 C 
ATOM      8  C   UNL     1      34.165 -15.359 -24.199  0.00  0.00    +0.137 C 
ATOM      9  C   UNL     1      33.580 -13.402 -27.222  0.00  0.00    +0.044 C 
ATOM     10  C   UNL     1      31.785 -13.758 -25.527  0.00  0.00    +0.044 C 
ATOM     11  C   UNL     1      34.470 -16.790 -23.996  0.00  0.00    +0.037 C 
ATOM     12  C   UNL     1      34.508 -14.913 -21.811  0.00  0.00    +0.233 C 
ATOM     13  C   UNL     1      34.787 -17.285 -22.723  0.00  0.00    +0.045 C 
ATOM     14  C   UNL     1      34.816 -16.361 -21.579  0.00  0.00    +0.234 C 
ATOM     15  C   UNL     1      34.453 -17.702 -25.066  0.00  0.00    +0.003 C 
ATOM     16  C   UNL     1      35.077 -18.639 -22.517  0.00  0.00    +0.003 C 
ATOM     17  C   UNL     1      34.741 -19.056 -24.865  0.00  0.00    +0.000 C 
ATOM     18  C   UNL     1      35.052 -19.523 -23.592  0.00  0.00    +0.000 C 
ENDROOT
TORSDOF 0
ENDMDL
