MODEL 1
REMARK VINA RESULT:      -9.4      0.000      0.000
REMARK  Name = 11995761
REMARK  9 active torsions:
REMARK  status: ('A' for Active; 'I' for Inactive)
REMARK    1  A    between atoms: C_2  and  C_23
REMARK    2  A    between atoms: C_3  and  C_13
REMARK    3  A    between atoms: C_4  and  C_7
REMARK    4  A    between atoms: C_16  and  O_19
REMARK    5  A    between atoms: O_19  and  C_20
REMARK    6  A    between atoms: C_20  and  C_21
REMARK    7  A    between atoms: C_23  and  C_25
REMARK    8  A    between atoms: C_25  and  N_26
REMARK    9  A    between atoms: N_26  and  C_29
REMARK                            x       y       z     vdW  Elec       q    Type
REMARK                         _______ _______ _______ _____ _____    ______ ____
ROOT
ATOM      1  S   UNL     1      34.662  -8.542 -23.942  0.00  0.00    -0.087 S 
ATOM      2  C   UNL     1      32.763 -10.174 -23.418  0.00  0.00    -0.006 C 
ATOM      3  C   UNL     1      33.722 -10.924 -24.148  0.00  0.00    +0.003 C 
ATOM      4  C   UNL     1      33.139  -8.869 -23.231  0.00  0.00    +0.027 C 
ATOM      5  C   UNL     1      34.810 -10.155 -24.498  0.00  0.00    +0.035 C 
ENDROOT
BRANCH   4   7
ATOM      6 CL   UNL     1      30.773  -7.539 -24.696  0.00  0.00    -0.082 Cl
ATOM      7  C   UNL     1      32.454  -7.793 -22.551  0.00  0.00    +0.016 C 
ATOM      8  C   UNL     1      31.372  -7.127 -23.127  0.00  0.00    +0.058 C 
ATOM      9  C   UNL     1      32.903  -7.426 -21.281  0.00  0.00    +0.001 C 
ATOM     10  C   UNL     1      30.739  -6.094 -22.435  0.00  0.00    +0.011 C 
ATOM     11  C   UNL     1      32.270  -6.393 -20.589  0.00  0.00    +0.000 C 
ATOM     12  C   UNL     1      31.189  -5.727 -21.166  0.00  0.00    +0.001 C 
ENDBRANCH   4   7
BRANCH   3  13
ATOM     13  C   UNL     1      33.662 -12.311 -24.526  0.00  0.00    +0.000 C 
ATOM     14  C   UNL     1      33.950 -13.299 -23.588  0.00  0.00    +0.003 C 
ATOM     15  C   UNL     1      33.318 -12.661 -25.830  0.00  0.00    +0.003 C 
ATOM     16  C   UNL     1      33.547 -14.997 -25.259  0.00  0.00    +0.139 C 
ATOM     17  C   UNL     1      33.892 -14.644 -23.954  0.00  0.00    +0.037 C 
ATOM     18  C   UNL     1      33.259 -14.006 -26.197  0.00  0.00    +0.037 C 
BRANCH  16  19
ATOM     19  O   UNL     1      33.491 -16.309 -25.617  0.00  0.00    -0.475 OA
BRANCH  19  20
ATOM     20  C   UNL     1      34.678 -17.081 -25.441  0.00  0.00    +0.205 C 
BRANCH  20  21
ATOM     21  C   UNL     1      34.299 -18.444 -24.881  0.00  0.00    +0.047 C 
ATOM     22  C   UNL     1      35.061 -18.762 -23.606  0.00  0.00    +0.004 C 
ENDBRANCH  20  21
ENDBRANCH  19  20
ENDBRANCH  16  19
ENDBRANCH   3  13
BRANCH   2  23
ATOM     23  C   UNL     1      31.478 -10.749 -22.907  0.00  0.00    +0.114 C 
BRANCH  23  25
ATOM     24  O   UNL     1      32.064 -12.360 -21.205  0.00  0.00    -0.273 OA
ATOM     25  C   UNL     1      31.597 -11.257 -21.481  0.00  0.00    +0.252 C 
BRANCH  25  26
ATOM     26  N   UNL     1      31.183 -10.318 -20.561  0.00  0.00    -0.147 NA
BRANCH  26  29
ATOM     27  N   UNL     1      32.651  -9.579 -18.911  0.00  0.00    -0.372 N 
ATOM     28  N   UNL     1      31.185 -11.229 -18.333  0.00  0.00    -0.372 N 
ATOM     29  C   UNL     1      31.629 -10.396 -19.335  0.00  0.00    +0.184 C 
ATOM     30  H   UNL     1      33.057  -8.935 -19.535  0.00  0.00    +0.159 HD
ATOM     31  H   UNL     1      32.976  -9.638 -17.984  0.00  0.00    +0.159 HD
ATOM     32  H   UNL     1      30.455 -11.865 -18.509  0.00  0.00    +0.159 HD
ATOM     33  H   UNL     1      31.598 -11.189 -17.440  0.00  0.00    +0.159 HD
ENDBRANCH  26  29
ENDBRANCH  25  26
ENDBRANCH  23  25
ENDBRANCH   2  23
TORSDOF 9
ENDMDL
MODEL 2
REMARK VINA RESULT:      -8.9      4.151      8.701
REMARK  Name = 11995761
REMARK  9 active torsions:
REMARK  status: ('A' for Active; 'I' for Inactive)
REMARK    1  A    between atoms: C_2  and  C_23
REMARK    2  A    between atoms: C_3  and  C_13
REMARK    3  A    between atoms: C_4  and  C_7
REMARK    4  A    between atoms: C_16  and  O_19
REMARK    5  A    between atoms: O_19  and  C_20
REMARK    6  A    between atoms: C_20  and  C_21
REMARK    7  A    between atoms: C_23  and  C_25
REMARK    8  A    between atoms: C_25  and  N_26
REMARK    9  A    between atoms: N_26  and  C_29
REMARK                            x       y       z     vdW  Elec       q    Type
REMARK                         _______ _______ _______ _____ _____    ______ ____
ROOT
ATOM      1  S   UNL     1      34.565 -19.002 -24.117  0.00  0.00    -0.087 S 
ATOM      2  C   UNL     1      34.357 -17.071 -22.451  0.00  0.00    -0.006 C 
ATOM      3  C   UNL     1      34.251 -16.481 -23.737  0.00  0.00    +0.003 C 
ATOM      4  C   UNL     1      34.529 -18.431 -22.504  0.00  0.00    +0.027 C 
ATOM      5  C   UNL     1      34.349 -17.422 -24.739  0.00  0.00    +0.035 C 
ENDROOT
BRANCH   4   7
ATOM      6 CL   UNL     1      37.386 -19.001 -21.491  0.00  0.00    -0.082 Cl
ATOM      7  C   UNL     1      34.676 -19.390 -21.432  0.00  0.00    +0.016 C 
ATOM      8  C   UNL     1      35.925 -19.718 -20.903  0.00  0.00    +0.058 C 
ATOM      9  C   UNL     1      33.525 -19.994 -20.926  0.00  0.00    +0.001 C 
ATOM     10  C   UNL     1      36.023 -20.649 -19.869  0.00  0.00    +0.011 C 
ATOM     11  C   UNL     1      33.623 -20.925 -19.891  0.00  0.00    +0.000 C 
ATOM     12  C   UNL     1      34.871 -21.253 -19.364  0.00  0.00    +0.001 C 
ENDBRANCH   4   7
BRANCH   3  13
ATOM     13  C   UNL     1      34.065 -15.091 -24.063  0.00  0.00    +0.000 C 
ATOM     14  C   UNL     1      33.369 -14.735 -25.215  0.00  0.00    +0.003 C 
ATOM     15  C   UNL     1      34.584 -14.107 -23.224  0.00  0.00    +0.003 C 
ATOM     16  C   UNL     1      33.707 -12.400 -24.692  0.00  0.00    +0.139 C 
ATOM     17  C   UNL     1      33.189 -13.388 -25.530  0.00  0.00    +0.037 C 
ATOM     18  C   UNL     1      34.405 -12.760 -23.539  0.00  0.00    +0.037 C 
BRANCH  16  19
ATOM     19  O   UNL     1      33.532 -11.086 -25.000  0.00  0.00    -0.475 OA
BRANCH  19  20
ATOM     20  C   UNL     1      33.721 -10.142 -23.947  0.00  0.00    +0.205 C 
BRANCH  20  21
ATOM     21  C   UNL     1      34.874  -9.220 -24.314  0.00  0.00    +0.047 C 
ATOM     22  C   UNL     1      34.781  -7.886 -23.596  0.00  0.00    +0.004 C 
ENDBRANCH  20  21
ENDBRANCH  19  20
ENDBRANCH  16  19
ENDBRANCH   3  13
BRANCH   2  23
ATOM     23  C   UNL     1      34.286 -16.292 -21.175  0.00  0.00    +0.114 C 
BRANCH  23  25
ATOM     24  O   UNL     1      31.873 -16.407 -21.169  0.00  0.00    -0.273 OA
ATOM     25  C   UNL     1      32.888 -15.773 -20.888  0.00  0.00    +0.252 C 
BRANCH  25  26
ATOM     26  N   UNL     1      32.910 -14.561 -20.234  0.00  0.00    -0.147 NA
BRANCH  26  29
ATOM     27  N   UNL     1      31.992 -12.436 -19.971  0.00  0.00    -0.372 N 
ATOM     28  N   UNL     1      31.632 -13.483 -21.966  0.00  0.00    -0.372 N 
ATOM     29  C   UNL     1      32.212 -13.569 -20.720  0.00  0.00    +0.184 C 
ATOM     30  H   UNL     1      32.355 -12.372 -19.058  0.00  0.00    +0.159 HD
ATOM     31  H   UNL     1      31.473 -11.691 -20.347  0.00  0.00    +0.159 HD
ATOM     32  H   UNL     1      31.717 -14.231 -22.600  0.00  0.00    +0.159 HD
ATOM     33  H   UNL     1      31.134 -12.673 -22.223  0.00  0.00    +0.159 HD
ENDBRANCH  26  29
ENDBRANCH  25  26
ENDBRANCH  23  25
ENDBRANCH   2  23
TORSDOF 9
ENDMDL
MODEL 3
REMARK VINA RESULT:      -8.6      2.753      3.531
REMARK  Name = 11995761
REMARK  9 active torsions:
REMARK  status: ('A' for Active; 'I' for Inactive)
REMARK    1  A    between atoms: C_2  and  C_23
REMARK    2  A    between atoms: C_3  and  C_13
REMARK    3  A    between atoms: C_4  and  C_7
REMARK    4  A    between atoms: C_16  and  O_19
REMARK    5  A    between atoms: O_19  and  C_20
REMARK    6  A    between atoms: C_20  and  C_21
REMARK    7  A    between atoms: C_23  and  C_25
REMARK    8  A    between atoms: C_25  and  N_26
REMARK    9  A    between atoms: N_26  and  C_29
REMARK                            x       y       z     vdW  Elec       q    Type
REMARK                         _______ _______ _______ _____ _____    ______ ____
ROOT
ATOM      1  S   UNL     1      31.266 -10.980 -21.114  0.00  0.00    -0.087 S 
ATOM      2  C   UNL     1      32.579 -11.075 -23.308  0.00  0.00    -0.006 C 
ATOM      3  C   UNL     1      32.593 -12.399 -22.794  0.00  0.00    +0.003 C 
ATOM      4  C   UNL     1      31.895 -10.201 -22.502  0.00  0.00    +0.027 C 
ATOM      5  C   UNL     1      31.913 -12.488 -21.600  0.00  0.00    +0.035 C 
ENDROOT
BRANCH   4   7
ATOM      6 CL   UNL     1      32.712  -8.342 -20.180  0.00  0.00    -0.082 Cl
ATOM      7  C   UNL     1      31.652  -8.785 -22.665  0.00  0.00    +0.016 C 
ATOM      8  C   UNL     1      31.985  -7.861 -21.674  0.00  0.00    +0.058 C 
ATOM      9  C   UNL     1      31.068  -8.350 -23.855  0.00  0.00    +0.001 C 
ATOM     10  C   UNL     1      31.733  -6.504 -21.872  0.00  0.00    +0.011 C 
ATOM     11  C   UNL     1      30.815  -6.992 -24.053  0.00  0.00    +0.000 C 
ATOM     12  C   UNL     1      31.147  -6.069 -23.062  0.00  0.00    +0.001 C 
ENDBRANCH   4   7
BRANCH   3  13
ATOM     13  C   UNL     1      33.210 -13.566 -23.368  0.00  0.00    +0.000 C 
ATOM     14  C   UNL     1      34.158 -14.278 -22.640  0.00  0.00    +0.003 C 
ATOM     15  C   UNL     1      32.855 -13.978 -24.651  0.00  0.00    +0.003 C 
ATOM     16  C   UNL     1      34.403 -15.825 -24.480  0.00  0.00    +0.139 C 
ATOM     17  C   UNL     1      34.756 -15.409 -23.195  0.00  0.00    +0.037 C 
ATOM     18  C   UNL     1      33.453 -15.109 -25.208  0.00  0.00    +0.037 C 
BRANCH  16  19
ATOM     19  O   UNL     1      34.986 -16.928 -25.023  0.00  0.00    -0.475 OA
BRANCH  19  20
ATOM     20  C   UNL     1      34.233 -18.140 -24.996  0.00  0.00    +0.205 C 
BRANCH  20  21
ATOM     21  C   UNL     1      34.983 -19.167 -24.161  0.00  0.00    +0.047 C 
ATOM     22  C   UNL     1      34.581 -19.109 -22.699  0.00  0.00    +0.004 C 
ENDBRANCH  20  21
ENDBRANCH  19  20
ENDBRANCH  16  19
ENDBRANCH   3  13
BRANCH   2  23
ATOM     23  C   UNL     1      33.239 -10.679 -24.592  0.00  0.00    +0.114 C 
BRANCH  23  25
ATOM     24  O   UNL     1      35.465 -10.368 -23.708  0.00  0.00    -0.273 OA
ATOM     25  C   UNL     1      34.532  -9.916 -24.368  0.00  0.00    +0.252 C 
BRANCH  25  26
ATOM     26  N   UNL     1      34.544  -8.711 -25.036  0.00  0.00    -0.147 NA
BRANCH  26  29
ATOM     27  N   UNL     1      34.255  -6.404 -24.894  0.00  0.00    -0.372 N 
ATOM     28  N   UNL     1      35.074  -7.464 -23.046  0.00  0.00    -0.372 N 
ATOM     29  C   UNL     1      34.634  -7.606 -24.344  0.00  0.00    +0.184 C 
ATOM     30  H   UNL     1      33.921  -6.370 -25.819  0.00  0.00    +0.159 HD
ATOM     31  H   UNL     1      34.318  -5.578 -24.363  0.00  0.00    +0.159 HD
ATOM     32  H   UNL     1      35.375  -8.252 -22.540  0.00  0.00    +0.159 HD
ATOM     33  H   UNL     1      35.087  -6.573 -22.626  0.00  0.00    +0.159 HD
ENDBRANCH  26  29
ENDBRANCH  25  26
ENDBRANCH  23  25
ENDBRANCH   2  23
TORSDOF 9
ENDMDL
MODEL 4
REMARK VINA RESULT:      -8.3      2.458      7.698
REMARK  Name = 11995761
REMARK  9 active torsions:
REMARK  status: ('A' for Active; 'I' for Inactive)
REMARK    1  A    between atoms: C_2  and  C_23
REMARK    2  A    between atoms: C_3  and  C_13
REMARK    3  A    between atoms: C_4  and  C_7
REMARK    4  A    between atoms: C_16  and  O_19
REMARK    5  A    between atoms: O_19  and  C_20
REMARK    6  A    between atoms: C_20  and  C_21
REMARK    7  A    between atoms: C_23  and  C_25
REMARK    8  A    between atoms: C_25  and  N_26
REMARK    9  A    between atoms: N_26  and  C_29
REMARK                            x       y       z     vdW  Elec       q    Type
REMARK                         _______ _______ _______ _____ _____    ______ ____
ROOT
ATOM      1  S   UNL     1      35.177 -10.501 -24.687  0.00  0.00    -0.087 S 
ATOM      2  C   UNL     1      32.846 -10.354 -23.642  0.00  0.00    -0.006 C 
ATOM      3  C   UNL     1      33.258  -9.012 -23.851  0.00  0.00    +0.003 C 
ATOM      4  C   UNL     1      33.786 -11.267 -24.048  0.00  0.00    +0.027 C 
ATOM      5  C   UNL     1      34.513  -8.947 -24.416  0.00  0.00    +0.035 C 
ENDROOT
BRANCH   4   7
ATOM      6 CL   UNL     1      33.087 -12.746 -26.664  0.00  0.00    -0.082 Cl
ATOM      7  C   UNL     1      33.754 -12.712 -24.009  0.00  0.00    +0.016 C 
ATOM      8  C   UNL     1      33.449 -13.474 -25.137  0.00  0.00    +0.058 C 
ATOM      9  C   UNL     1      34.039 -13.344 -22.798  0.00  0.00    +0.001 C 
ATOM     10  C   UNL     1      33.429 -14.866 -25.055  0.00  0.00    +0.011 C 
ATOM     11  C   UNL     1      34.019 -14.736 -22.716  0.00  0.00    +0.000 C 
ATOM     12  C   UNL     1      33.713 -15.497 -23.843  0.00  0.00    +0.001 C 
ENDBRANCH   4   7
BRANCH   3  13
ATOM     13  C   UNL     1      32.535  -7.805 -23.548  0.00  0.00    +0.000 C 
ATOM     14  C   UNL     1      31.373  -7.498 -24.250  0.00  0.00    +0.003 C 
ATOM     15  C   UNL     1      33.002  -6.948 -22.553  0.00  0.00    +0.003 C 
ATOM     16  C   UNL     1      31.136  -5.468 -22.960  0.00  0.00    +0.139 C 
ATOM     17  C   UNL     1      30.672  -6.328 -23.956  0.00  0.00    +0.037 C 
ATOM     18  C   UNL     1      32.301  -5.778 -22.258  0.00  0.00    +0.037 C 
BRANCH  16  19
ATOM     19  O   UNL     1      30.453  -4.327 -22.674  0.00  0.00    -0.475 OA
BRANCH  19  20
ATOM     20  C   UNL     1      31.081  -3.091 -23.014  0.00  0.00    +0.205 C 
BRANCH  20  21
ATOM     21  C   UNL     1      30.794  -2.780 -24.475  0.00  0.00    +0.047 C 
ATOM     22  C   UNL     1      32.008  -3.024 -25.354  0.00  0.00    +0.004 C 
ENDBRANCH  20  21
ENDBRANCH  19  20
ENDBRANCH  16  19
ENDBRANCH   3  13
BRANCH   2  23
ATOM     23  C   UNL     1      31.528 -10.731 -23.042  0.00  0.00    +0.114 C 
BRANCH  23  25
ATOM     24  O   UNL     1      31.829 -11.920 -20.962  0.00  0.00    -0.273 OA
ATOM     25  C   UNL     1      31.593 -10.857 -21.531  0.00  0.00    +0.252 C 
BRANCH  25  26
ATOM     26  N   UNL     1      31.419  -9.643 -20.902  0.00  0.00    -0.147 NA
BRANCH  26  29
ATOM     27  N   UNL     1      32.813  -8.288 -19.619  0.00  0.00    -0.372 N 
ATOM     28  N   UNL     1      32.043 -10.202 -18.645  0.00  0.00    -0.372 N 
ATOM     29  C   UNL     1      32.047  -9.419 -19.778  0.00  0.00    +0.184 C 
ATOM     30  H   UNL     1      32.898  -7.643 -20.358  0.00  0.00    +0.159 HD
ATOM     31  H   UNL     1      33.275  -8.122 -18.766  0.00  0.00    +0.159 HD
ATOM     32  H   UNL     1      31.531 -11.043 -18.631  0.00  0.00    +0.159 HD
ATOM     33  H   UNL     1      32.552  -9.921 -17.850  0.00  0.00    +0.159 HD
ENDBRANCH  26  29
ENDBRANCH  25  26
ENDBRANCH  23  25
ENDBRANCH   2  23
TORSDOF 9
ENDMDL
MODEL 5
REMARK VINA RESULT:      -8.0      4.480      7.385
REMARK  Name = 11995761
REMARK  9 active torsions:
REMARK  status: ('A' for Active; 'I' for Inactive)
REMARK    1  A    between atoms: C_2  and  C_23
REMARK    2  A    between atoms: C_3  and  C_13
REMARK    3  A    between atoms: C_4  and  C_7
REMARK    4  A    between atoms: C_16  and  O_19
REMARK    5  A    between atoms: O_19  and  C_20
REMARK    6  A    between atoms: C_20  and  C_21
REMARK    7  A    between atoms: C_23  and  C_25
REMARK    8  A    between atoms: C_25  and  N_26
REMARK    9  A    between atoms: N_26  and  C_29
REMARK                            x       y       z     vdW  Elec       q    Type
REMARK                         _______ _______ _______ _____ _____    ______ ____
ROOT
ATOM      1  S   UNL     1      34.454 -17.350 -25.128  0.00  0.00    -0.087 S 
ATOM      2  C   UNL     1      34.456 -16.805 -22.628  0.00  0.00    -0.006 C 
ATOM      3  C   UNL     1      34.707 -18.199 -22.717  0.00  0.00    +0.003 C 
ATOM      4  C   UNL     1      34.299 -16.214 -23.856  0.00  0.00    +0.027 C 
ATOM      5  C   UNL     1      34.732 -18.629 -24.025  0.00  0.00    +0.035 C 
ENDROOT
BRANCH   4   7
ATOM      6 CL   UNL     1      32.670 -15.670 -26.418  0.00  0.00    -0.082 Cl
ATOM      7  C   UNL     1      34.033 -14.835 -24.196  0.00  0.00    +0.016 C 
ATOM      8  C   UNL     1      33.306 -14.482 -25.333  0.00  0.00    +0.058 C 
ATOM      9  C   UNL     1      34.527 -13.842 -23.349  0.00  0.00    +0.001 C 
ATOM     10  C   UNL     1      33.072 -13.138 -25.624  0.00  0.00    +0.011 C 
ATOM     11  C   UNL     1      34.293 -12.497 -23.640  0.00  0.00    +0.000 C 
ATOM     12  C   UNL     1      33.567 -12.145 -24.777  0.00  0.00    +0.001 C 
ENDBRANCH   4   7
BRANCH   3  13
ATOM     13  C   UNL     1      34.922 -19.131 -21.642  0.00  0.00    +0.000 C 
ATOM     14  C   UNL     1      33.840 -19.809 -21.086  0.00  0.00    +0.003 C 
ATOM     15  C   UNL     1      36.211 -19.351 -21.161  0.00  0.00    +0.003 C 
ATOM     16  C   UNL     1      35.337 -20.936 -19.560  0.00  0.00    +0.139 C 
ATOM     17  C   UNL     1      34.047 -20.713 -20.044  0.00  0.00    +0.037 C 
ATOM     18  C   UNL     1      36.419 -20.255 -20.118  0.00  0.00    +0.037 C 
BRANCH  16  19
ATOM     19  O   UNL     1      35.540 -21.818 -18.543  0.00  0.00    -0.475 OA
BRANCH  19  20
ATOM     20  C   UNL     1      36.749 -21.682 -17.798  0.00  0.00    +0.205 C 
BRANCH  20  21
ATOM     21  C   UNL     1      36.605 -22.437 -16.485  0.00  0.00    +0.047 C 
ATOM     22  C   UNL     1      35.178 -22.903 -16.255  0.00  0.00    +0.004 C 
ENDBRANCH  20  21
ENDBRANCH  19  20
ENDBRANCH  16  19
ENDBRANCH   3  13
BRANCH   2  23
ATOM     23  C   UNL     1      34.374 -16.060 -21.332  0.00  0.00    +0.114 C 
BRANCH  23  25
ATOM     24  O   UNL     1      31.980 -16.374 -21.257  0.00  0.00    -0.273 OA
ATOM     25  C   UNL     1      32.949 -15.673 -20.976  0.00  0.00    +0.252 C 
BRANCH  25  26
ATOM     26  N   UNL     1      32.896 -14.496 -20.260  0.00  0.00    -0.147 NA
BRANCH  26  29
ATOM     27  N   UNL     1      32.006 -12.362 -19.989  0.00  0.00    -0.372 N 
ATOM     28  N   UNL     1      31.618 -13.403 -21.982  0.00  0.00    -0.372 N 
ATOM     29  C   UNL     1      32.206 -13.496 -20.740  0.00  0.00    +0.184 C 
ATOM     30  H   UNL     1      32.377 -12.302 -19.079  0.00  0.00    +0.159 HD
ATOM     31  H   UNL     1      31.492 -11.609 -20.361  0.00  0.00    +0.159 HD
ATOM     32  H   UNL     1      31.688 -14.152 -22.616  0.00  0.00    +0.159 HD
ATOM     33  H   UNL     1      31.128 -12.587 -22.235  0.00  0.00    +0.159 HD
ENDBRANCH  26  29
ENDBRANCH  25  26
ENDBRANCH  23  25
ENDBRANCH   2  23
TORSDOF 9
ENDMDL
MODEL 6
REMARK VINA RESULT:      -7.9      2.407      3.973
REMARK  Name = 11995761
REMARK  9 active torsions:
REMARK  status: ('A' for Active; 'I' for Inactive)
REMARK    1  A    between atoms: C_2  and  C_23
REMARK    2  A    between atoms: C_3  and  C_13
REMARK    3  A    between atoms: C_4  and  C_7
REMARK    4  A    between atoms: C_16  and  O_19
REMARK    5  A    between atoms: O_19  and  C_20
REMARK    6  A    between atoms: C_20  and  C_21
REMARK    7  A    between atoms: C_23  and  C_25
REMARK    8  A    between atoms: C_25  and  N_26
REMARK    9  A    between atoms: N_26  and  C_29
REMARK                            x       y       z     vdW  Elec       q    Type
REMARK                         _______ _______ _______ _____ _____    ______ ____
ROOT
ATOM      1  S   UNL     1      33.529 -12.783 -26.080  0.00  0.00    -0.087 S 
ATOM      2  C   UNL     1      33.870 -13.411 -23.623  0.00  0.00    -0.006 C 
ATOM      3  C   UNL     1      33.982 -14.626 -24.349  0.00  0.00    +0.003 C 
ATOM      4  C   UNL     1      33.626 -12.331 -24.432  0.00  0.00    +0.027 C 
ATOM      5  C   UNL     1      33.816 -14.428 -25.702  0.00  0.00    +0.035 C 
ENDROOT
BRANCH   4   7
ATOM      6 CL   UNL     1      35.826 -10.360 -25.319  0.00  0.00    -0.082 Cl
ATOM      7  C   UNL     1      33.449 -10.937 -24.090  0.00  0.00    +0.016 C 
ATOM      8  C   UNL     1      34.386  -9.966 -24.445  0.00  0.00    +0.058 C 
ATOM      9  C   UNL     1      32.301 -10.573 -23.385  0.00  0.00    +0.001 C 
ATOM     10  C   UNL     1      34.176  -8.633 -24.095  0.00  0.00    +0.011 C 
ATOM     11  C   UNL     1      32.091  -9.238 -23.035  0.00  0.00    +0.000 C 
ATOM     12  C   UNL     1      33.029  -8.269 -23.389  0.00  0.00    +0.001 C 
ENDBRANCH   4   7
BRANCH   3  13
ATOM     13  C   UNL     1      34.234 -15.947 -23.834  0.00  0.00    +0.000 C 
ATOM     14  C   UNL     1      34.461 -16.129 -22.473  0.00  0.00    +0.003 C 
ATOM     15  C   UNL     1      34.252 -17.037 -24.701  0.00  0.00    +0.003 C 
ATOM     16  C   UNL     1      34.722 -18.503 -22.839  0.00  0.00    +0.139 C 
ATOM     17  C   UNL     1      34.705 -17.408 -21.974  0.00  0.00    +0.037 C 
ATOM     18  C   UNL     1      34.496 -18.317 -24.203  0.00  0.00    +0.037 C 
BRANCH  16  19
ATOM     19  O   UNL     1      34.961 -19.751 -22.353  0.00  0.00    -0.475 OA
BRANCH  19  20
ATOM     20  C   UNL     1      35.349 -19.851 -20.983  0.00  0.00    +0.205 C 
BRANCH  20  21
ATOM     21  C   UNL     1      34.375 -20.770 -20.262  0.00  0.00    +0.047 C 
ATOM     22  C   UNL     1      32.951 -20.244 -20.324  0.00  0.00    +0.004 C 
ENDBRANCH  20  21
ENDBRANCH  19  20
ENDBRANCH  16  19
ENDBRANCH   3  13
BRANCH   2  23
ATOM     23  C   UNL     1      34.006 -13.321 -22.135  0.00  0.00    +0.114 C 
BRANCH  23  25
ATOM     24  O   UNL     1      31.827 -14.311 -21.803  0.00  0.00    -0.273 OA
ATOM     25  C   UNL     1      32.680 -13.514 -21.420  0.00  0.00    +0.252 C 
BRANCH  25  26
ATOM     26  N   UNL     1      32.591 -12.744 -20.280  0.00  0.00    -0.147 NA
BRANCH  26  29
ATOM     27  N   UNL     1      31.590 -10.974 -19.144  0.00  0.00    -0.372 N 
ATOM     28  N   UNL     1      30.527 -11.744 -21.011  0.00  0.00    -0.372 N 
ATOM     29  C   UNL     1      31.611 -11.885 -20.174  0.00  0.00    +0.184 C 
ATOM     30  H   UNL     1      32.312 -10.971 -18.475  0.00  0.00    +0.159 HD
ATOM     31  H   UNL     1      30.853 -10.325 -19.077  0.00  0.00    +0.159 HD
ATOM     32  H   UNL     1      30.425 -12.338 -21.788  0.00  0.00    +0.159 HD
ATOM     33  H   UNL     1      29.854 -11.048 -20.831  0.00  0.00    +0.159 HD
ENDBRANCH  26  29
ENDBRANCH  25  26
ENDBRANCH  23  25
ENDBRANCH   2  23
TORSDOF 9
ENDMDL
MODEL 7
REMARK VINA RESULT:      -7.8     12.570     15.328
REMARK  Name = 11995761
REMARK  9 active torsions:
REMARK  status: ('A' for Active; 'I' for Inactive)
REMARK    1  A    between atoms: C_2  and  C_23
REMARK    2  A    between atoms: C_3  and  C_13
REMARK    3  A    between atoms: C_4  and  C_7
REMARK    4  A    between atoms: C_16  and  O_19
REMARK    5  A    between atoms: O_19  and  C_20
REMARK    6  A    between atoms: C_20  and  C_21
REMARK    7  A    between atoms: C_23  and  C_25
REMARK    8  A    between atoms: C_25  and  N_26
REMARK    9  A    between atoms: N_26  and  C_29
REMARK                            x       y       z     vdW  Elec       q    Type
REMARK                         _______ _______ _______ _____ _____    ______ ____
ROOT
ATOM      1  S   UNL     1      31.560 -23.007 -13.550  0.00  0.00    -0.087 S 
ATOM      2  C   UNL     1      32.744 -23.609 -15.737  0.00  0.00    -0.006 C 
ATOM      3  C   UNL     1      33.774 -23.459 -14.772  0.00  0.00    +0.003 C 
ATOM      4  C   UNL     1      31.493 -23.394 -15.216  0.00  0.00    +0.027 C 
ATOM      5  C   UNL     1      33.268 -23.131 -13.534  0.00  0.00    +0.035 C 
ENDROOT
BRANCH   4   7
ATOM      6 CL   UNL     1      30.003 -26.094 -15.183  0.00  0.00    -0.082 Cl
ATOM      7  C   UNL     1      30.199 -23.448 -15.857  0.00  0.00    +0.016 C 
ATOM      8  C   UNL     1      29.444 -24.621 -15.897  0.00  0.00    +0.058 C 
ATOM      9  C   UNL     1      29.707 -22.283 -16.447  0.00  0.00    +0.001 C 
ATOM     10  C   UNL     1      28.200 -24.630 -16.527  0.00  0.00    +0.011 C 
ATOM     11  C   UNL     1      28.462 -22.292 -17.077  0.00  0.00    +0.000 C 
ATOM     12  C   UNL     1      27.709 -23.465 -17.117  0.00  0.00    +0.001 C 
ENDBRANCH   4   7
BRANCH   3  13
ATOM     13  C   UNL     1      35.193 -23.609 -14.960  0.00  0.00    +0.000 C 
ATOM     14  C   UNL     1      35.967 -22.506 -15.307  0.00  0.00    +0.003 C 
ATOM     15  C   UNL     1      35.787 -24.859 -14.794  0.00  0.00    +0.003 C 
ATOM     16  C   UNL     1      37.940 -23.900 -15.323  0.00  0.00    +0.139 C 
ATOM     17  C   UNL     1      37.343 -22.650 -15.489  0.00  0.00    +0.037 C 
ATOM     18  C   UNL     1      37.162 -25.005 -14.976  0.00  0.00    +0.037 C 
BRANCH  16  19
ATOM     19  O   UNL     1      39.282 -24.042 -15.501  0.00  0.00    -0.475 OA
BRANCH  19  20
ATOM     20  C   UNL     1      39.815 -25.362 -15.397  0.00  0.00    +0.205 C 
BRANCH  20  21
ATOM     21  C   UNL     1      40.476 -25.519 -14.036  0.00  0.00    +0.047 C 
ATOM     22  C   UNL     1      41.127 -26.882 -13.878  0.00  0.00    +0.004 C 
ENDBRANCH  20  21
ENDBRANCH  19  20
ENDBRANCH  16  19
ENDBRANCH   3  13
BRANCH   2  23
ATOM     23  C   UNL     1      32.997 -23.964 -17.169  0.00  0.00    +0.114 C 
BRANCH  23  25
ATOM     24  O   UNL     1      32.485 -21.873 -18.266  0.00  0.00    -0.273 OA
ATOM     25  C   UNL     1      33.313 -22.748 -18.021  0.00  0.00    +0.252 C 
BRANCH  25  26
ATOM     26  N   UNL     1      34.633 -22.724 -18.419  0.00  0.00    -0.147 NA
BRANCH  26  29
ATOM     27  N   UNL     1      36.328 -21.160 -18.740  0.00  0.00    -0.372 N 
ATOM     28  N   UNL     1      34.458 -20.943 -20.029  0.00  0.00    -0.372 N 
ATOM     29  C   UNL     1      35.086 -21.667 -19.040  0.00  0.00    +0.184 C 
ATOM     30  H   UNL     1      36.881 -21.589 -18.047  0.00  0.00    +0.159 HD
ATOM     31  H   UNL     1      36.665 -20.369 -19.218  0.00  0.00    +0.159 HD
ATOM     32  H   UNL     1      33.560 -21.204 -20.335  0.00  0.00    +0.159 HD
ATOM     33  H   UNL     1      34.908 -20.164 -20.430  0.00  0.00    +0.159 HD
ENDBRANCH  26  29
ENDBRANCH  25  26
ENDBRANCH  23  25
ENDBRANCH   2  23
TORSDOF 9
ENDMDL
MODEL 8
REMARK VINA RESULT:      -7.6      3.402      8.120
REMARK  Name = 11995761
REMARK  9 active torsions:
REMARK  status: ('A' for Active; 'I' for Inactive)
REMARK    1  A    between atoms: C_2  and  C_23
REMARK    2  A    between atoms: C_3  and  C_13
REMARK    3  A    between atoms: C_4  and  C_7
REMARK    4  A    between atoms: C_16  and  O_19
REMARK    5  A    between atoms: O_19  and  C_20
REMARK    6  A    between atoms: C_20  and  C_21
REMARK    7  A    between atoms: C_23  and  C_25
REMARK    8  A    between atoms: C_25  and  N_26
REMARK    9  A    between atoms: N_26  and  C_29
REMARK                            x       y       z     vdW  Elec       q    Type
REMARK                         _______ _______ _______ _____ _____    ______ ____
ROOT
ATOM      1  S   UNL     1      32.123 -12.996 -21.342  0.00  0.00    -0.087 S 
ATOM      2  C   UNL     1      32.577 -11.431 -23.315  0.00  0.00    -0.006 C 
ATOM      3  C   UNL     1      31.987 -10.621 -22.310  0.00  0.00    +0.003 C 
ATOM      4  C   UNL     1      32.713 -12.741 -22.929  0.00  0.00    +0.027 C 
ATOM      5  C   UNL     1      31.688 -11.349 -21.179  0.00  0.00    +0.035 C 
ENDROOT
BRANCH   4   7
ATOM      6 CL   UNL     1      34.751 -14.520 -21.448  0.00  0.00    -0.082 Cl
ATOM      7  C   UNL     1      33.259 -13.868 -23.649  0.00  0.00    +0.016 C 
ATOM      8  C   UNL     1      34.187 -14.734 -23.069  0.00  0.00    +0.058 C 
ATOM      9  C   UNL     1      32.833 -14.081 -24.960  0.00  0.00    +0.001 C 
ATOM     10  C   UNL     1      34.689 -15.811 -23.800  0.00  0.00    +0.011 C 
ATOM     11  C   UNL     1      33.335 -15.158 -25.691  0.00  0.00    +0.000 C 
ATOM     12  C   UNL     1      34.263 -16.022 -25.112  0.00  0.00    +0.001 C 
ENDBRANCH   4   7
BRANCH   3  13
ATOM     13  C   UNL     1      31.695  -9.212 -22.365  0.00  0.00    +0.000 C 
ATOM     14  C   UNL     1      32.044  -8.390 -21.298  0.00  0.00    +0.003 C 
ATOM     15  C   UNL     1      31.063  -8.678 -23.486  0.00  0.00    +0.003 C 
ATOM     16  C   UNL     1      31.129  -6.486 -22.472  0.00  0.00    +0.139 C 
ATOM     17  C   UNL     1      31.761  -7.024 -21.351  0.00  0.00    +0.037 C 
ATOM     18  C   UNL     1      30.780  -7.313 -23.540  0.00  0.00    +0.037 C 
BRANCH  16  19
ATOM     19  O   UNL     1      30.852  -5.155 -22.524  0.00  0.00    -0.475 OA
BRANCH  19  20
ATOM     20  C   UNL     1      31.775  -4.327 -23.231  0.00  0.00    +0.205 C 
BRANCH  20  21
ATOM     21  C   UNL     1      31.233  -4.067 -24.628  0.00  0.00    +0.047 C 
ATOM     22  C   UNL     1      32.196  -4.537 -25.704  0.00  0.00    +0.004 C 
ENDBRANCH  20  21
ENDBRANCH  19  20
ENDBRANCH  16  19
ENDBRANCH   3  13
BRANCH   2  23
ATOM     23  C   UNL     1      33.007 -10.911 -24.651  0.00  0.00    +0.114 C 
BRANCH  23  25
ATOM     24  O   UNL     1      35.251 -10.937 -25.543  0.00  0.00    -0.273 OA
ATOM     25  C   UNL     1      34.476 -10.530 -24.680  0.00  0.00    +0.252 C 
BRANCH  25  26
ATOM     26  N   UNL     1      34.801  -9.642 -23.678  0.00  0.00    -0.147 NA
BRANCH  26  29
ATOM     27  N   UNL     1      34.999  -7.443 -22.938  0.00  0.00    -0.372 N 
ATOM     28  N   UNL     1      34.539  -7.756 -25.150  0.00  0.00    -0.372 N 
ATOM     29  C   UNL     1      34.771  -8.361 -23.935  0.00  0.00    +0.184 C 
ATOM     30  H   UNL     1      35.179  -7.748 -22.019  0.00  0.00    +0.159 HD
ATOM     31  H   UNL     1      34.984  -6.480 -23.142  0.00  0.00    +0.159 HD
ATOM     32  H   UNL     1      34.360  -8.305 -25.947  0.00  0.00    +0.159 HD
ATOM     33  H   UNL     1      34.551  -6.774 -25.221  0.00  0.00    +0.159 HD
ENDBRANCH  26  29
ENDBRANCH  25  26
ENDBRANCH  23  25
ENDBRANCH   2  23
TORSDOF 9
ENDMDL
MODEL 9
REMARK VINA RESULT:      -7.6      2.975      3.918
REMARK  Name = 11995761
REMARK  9 active torsions:
REMARK  status: ('A' for Active; 'I' for Inactive)
REMARK    1  A    between atoms: C_2  and  C_23
REMARK    2  A    between atoms: C_3  and  C_13
REMARK    3  A    between atoms: C_4  and  C_7
REMARK    4  A    between atoms: C_16  and  O_19
REMARK    5  A    between atoms: O_19  and  C_20
REMARK    6  A    between atoms: C_20  and  C_21
REMARK    7  A    between atoms: C_23  and  C_25
REMARK    8  A    between atoms: C_25  and  N_26
REMARK    9  A    between atoms: N_26  and  C_29
REMARK                            x       y       z     vdW  Elec       q    Type
REMARK                         _______ _______ _______ _____ _____    ______ ____
ROOT
ATOM      1  S   UNL     1      31.143  -9.876 -20.357  0.00  0.00    -0.087 S 
ATOM      2  C   UNL     1      32.254 -10.483 -22.581  0.00  0.00    -0.006 C 
ATOM      3  C   UNL     1      32.225 -11.684 -21.826  0.00  0.00    +0.003 C 
ATOM      4  C   UNL     1      31.701  -9.421 -21.910  0.00  0.00    +0.027 C 
ATOM      5  C   UNL     1      31.645 -11.496 -20.590  0.00  0.00    +0.035 C 
ENDROOT
BRANCH   4   7
ATOM      6 CL   UNL     1      32.889  -7.240 -20.082  0.00  0.00    -0.082 Cl
ATOM      7  C   UNL     1      31.539  -8.046 -22.323  0.00  0.00    +0.016 C 
ATOM      8  C   UNL     1      32.039  -6.985 -21.567  0.00  0.00    +0.058 C 
ATOM      9  C   UNL     1      30.859  -7.792 -23.515  0.00  0.00    +0.001 C 
ATOM     10  C   UNL     1      31.860  -5.672 -22.002  0.00  0.00    +0.011 C 
ATOM     11  C   UNL     1      30.680  -6.478 -23.950  0.00  0.00    +0.000 C 
ATOM     12  C   UNL     1      31.180  -5.418 -23.193  0.00  0.00    +0.001 C 
ENDBRANCH   4   7
BRANCH   3  13
ATOM     13  C   UNL     1      32.711 -12.984 -22.209  0.00  0.00    +0.000 C 
ATOM     14  C   UNL     1      33.079 -13.903 -21.229  0.00  0.00    +0.003 C 
ATOM     15  C   UNL     1      32.814 -13.316 -23.558  0.00  0.00    +0.003 C 
ATOM     16  C   UNL     1      33.654 -15.499 -22.950  0.00  0.00    +0.139 C 
ATOM     17  C   UNL     1      33.550 -15.162 -21.600  0.00  0.00    +0.037 C 
ATOM     18  C   UNL     1      33.285 -14.576 -23.929  0.00  0.00    +0.037 C 
BRANCH  16  19
ATOM     19  O   UNL     1      34.114 -16.727 -23.312  0.00  0.00    -0.475 OA
BRANCH  19  20
ATOM     20  C   UNL     1      34.585 -16.875 -24.651  0.00  0.00    +0.205 C 
BRANCH  20  21
ATOM     21  C   UNL     1      34.371 -18.316 -25.091  0.00  0.00    +0.047 C 
ATOM     22  C   UNL     1      34.906 -19.304 -24.069  0.00  0.00    +0.004 C 
ENDBRANCH  20  21
ENDBRANCH  19  20
ENDBRANCH  16  19
ENDBRANCH   3  13
BRANCH   2  23
ATOM     23  C   UNL     1      32.825 -10.386 -23.961  0.00  0.00    +0.114 C 
BRANCH  23  25
ATOM     24  O   UNL     1      34.633  -8.880 -23.414  0.00  0.00    -0.273 OA
ATOM     25  C   UNL     1      34.270  -9.920 -23.959  0.00  0.00    +0.252 C 
BRANCH  25  26
ATOM     26  N   UNL     1      35.107 -10.826 -24.575  0.00  0.00    -0.147 NA
BRANCH  26  29
ATOM     27  N   UNL     1      35.785 -10.305 -26.742  0.00  0.00    -0.372 N 
ATOM     28  N   UNL     1      34.150 -11.880 -26.517  0.00  0.00    -0.372 N 
ATOM     29  C   UNL     1      34.996 -11.010 -25.864  0.00  0.00    +0.184 C 
ATOM     30  H   UNL     1      36.435  -9.648 -26.400  0.00  0.00    +0.159 HD
ATOM     31  H   UNL     1      35.702 -10.456 -27.710  0.00  0.00    +0.159 HD
ATOM     32  H   UNL     1      33.530 -12.444 -26.000  0.00  0.00    +0.159 HD
ATOM     33  H   UNL     1      34.165 -11.936 -27.500  0.00  0.00    +0.159 HD
ENDBRANCH  26  29
ENDBRANCH  25  26
ENDBRANCH  23  25
ENDBRANCH   2  23
TORSDOF 9
ENDMDL
