MODEL 1
REMARK VINA RESULT:     -10.5      0.000      0.000
REMARK  Name = 5288850
REMARK  5 active torsions:
REMARK  status: ('A' for Active; 'I' for Inactive)
REMARK    1  A    between atoms: S_1  and  C_7
REMARK    2  A    between atoms: S_1  and  N_16
REMARK    3  A    between atoms: C_17  and  C_21
REMARK    4  A    between atoms: C_21  and  O_22
REMARK    5  A    between atoms: O_22  and  C_23
REMARK                            x       y       z     vdW  Elec       q    Type
REMARK                         _______ _______ _______ _____ _____    ______ ____
ROOT
ATOM      1  S   UNL     1      35.367 -18.273 -22.821  0.00  0.00    +0.063 S 
ATOM      2  O   UNL     1      36.808 -18.416 -22.904  0.00  0.00    -0.153 OA
ATOM      3  O   UNL     1      34.536 -18.484 -23.991  0.00  0.00    -0.153 OA
ENDROOT
BRANCH   1   7
ATOM      4  O   UNL     1      37.092 -21.840 -18.643  0.00  0.00    -0.282 OA
ATOM      5  O   UNL     1      35.082 -23.175 -17.111  0.00  0.00    -0.266 OA
ATOM      6  N   UNL     1      33.627 -21.957 -18.543  0.00  0.00    -0.251 N 
ATOM      7  C   UNL     1      34.796 -19.364 -21.554  0.00  0.00    +0.122 C 
ATOM      8  C   UNL     1      35.726 -20.029 -20.770  0.00  0.00    +0.024 C 
ATOM      9  C   UNL     1      33.417 -19.528 -21.377  0.00  0.00    +0.021 C 
ATOM     10  C   UNL     1      35.216 -20.865 -19.800  0.00  0.00    +0.059 C 
ATOM     11  C   UNL     1      33.850 -21.052 -19.597  0.00  0.00    +0.058 C 
ATOM     12  C   UNL     1      32.929 -20.385 -20.383  0.00  0.00    +0.016 C 
ATOM     13  C   UNL     1      35.906 -21.700 -18.820  0.00  0.00    +0.250 C 
ATOM     14  C   UNL     1      34.824 -22.405 -18.011  0.00  0.00    +0.292 C 
ATOM     15  C   UNL     1      32.312 -22.349 -18.099  0.00  0.00    +0.120 C 
ENDBRANCH   1   7
BRANCH   1  16
ATOM     16  N   UNL     1      34.987 -16.770 -22.125  0.00  0.00    -0.153 NA
ATOM     17  C   UNL     1      33.779 -16.043 -22.633  0.00  0.00    +0.123 C 
ATOM     18  C   UNL     1      33.055 -15.558 -21.374  0.00  0.00    +0.023 C 
ATOM     19  C   UNL     1      35.013 -16.671 -20.640  0.00  0.00    +0.096 C 
ATOM     20  C   UNL     1      34.158 -15.453 -20.337  0.00  0.00    +0.021 C 
BRANCH  17  21
ATOM     21  C   UNL     1      34.239 -14.899 -23.526  0.00  0.00    +0.223 C 
BRANCH  21  22
ATOM     22  O   UNL     1      33.100 -14.189 -23.984  0.00  0.00    -0.474 OA
BRANCH  22  23
ATOM     23  C   UNL     1      33.096 -12.830 -23.788  0.00  0.00    +0.139 C 
ATOM     24  C   UNL     1      33.885 -12.019 -24.593  0.00  0.00    +0.037 C 
ATOM     25  C   UNL     1      32.301 -12.283 -22.788  0.00  0.00    +0.037 C 
ATOM     26  C   UNL     1      33.881 -10.638 -24.394  0.00  0.00    +0.003 C 
ATOM     27  C   UNL     1      32.295 -10.903 -22.590  0.00  0.00    +0.003 C 
ATOM     28  C   UNL     1      33.085 -10.080 -23.394  0.00  0.00    +0.000 C 
ENDBRANCH  22  23
ENDBRANCH  21  22
ENDBRANCH  17  21
ENDBRANCH   1  16
TORSDOF 5
ENDMDL
MODEL 2
REMARK VINA RESULT:     -10.3      6.310     10.855
REMARK  Name = 5288850
REMARK  5 active torsions:
REMARK  status: ('A' for Active; 'I' for Inactive)
REMARK    1  A    between atoms: S_1  and  C_7
REMARK    2  A    between atoms: S_1  and  N_16
REMARK    3  A    between atoms: C_17  and  C_21
REMARK    4  A    between atoms: C_21  and  O_22
REMARK    5  A    between atoms: O_22  and  C_23
REMARK                            x       y       z     vdW  Elec       q    Type
REMARK                         _______ _______ _______ _____ _____    ______ ____
ROOT
ATOM      1  S   UNL     1      37.414 -24.404 -14.452  0.00  0.00    +0.063 S 
ATOM      2  O   UNL     1      36.975 -25.781 -14.573  0.00  0.00    -0.153 OA
ATOM      3  O   UNL     1      38.827 -24.083 -14.379  0.00  0.00    -0.153 OA
ENDROOT
BRANCH   1   7
ATOM      4  O   UNL     1      32.637 -23.634 -17.573  0.00  0.00    -0.282 OA
ATOM      5  O   UNL     1      32.732 -21.750 -19.720  0.00  0.00    -0.266 OA
ATOM      6  N   UNL     1      34.974 -21.489 -18.974  0.00  0.00    -0.251 N 
ATOM      7  C   UNL     1      36.731 -23.506 -15.812  0.00  0.00    +0.122 C 
ATOM      8  C   UNL     1      35.410 -23.731 -16.169  0.00  0.00    +0.024 C 
ATOM      9  C   UNL     1      37.543 -22.592 -16.494  0.00  0.00    +0.021 C 
ATOM     10  C   UNL     1      34.937 -23.000 -17.238  0.00  0.00    +0.059 C 
ATOM     11  C   UNL     1      35.719 -22.083 -17.938  0.00  0.00    +0.058 C 
ATOM     12  C   UNL     1      37.035 -21.865 -17.576  0.00  0.00    +0.016 C 
ATOM     13  C   UNL     1      33.617 -22.992 -17.862  0.00  0.00    +0.250 C 
ATOM     14  C   UNL     1      33.682 -21.984 -19.004  0.00  0.00    +0.292 C 
ATOM     15  C   UNL     1      35.514 -20.498 -19.872  0.00  0.00    +0.120 C 
ENDBRANCH   1   7
BRANCH   1  16
ATOM     16  N   UNL     1      36.602 -23.663 -13.157  0.00  0.00    -0.153 NA
ATOM     17  C   UNL     1      35.413 -24.366 -12.576  0.00  0.00    +0.123 C 
ATOM     18  C   UNL     1      35.602 -24.271 -11.060  0.00  0.00    +0.023 C 
ATOM     19  C   UNL     1      37.428 -23.123 -12.041  0.00  0.00    +0.096 C 
ATOM     20  C   UNL     1      36.457 -23.031 -10.876  0.00  0.00    +0.021 C 
BRANCH  17  21
ATOM     21  C   UNL     1      34.149 -23.664 -13.057  0.00  0.00    +0.223 C 
BRANCH  21  22
ATOM     22  O   UNL     1      33.070 -24.582 -13.012  0.00  0.00    -0.474 OA
BRANCH  22  23
ATOM     23  C   UNL     1      31.959 -24.271 -13.755  0.00  0.00    +0.139 C 
ATOM     24  C   UNL     1      31.033 -25.261 -14.054  0.00  0.00    +0.037 C 
ATOM     25  C   UNL     1      31.774 -22.967 -14.200  0.00  0.00    +0.037 C 
ATOM     26  C   UNL     1      29.905 -24.945 -14.810  0.00  0.00    +0.003 C 
ATOM     27  C   UNL     1      30.646 -22.650 -14.954  0.00  0.00    +0.003 C 
ATOM     28  C   UNL     1      29.710 -23.639 -15.259  0.00  0.00    +0.000 C 
ENDBRANCH  22  23
ENDBRANCH  21  22
ENDBRANCH  17  21
ENDBRANCH   1  16
TORSDOF 5
ENDMDL
MODEL 3
REMARK VINA RESULT:     -10.0      1.057      2.020
REMARK  Name = 5288850
REMARK  5 active torsions:
REMARK  status: ('A' for Active; 'I' for Inactive)
REMARK    1  A    between atoms: S_1  and  C_7
REMARK    2  A    between atoms: S_1  and  N_16
REMARK    3  A    between atoms: C_17  and  C_21
REMARK    4  A    between atoms: C_21  and  O_22
REMARK    5  A    between atoms: O_22  and  C_23
REMARK                            x       y       z     vdW  Elec       q    Type
REMARK                         _______ _______ _______ _____ _____    ______ ____
ROOT
ATOM      1  S   UNL     1      34.967 -18.304 -22.935  0.00  0.00    +0.063 S 
ATOM      2  O   UNL     1      36.137 -18.311 -23.793  0.00  0.00    -0.153 OA
ATOM      3  O   UNL     1      33.669 -18.692 -23.454  0.00  0.00    -0.153 OA
ENDROOT
BRANCH   1   7
ATOM      4  O   UNL     1      32.701 -22.205 -19.357  0.00  0.00    -0.282 OA
ATOM      5  O   UNL     1      34.379 -23.269 -17.303  0.00  0.00    -0.266 OA
ATOM      6  N   UNL     1      35.977 -21.812 -18.291  0.00  0.00    -0.251 N 
ATOM      7  C   UNL     1      35.319 -19.336 -21.544  0.00  0.00    +0.122 C 
ATOM      8  C   UNL     1      34.317 -20.151 -21.042  0.00  0.00    +0.024 C 
ATOM      9  C   UNL     1      36.603 -19.300 -20.987  0.00  0.00    +0.021 C 
ATOM     10  C   UNL     1      34.656 -20.931 -19.957  0.00  0.00    +0.059 C 
ATOM     11  C   UNL     1      35.923 -20.919 -19.377  0.00  0.00    +0.058 C 
ATOM     12  C   UNL     1      36.917 -20.103 -19.885  0.00  0.00    +0.016 C 
ATOM     13  C   UNL     1      33.853 -21.885 -19.197  0.00  0.00    +0.250 C 
ATOM     14  C   UNL     1      34.760 -22.445 -18.107  0.00  0.00    +0.292 C 
ATOM     15  C   UNL     1      37.160 -22.020 -17.492  0.00  0.00    +0.120 C 
ENDBRANCH   1   7
BRANCH   1  16
ATOM     16  N   UNL     1      34.837 -16.792 -22.170  0.00  0.00    -0.153 NA
ATOM     17  C   UNL     1      33.716 -15.888 -22.582  0.00  0.00    +0.123 C 
ATOM     18  C   UNL     1      33.134 -15.359 -21.268  0.00  0.00    +0.023 C 
ATOM     19  C   UNL     1      34.956 -16.757 -20.686  0.00  0.00    +0.096 C 
ATOM     20  C   UNL     1      34.295 -15.447 -20.295  0.00  0.00    +0.021 C 
BRANCH  17  21
ATOM     21  C   UNL     1      34.281 -14.781 -23.463  0.00  0.00    +0.223 C 
BRANCH  21  22
ATOM     22  O   UNL     1      33.205 -14.064 -24.045  0.00  0.00    -0.474 OA
BRANCH  22  23
ATOM     23  C   UNL     1      33.173 -12.710 -23.827  0.00  0.00    +0.139 C 
ATOM     24  C   UNL     1      32.323 -12.190 -22.860  0.00  0.00    +0.037 C 
ATOM     25  C   UNL     1      33.994 -11.874 -24.577  0.00  0.00    +0.037 C 
ATOM     26  C   UNL     1      32.291 -10.813 -22.639  0.00  0.00    +0.003 C 
ATOM     27  C   UNL     1      33.962 -10.498 -24.355  0.00  0.00    +0.003 C 
ATOM     28  C   UNL     1      33.111  -9.967 -23.386  0.00  0.00    +0.000 C 
ENDBRANCH  22  23
ENDBRANCH  21  22
ENDBRANCH  17  21
ENDBRANCH   1  16
TORSDOF 5
ENDMDL
MODEL 4
REMARK VINA RESULT:      -9.9      1.814      2.648
REMARK  Name = 5288850
REMARK  5 active torsions:
REMARK  status: ('A' for Active; 'I' for Inactive)
REMARK    1  A    between atoms: S_1  and  C_7
REMARK    2  A    between atoms: S_1  and  N_16
REMARK    3  A    between atoms: C_17  and  C_21
REMARK    4  A    between atoms: C_21  and  O_22
REMARK    5  A    between atoms: O_22  and  C_23
REMARK                            x       y       z     vdW  Elec       q    Type
REMARK                         _______ _______ _______ _____ _____    ______ ____
ROOT
ATOM      1  S   UNL     1      34.814 -16.461 -23.686  0.00  0.00    +0.063 S 
ATOM      2  O   UNL     1      36.103 -16.146 -24.272  0.00  0.00    -0.153 OA
ATOM      3  O   UNL     1      33.693 -16.835 -24.527  0.00  0.00    -0.153 OA
ENDROOT
BRANCH   1   7
ATOM      4  O   UNL     1      32.142 -20.598 -20.702  0.00  0.00    -0.282 OA
ATOM      5  O   UNL     1      33.723 -22.226 -18.964  0.00  0.00    -0.266 OA
ATOM      6  N   UNL     1      35.476 -20.844 -19.781  0.00  0.00    -0.251 N 
ATOM      7  C   UNL     1      35.064 -17.762 -22.516  0.00  0.00    +0.122 C 
ATOM      8  C   UNL     1      33.974 -18.512 -22.103  0.00  0.00    +0.024 C 
ATOM      9  C   UNL     1      36.359 -17.998 -22.039  0.00  0.00    +0.021 C 
ATOM     10  C   UNL     1      34.237 -19.511 -21.190  0.00  0.00    +0.059 C 
ATOM     11  C   UNL     1      35.512 -19.773 -20.693  0.00  0.00    +0.058 C 
ATOM     12  C   UNL     1      36.594 -19.020 -21.111  0.00  0.00    +0.016 C 
ATOM     13  C   UNL     1      33.333 -20.469 -20.558  0.00  0.00    +0.250 C 
ATOM     14  C   UNL     1      34.189 -21.330 -19.636  0.00  0.00    +0.292 C 
ATOM     15  C   UNL     1      36.645 -21.347 -19.101  0.00  0.00    +0.120 C 
ENDBRANCH   1   7
BRANCH   1  16
ATOM     16  N   UNL     1      34.342 -15.202 -22.648  0.00  0.00    -0.153 NA
ATOM     17  C   UNL     1      33.212 -14.317 -23.080  0.00  0.00    +0.123 C 
ATOM     18  C   UNL     1      32.325 -14.180 -21.840  0.00  0.00    +0.023 C 
ATOM     19  C   UNL     1      34.168 -15.526 -21.205  0.00  0.00    +0.096 C 
ATOM     20  C   UNL     1      33.278 -14.411 -20.682  0.00  0.00    +0.021 C 
BRANCH  17  21
ATOM     21  C   UNL     1      33.787 -12.985 -23.544  0.00  0.00    +0.223 C 
BRANCH  21  22
ATOM     22  O   UNL     1      32.825 -11.968 -23.317  0.00  0.00    -0.474 OA
BRANCH  22  23
ATOM     23  C   UNL     1      33.264 -10.671 -23.400  0.00  0.00    +0.139 C 
ATOM     24  C   UNL     1      34.388 -10.373 -24.159  0.00  0.00    +0.037 C 
ATOM     25  C   UNL     1      32.576  -9.669 -22.724  0.00  0.00    +0.037 C 
ATOM     26  C   UNL     1      34.833  -9.054 -24.243  0.00  0.00    +0.003 C 
ATOM     27  C   UNL     1      33.020  -8.351 -22.809  0.00  0.00    +0.003 C 
ATOM     28  C   UNL     1      34.149  -8.042 -23.569  0.00  0.00    +0.000 C 
ENDBRANCH  22  23
ENDBRANCH  21  22
ENDBRANCH  17  21
ENDBRANCH   1  16
TORSDOF 5
ENDMDL
MODEL 5
REMARK VINA RESULT:      -9.9      4.086      9.818
REMARK  Name = 5288850
REMARK  5 active torsions:
REMARK  status: ('A' for Active; 'I' for Inactive)
REMARK    1  A    between atoms: S_1  and  C_7
REMARK    2  A    between atoms: S_1  and  N_16
REMARK    3  A    between atoms: C_17  and  C_21
REMARK    4  A    between atoms: C_21  and  O_22
REMARK    5  A    between atoms: O_22  and  C_23
REMARK                            x       y       z     vdW  Elec       q    Type
REMARK                         _______ _______ _______ _____ _____    ______ ____
ROOT
ATOM      1  S   UNL     1      33.584 -22.974 -18.251  0.00  0.00    +0.063 S 
ATOM      2  O   UNL     1      32.231 -22.505 -18.017  0.00  0.00    -0.153 OA
ATOM      3  O   UNL     1      33.820 -24.271 -18.856  0.00  0.00    -0.153 OA
ENDROOT
BRANCH   1   7
ATOM      4  O   UNL     1      32.816 -18.065 -21.161  0.00  0.00    -0.282 OA
ATOM      5  O   UNL     1      35.076 -16.934 -22.494  0.00  0.00    -0.266 OA
ATOM      6  N   UNL     1      36.171 -18.836 -21.580  0.00  0.00    -0.251 N 
ATOM      7  C   UNL     1      34.404 -21.762 -19.242  0.00  0.00    +0.122 C 
ATOM      8  C   UNL     1      33.676 -20.688 -19.728  0.00  0.00    +0.024 C 
ATOM      9  C   UNL     1      35.769 -21.922 -19.509  0.00  0.00    +0.021 C 
ATOM     10  C   UNL     1      34.373 -19.779 -20.494  0.00  0.00    +0.059 C 
ATOM     11  C   UNL     1      35.731 -19.907 -20.781  0.00  0.00    +0.058 C 
ATOM     12  C   UNL     1      36.450 -20.982 -20.291  0.00  0.00    +0.016 C 
ATOM     13  C   UNL     1      33.918 -18.555 -21.149  0.00  0.00    +0.250 C 
ATOM     14  C   UNL     1      35.133 -17.963 -21.855  0.00  0.00    +0.292 C 
ATOM     15  C   UNL     1      37.532 -18.693 -22.038  0.00  0.00    +0.120 C 
ENDBRANCH   1   7
BRANCH   1  16
ATOM     16  N   UNL     1      34.481 -22.852 -16.813  0.00  0.00    -0.153 NA
ATOM     17  C   UNL     1      34.348 -23.951 -15.804  0.00  0.00    +0.123 C 
ATOM     18  C   UNL     1      35.783 -24.258 -15.366  0.00  0.00    +0.023 C 
ATOM     19  C   UNL     1      35.919 -22.480 -16.926  0.00  0.00    +0.096 C 
ATOM     20  C   UNL     1      36.527 -22.959 -15.619  0.00  0.00    +0.021 C 
BRANCH  17  21
ATOM     21  C   UNL     1      33.476 -23.457 -14.658  0.00  0.00    +0.223 C 
BRANCH  21  22
ATOM     22  O   UNL     1      32.528 -24.463 -14.338  0.00  0.00    -0.474 OA
BRANCH  22  23
ATOM     23  C   UNL     1      31.223 -24.217 -14.683  0.00  0.00    +0.139 C 
ATOM     24  C   UNL     1      30.824 -22.921 -14.982  0.00  0.00    +0.037 C 
ATOM     25  C   UNL     1      30.316 -25.269 -14.731  0.00  0.00    +0.037 C 
ATOM     26  C   UNL     1      29.497 -22.672 -15.333  0.00  0.00    +0.003 C 
ATOM     27  C   UNL     1      28.990 -25.021 -15.083  0.00  0.00    +0.003 C 
ATOM     28  C   UNL     1      28.580 -23.721 -15.385  0.00  0.00    +0.000 C 
ENDBRANCH  22  23
ENDBRANCH  21  22
ENDBRANCH  17  21
ENDBRANCH   1  16
TORSDOF 5
ENDMDL
MODEL 6
REMARK VINA RESULT:      -9.7      2.458      4.248
REMARK  Name = 5288850
REMARK  5 active torsions:
REMARK  status: ('A' for Active; 'I' for Inactive)
REMARK    1  A    between atoms: S_1  and  C_7
REMARK    2  A    between atoms: S_1  and  N_16
REMARK    3  A    between atoms: C_17  and  C_21
REMARK    4  A    between atoms: C_21  and  O_22
REMARK    5  A    between atoms: O_22  and  C_23
REMARK                            x       y       z     vdW  Elec       q    Type
REMARK                         _______ _______ _______ _____ _____    ______ ____
ROOT
ATOM      1  S   UNL     1      36.253 -21.143 -19.612  0.00  0.00    +0.063 S 
ATOM      2  O   UNL     1      37.358 -20.309 -19.178  0.00  0.00    -0.153 OA
ATOM      3  O   UNL     1      36.443 -22.140 -20.648  0.00  0.00    -0.153 OA
ENDROOT
BRANCH   1   7
ATOM      4  O   UNL     1      37.552 -22.838 -14.264  0.00  0.00    -0.282 OA
ATOM      5  O   UNL     1      35.540 -24.213 -12.772  0.00  0.00    -0.266 OA
ATOM      6  N   UNL     1      34.281 -23.875 -14.759  0.00  0.00    -0.251 N 
ATOM      7  C   UNL     1      35.616 -21.968 -18.184  0.00  0.00    +0.122 C 
ATOM      8  C   UNL     1      36.432 -22.114 -17.073  0.00  0.00    +0.024 C 
ATOM      9  C   UNL     1      34.303 -22.451 -18.216  0.00  0.00    +0.021 C 
ATOM     10  C   UNL     1      35.876 -22.766 -15.994  0.00  0.00    +0.059 C 
ATOM     11  C   UNL     1      34.573 -23.261 -15.991  0.00  0.00    +0.058 C 
ATOM     12  C   UNL     1      33.766 -23.110 -17.103  0.00  0.00    +0.016 C 
ATOM     13  C   UNL     1      36.450 -23.083 -14.688  0.00  0.00    +0.250 C 
ATOM     14  C   UNL     1      35.367 -23.815 -13.904  0.00  0.00    +0.292 C 
ATOM     15  C   UNL     1      33.006 -24.480 -14.457  0.00  0.00    +0.120 C 
ENDBRANCH   1   7
BRANCH   1  16
ATOM     16  N   UNL     1      34.927 -20.159 -20.014  0.00  0.00    -0.153 NA
ATOM     17  C   UNL     1      35.022 -19.320 -21.252  0.00  0.00    +0.123 C 
ATOM     18  C   UNL     1      33.677 -19.510 -21.959  0.00  0.00    +0.023 C 
ATOM     19  C   UNL     1      33.571 -20.770 -19.956  0.00  0.00    +0.096 C 
ATOM     20  C   UNL     1      32.722 -19.868 -20.835  0.00  0.00    +0.021 C 
BRANCH  17  21
ATOM     21  C   UNL     1      35.273 -17.875 -20.843  0.00  0.00    +0.223 C 
BRANCH  21  22
ATOM     22  O   UNL     1      35.336 -17.073 -22.011  0.00  0.00    -0.474 OA
BRANCH  22  23
ATOM     23  C   UNL     1      34.472 -16.009 -22.080  0.00  0.00    +0.139 C 
ATOM     24  C   UNL     1      34.549 -15.131 -23.153  0.00  0.00    +0.037 C 
ATOM     25  C   UNL     1      33.529 -15.824 -21.075  0.00  0.00    +0.037 C 
ATOM     26  C   UNL     1      33.670 -14.050 -23.223  0.00  0.00    +0.003 C 
ATOM     27  C   UNL     1      32.651 -14.744 -21.145  0.00  0.00    +0.003 C 
ATOM     28  C   UNL     1      32.721 -13.856 -22.220  0.00  0.00    +0.000 C 
ENDBRANCH  22  23
ENDBRANCH  21  22
ENDBRANCH  17  21
ENDBRANCH   1  16
TORSDOF 5
ENDMDL
MODEL 7
REMARK VINA RESULT:      -9.6      4.617      7.867
REMARK  Name = 5288850
REMARK  5 active torsions:
REMARK  status: ('A' for Active; 'I' for Inactive)
REMARK    1  A    between atoms: S_1  and  C_7
REMARK    2  A    between atoms: S_1  and  N_16
REMARK    3  A    between atoms: C_17  and  C_21
REMARK    4  A    between atoms: C_21  and  O_22
REMARK    5  A    between atoms: O_22  and  C_23
REMARK                            x       y       z     vdW  Elec       q    Type
REMARK                         _______ _______ _______ _____ _____    ______ ____
ROOT
ATOM      1  S   UNL     1      31.716 -11.396 -21.909  0.00  0.00    +0.063 S 
ATOM      2  O   UNL     1      30.304 -11.534 -22.209  0.00  0.00    -0.153 OA
ATOM      3  O   UNL     1      32.158 -11.069 -20.567  0.00  0.00    -0.153 OA
ENDROOT
BRANCH   1   7
ATOM      4  O   UNL     1      33.132 -14.676 -26.426  0.00  0.00    -0.282 OA
ATOM      5  O   UNL     1      34.529 -17.117 -25.919  0.00  0.00    -0.266 OA
ATOM      6  N   UNL     1      34.332 -16.394 -23.663  0.00  0.00    -0.251 N 
ATOM      7  C   UNL     1      32.510 -12.903 -22.383  0.00  0.00    +0.122 C 
ATOM      8  C   UNL     1      32.573 -13.234 -23.727  0.00  0.00    +0.024 C 
ATOM      9  C   UNL     1      33.054 -13.720 -21.385  0.00  0.00    +0.021 C 
ATOM     10  C   UNL     1      33.205 -14.422 -24.030  0.00  0.00    +0.059 C 
ATOM     11  C   UNL     1      33.756 -15.260 -23.063  0.00  0.00    +0.058 C 
ATOM     12  C   UNL     1      33.689 -14.921 -21.724  0.00  0.00    +0.016 C 
ATOM     13  C   UNL     1      33.442 -15.058 -25.324  0.00  0.00    +0.250 C 
ATOM     14  C   UNL     1      34.187 -16.357 -25.039  0.00  0.00    +0.292 C 
ATOM     15  C   UNL     1      34.982 -17.444 -22.916  0.00  0.00    +0.120 C 
ENDBRANCH   1   7
BRANCH   1  16
ATOM     16  N   UNL     1      32.425 -10.317 -23.013  0.00  0.00    -0.153 NA
ATOM     17  C   UNL     1      32.396  -8.854 -22.687  0.00  0.00    +0.123 C 
ATOM     18  C   UNL     1      33.810  -8.355 -22.993  0.00  0.00    +0.023 C 
ATOM     19  C   UNL     1      33.773 -10.659 -23.546  0.00  0.00    +0.096 C 
ATOM     20  C   UNL     1      34.323  -9.331 -24.037  0.00  0.00    +0.021 C 
BRANCH  17  21
ATOM     21  C   UNL     1      31.335  -8.184 -23.550  0.00  0.00    +0.223 C 
BRANCH  21  22
ATOM     22  O   UNL     1      30.865  -7.026 -22.880  0.00  0.00    -0.474 OA
BRANCH  22  23
ATOM     23  C   UNL     1      31.173  -5.814 -23.444  0.00  0.00    +0.139 C 
ATOM     24  C   UNL     1      30.998  -4.650 -22.709  0.00  0.00    +0.037 C 
ATOM     25  C   UNL     1      31.658  -5.767 -24.746  0.00  0.00    +0.037 C 
ATOM     26  C   UNL     1      31.312  -3.418 -23.283  0.00  0.00    +0.003 C 
ATOM     27  C   UNL     1      31.973  -4.536 -25.320  0.00  0.00    +0.003 C 
ATOM     28  C   UNL     1      31.800  -3.361 -24.588  0.00  0.00    +0.000 C 
ENDBRANCH  22  23
ENDBRANCH  21  22
ENDBRANCH  17  21
ENDBRANCH   1  16
TORSDOF 5
ENDMDL
MODEL 8
REMARK VINA RESULT:      -9.6      4.490      7.758
REMARK  Name = 5288850
REMARK  5 active torsions:
REMARK  status: ('A' for Active; 'I' for Inactive)
REMARK    1  A    between atoms: S_1  and  C_7
REMARK    2  A    between atoms: S_1  and  N_16
REMARK    3  A    between atoms: C_17  and  C_21
REMARK    4  A    between atoms: C_21  and  O_22
REMARK    5  A    between atoms: O_22  and  C_23
REMARK                            x       y       z     vdW  Elec       q    Type
REMARK                         _______ _______ _______ _____ _____    ______ ____
ROOT
ATOM      1  S   UNL     1      30.809 -10.967 -21.386  0.00  0.00    +0.063 S 
ATOM      2  O   UNL     1      30.091 -10.768 -22.631  0.00  0.00    -0.153 OA
ATOM      3  O   UNL     1      30.088 -11.135 -20.139  0.00  0.00    -0.153 OA
ENDROOT
BRANCH   1   7
ATOM      4  O   UNL     1      33.490 -14.218 -25.310  0.00  0.00    -0.282 OA
ATOM      5  O   UNL     1      35.039 -16.431 -24.378  0.00  0.00    -0.266 OA
ATOM      6  N   UNL     1      34.306 -15.647 -22.257  0.00  0.00    -0.251 N 
ATOM      7  C   UNL     1      31.857 -12.375 -21.594  0.00  0.00    +0.122 C 
ATOM      8  C   UNL     1      32.229 -12.751 -22.875  0.00  0.00    +0.024 C 
ATOM      9  C   UNL     1      32.282 -13.072 -20.457  0.00  0.00    +0.021 C 
ATOM     10  C   UNL     1      33.047 -13.857 -22.969  0.00  0.00    +0.059 C 
ATOM     11  C   UNL     1      33.488 -14.574 -21.858  0.00  0.00    +0.058 C 
ATOM     12  C   UNL     1      33.112 -14.192 -20.584  0.00  0.00    +0.016 C 
ATOM     13  C   UNL     1      33.615 -14.510 -24.146  0.00  0.00    +0.250 C 
ATOM     14  C   UNL     1      34.438 -15.687 -23.634  0.00  0.00    +0.292 C 
ATOM     15  C   UNL     1      34.913 -16.570 -21.329  0.00  0.00    +0.120 C 
ENDBRANCH   1   7
BRANCH   1  16
ATOM     16  N   UNL     1      31.973  -9.743 -21.203  0.00  0.00    -0.153 NA
ATOM     17  C   UNL     1      31.885  -8.546 -22.100  0.00  0.00    +0.123 C 
ATOM     18  C   UNL     1      32.090  -7.345 -21.174  0.00  0.00    +0.023 C 
ATOM     19  C   UNL     1      32.276  -9.280 -19.820  0.00  0.00    +0.096 C 
ATOM     20  C   UNL     1      32.898  -7.908 -20.020  0.00  0.00    +0.021 C 
BRANCH  17  21
ATOM     21  C   UNL     1      32.965  -8.658 -23.168  0.00  0.00    +0.223 C 
BRANCH  21  22
ATOM     22  O   UNL     1      33.743  -7.473 -23.158  0.00  0.00    -0.474 OA
BRANCH  22  23
ATOM     23  C   UNL     1      33.626  -6.645 -24.247  0.00  0.00    +0.139 C 
ATOM     24  C   UNL     1      34.679  -6.543 -25.147  0.00  0.00    +0.037 C 
ATOM     25  C   UNL     1      32.455  -5.920 -24.436  0.00  0.00    +0.037 C 
ATOM     26  C   UNL     1      34.560  -5.702 -26.253  0.00  0.00    +0.003 C 
ATOM     27  C   UNL     1      32.336  -5.081 -25.542  0.00  0.00    +0.003 C 
ATOM     28  C   UNL     1      33.389  -4.971 -26.452  0.00  0.00    +0.000 C 
ENDBRANCH  22  23
ENDBRANCH  21  22
ENDBRANCH  17  21
ENDBRANCH   1  16
TORSDOF 5
ENDMDL
MODEL 9
REMARK VINA RESULT:      -9.5      2.608      8.990
REMARK  Name = 5288850
REMARK  5 active torsions:
REMARK  status: ('A' for Active; 'I' for Inactive)
REMARK    1  A    between atoms: S_1  and  C_7
REMARK    2  A    between atoms: S_1  and  N_16
REMARK    3  A    between atoms: C_17  and  C_21
REMARK    4  A    between atoms: C_21  and  O_22
REMARK    5  A    between atoms: O_22  and  C_23
REMARK                            x       y       z     vdW  Elec       q    Type
REMARK                         _______ _______ _______ _____ _____    ______ ____
ROOT
ATOM      1  S   UNL     1      33.855 -15.999 -21.460  0.00  0.00    +0.063 S 
ATOM      2  O   UNL     1      34.822 -15.869 -20.386  0.00  0.00    -0.153 OA
ATOM      3  O   UNL     1      32.581 -16.654 -21.231  0.00  0.00    -0.153 OA
ENDROOT
BRANCH   1   7
ATOM      4  O   UNL     1      30.447 -11.402 -20.820  0.00  0.00    -0.282 OA
ATOM      5  O   UNL     1      30.883  -9.164 -22.543  0.00  0.00    -0.266 OA
ATOM      6  N   UNL     1      32.605 -10.561 -23.400  0.00  0.00    -0.251 N 
ATOM      7  C   UNL     1      33.521 -14.376 -22.076  0.00  0.00    +0.122 C 
ATOM      8  C   UNL     1      32.493 -13.641 -21.507  0.00  0.00    +0.024 C 
ATOM      9  C   UNL     1      34.305 -13.878 -23.123  0.00  0.00    +0.021 C 
ATOM     10  C   UNL     1      32.284 -12.384 -22.032  0.00  0.00    +0.059 C 
ATOM     11  C   UNL     1      33.044 -11.857 -23.074  0.00  0.00    +0.058 C 
ATOM     12  C   UNL     1      34.068 -12.598 -23.636  0.00  0.00    +0.016 C 
ATOM     13  C   UNL     1      31.301 -11.365 -21.671  0.00  0.00    +0.250 C 
ATOM     14  C   UNL     1      31.546 -10.178 -22.596  0.00  0.00    +0.292 C 
ATOM     15  C   UNL     1      33.202  -9.759 -24.441  0.00  0.00    +0.120 C 
ENDBRANCH   1   7
BRANCH   1  16
ATOM     16  N   UNL     1      34.608 -16.692 -22.817  0.00  0.00    -0.153 NA
ATOM     17  C   UNL     1      34.732 -18.184 -22.868  0.00  0.00    +0.123 C 
ATOM     18  C   UNL     1      34.314 -18.564 -24.291  0.00  0.00    +0.023 C 
ATOM     19  C   UNL     1      34.195 -16.202 -24.161  0.00  0.00    +0.096 C 
ATOM     20  C   UNL     1      34.613 -17.318 -25.104  0.00  0.00    +0.021 C 
BRANCH  17  21
ATOM     21  C   UNL     1      36.173 -18.564 -22.556  0.00  0.00    +0.223 C 
BRANCH  21  22
ATOM     22  O   UNL     1      36.310 -18.728 -21.154  0.00  0.00    -0.474 OA
BRANCH  22  23
ATOM     23  C   UNL     1      35.621 -19.768 -20.581  0.00  0.00    +0.139 C 
ATOM     24  C   UNL     1      34.233 -19.776 -20.622  0.00  0.00    +0.037 C 
ATOM     25  C   UNL     1      36.321 -20.800 -19.968  0.00  0.00    +0.037 C 
ATOM     26  C   UNL     1      33.532 -20.832 -20.039  0.00  0.00    +0.003 C 
ATOM     27  C   UNL     1      35.621 -21.857 -19.387  0.00  0.00    +0.003 C 
ATOM     28  C   UNL     1      34.226 -21.873 -19.423  0.00  0.00    +0.000 C 
ENDBRANCH  22  23
ENDBRANCH  21  22
ENDBRANCH  17  21
ENDBRANCH   1  16
TORSDOF 5
ENDMDL
