MODEL 1
REMARK VINA RESULT:     -10.7      0.000      0.000
REMARK  Name = 216468
REMARK  5 active torsions:
REMARK  status: ('A' for Active; 'I' for Inactive)
REMARK    1  A    between atoms: S_1  and  C_4
REMARK    2  A    between atoms: S_1  and  N_16
REMARK    3  A    between atoms: C_5  and  S_10
REMARK    4  A    between atoms: S_10  and  N_13
REMARK    5  A    between atoms: N_16  and  C_21
REMARK                            x       y       z     vdW  Elec       q    Type
REMARK                         _______ _______ _______ _____ _____    ______ ____
ROOT
ATOM      1  S   UNL     1      33.666 -22.718 -18.495  0.00  0.00    +0.074 S 
ATOM      2  O   UNL     1      33.938 -23.952 -19.210  0.00  0.00    -0.150 OA
ATOM      3  O   UNL     1      32.338 -22.467 -17.971  0.00  0.00    -0.150 OA
ENDROOT
BRANCH   1   4
ATOM      4  C   UNL     1      34.075 -21.390 -19.591  0.00  0.00    +0.125 C 
ATOM      5  C   UNL     1      34.714 -19.313 -21.302  0.00  0.00    +0.122 C 
ATOM      6  C   UNL     1      35.404 -21.137 -19.875  0.00  0.00    +0.022 C 
ATOM      7  C   UNL     1      33.056 -20.631 -20.139  0.00  0.00    +0.022 C 
ATOM      8  C   UNL     1      35.726 -20.089 -20.739  0.00  0.00    +0.021 C 
ATOM      9  C   UNL     1      33.380 -19.584 -21.002  0.00  0.00    +0.021 C 
BRANCH   5  10
ATOM     10  S   UNL     1      35.117 -18.001 -22.381  0.00  0.00    +0.057 S 
ATOM     11  O   UNL     1      34.515 -18.271 -23.678  0.00  0.00    -0.153 OA
ATOM     12  O   UNL     1      34.842 -16.743 -21.703  0.00  0.00    -0.153 OA
BRANCH  10  13
ATOM     13  N   UNL     1      36.811 -18.196 -22.509  0.00  0.00    -0.203 NA
ATOM     14  H   UNL     1      37.144 -17.720 -23.348  0.00  0.00    +0.144 HD
ATOM     15  H   UNL     1      37.036 -19.189 -22.569  0.00  0.00    +0.144 HD
ENDBRANCH  10  13
ENDBRANCH   5  10
ENDBRANCH   1   4
BRANCH   1  16
ATOM     16  N   UNL     1      34.840 -22.522 -17.248  0.00  0.00    -0.214 N 
ATOM     17  H   UNL     1      35.626 -21.945 -17.386  0.00  0.00    +0.174 HD
BRANCH  16  21
ATOM     18 CL   UNL     1      37.165 -25.894 -12.344  0.00  0.00    -0.081 Cl
ATOM     19  N   UNL     1      37.046 -23.911 -15.670  0.00  0.00    -0.310 N 
ATOM     20  C   UNL     1      35.712 -23.827 -15.339  0.00  0.00    +0.064 C 
ATOM     21  C   UNL     1      34.652 -23.210 -16.012  0.00  0.00    +0.078 C 
ATOM     22  C   UNL     1      35.545 -24.504 -14.130  0.00  0.00    +0.026 C 
ATOM     23  C   UNL     1      33.383 -23.289 -15.430  0.00  0.00    +0.017 C 
ATOM     24  C   UNL     1      36.824 -24.997 -13.746  0.00  0.00    +0.073 C 
ATOM     25  C   UNL     1      34.257 -24.571 -13.562  0.00  0.00    +0.002 C 
ATOM     26  C   UNL     1      37.725 -24.616 -14.713  0.00  0.00    +0.073 C 
ATOM     27  C   UNL     1      33.187 -23.957 -14.224  0.00  0.00    +0.001 C 
ATOM     28  H   UNL     1      37.452 -23.521 -16.476  0.00  0.00    +0.152 HD
ENDBRANCH  16  21
ENDBRANCH   1  16
TORSDOF 5
ENDMDL
MODEL 2
REMARK VINA RESULT:     -10.6      5.241      9.744
REMARK  Name = 216468
REMARK  5 active torsions:
REMARK  status: ('A' for Active; 'I' for Inactive)
REMARK    1  A    between atoms: S_1  and  C_4
REMARK    2  A    between atoms: S_1  and  N_16
REMARK    3  A    between atoms: C_5  and  S_10
REMARK    4  A    between atoms: S_10  and  N_13
REMARK    5  A    between atoms: N_16  and  C_21
REMARK                            x       y       z     vdW  Elec       q    Type
REMARK                         _______ _______ _______ _____ _____    ______ ____
ROOT
ATOM      1  S   UNL     1      35.300 -18.273 -22.412  0.00  0.00    +0.074 S 
ATOM      2  O   UNL     1      34.521 -18.498 -23.616  0.00  0.00    -0.150 OA
ATOM      3  O   UNL     1      36.748 -18.244 -22.484  0.00  0.00    -0.150 OA
ENDROOT
BRANCH   1   4
ATOM      4  C   UNL     1      34.841 -19.535 -21.261  0.00  0.00    +0.125 C 
ATOM      5  C   UNL     1      34.123 -21.511 -19.462  0.00  0.00    +0.122 C 
ATOM      6  C   UNL     1      35.832 -20.272 -20.638  0.00  0.00    +0.022 C 
ATOM      7  C   UNL     1      33.500 -19.762 -21.008  0.00  0.00    +0.022 C 
ATOM      8  C   UNL     1      35.470 -21.268 -19.731  0.00  0.00    +0.021 C 
ATOM      9  C   UNL     1      33.138 -20.758 -20.100  0.00  0.00    +0.021 C 
BRANCH   5  10
ATOM     10  S   UNL     1      33.670 -22.758 -18.328  0.00  0.00    +0.057 S 
ATOM     11  O   UNL     1      34.689 -22.829 -17.291  0.00  0.00    -0.153 OA
ATOM     12  O   UNL     1      32.275 -22.564 -17.959  0.00  0.00    -0.153 OA
BRANCH  10  13
ATOM     13  N   UNL     1      33.788 -24.151 -19.312  0.00  0.00    -0.203 NA
ATOM     14  H   UNL     1      34.737 -24.522 -19.263  0.00  0.00    +0.144 HD
ATOM     15  H   UNL     1      33.569 -23.904 -20.278  0.00  0.00    +0.144 HD
ENDBRANCH  10  13
ENDBRANCH   5  10
ENDBRANCH   1   4
BRANCH   1  16
ATOM     16  N   UNL     1      34.720 -16.851 -21.627  0.00  0.00    -0.214 N 
ATOM     17  H   UNL     1      34.803 -16.749 -20.651  0.00  0.00    +0.174 HD
BRANCH  16  21
ATOM     18 CL   UNL     1      31.217 -11.529 -22.110  0.00  0.00    -0.081 Cl
ATOM     19  N   UNL     1      33.065 -14.543 -20.524  0.00  0.00    -0.310 N 
ATOM     20  C   UNL     1      33.369 -14.793 -21.843  0.00  0.00    +0.064 C 
ATOM     21  C   UNL     1      34.118 -15.827 -22.416  0.00  0.00    +0.078 C 
ATOM     22  C   UNL     1      32.773 -13.784 -22.601  0.00  0.00    +0.026 C 
ATOM     23  C   UNL     1      34.261 -15.826 -23.807  0.00  0.00    +0.017 C 
ATOM     24  C   UNL     1      32.101 -12.919 -21.692  0.00  0.00    +0.073 C 
ATOM     25  C   UNL     1      32.932 -13.804 -24.001  0.00  0.00    +0.002 C 
ATOM     26  C   UNL     1      32.299 -13.412 -20.423  0.00  0.00    +0.073 C 
ATOM     27  C   UNL     1      33.679 -14.831 -24.589  0.00  0.00    +0.001 C 
ATOM     28  H   UNL     1      33.355 -15.096 -19.763  0.00  0.00    +0.152 HD
ENDBRANCH  16  21
ENDBRANCH   1  16
TORSDOF 5
ENDMDL
MODEL 3
REMARK VINA RESULT:     -10.3      8.531     12.208
REMARK  Name = 216468
REMARK  5 active torsions:
REMARK  status: ('A' for Active; 'I' for Inactive)
REMARK    1  A    between atoms: S_1  and  C_4
REMARK    2  A    between atoms: S_1  and  N_16
REMARK    3  A    between atoms: C_5  and  S_10
REMARK    4  A    between atoms: S_10  and  N_13
REMARK    5  A    between atoms: N_16  and  C_21
REMARK                            x       y       z     vdW  Elec       q    Type
REMARK                         _______ _______ _______ _____ _____    ______ ____
ROOT
ATOM      1  S   UNL     1      33.352 -12.896 -23.973  0.00  0.00    +0.074 S 
ATOM      2  O   UNL     1      33.043 -13.074 -25.380  0.00  0.00    -0.150 OA
ATOM      3  O   UNL     1      34.286 -11.865 -23.564  0.00  0.00    -0.150 OA
ENDROOT
BRANCH   1   4
ATOM      4  C   UNL     1      33.966 -14.447 -23.383  0.00  0.00    +0.125 C 
ATOM      5  C   UNL     1      34.925 -16.872 -22.460  0.00  0.00    +0.122 C 
ATOM      6  C   UNL     1      34.082 -15.505 -24.265  0.00  0.00    +0.022 C 
ATOM      7  C   UNL     1      34.315 -14.570 -22.050  0.00  0.00    +0.022 C 
ATOM      8  C   UNL     1      34.566 -16.728 -23.800  0.00  0.00    +0.021 C 
ATOM      9  C   UNL     1      34.799 -15.794 -21.585  0.00  0.00    +0.021 C 
BRANCH   5  10
ATOM     10  S   UNL     1      35.528 -18.403 -21.877  0.00  0.00    +0.057 S 
ATOM     11  O   UNL     1      35.626 -18.336 -20.426  0.00  0.00    -0.153 OA
ATOM     12  O   UNL     1      34.762 -19.471 -22.503  0.00  0.00    -0.153 OA
BRANCH  10  13
ATOM     13  N   UNL     1      37.106 -18.402 -22.536  0.00  0.00    -0.203 NA
ATOM     14  H   UNL     1      37.070 -18.070 -23.500  0.00  0.00    +0.144 HD
ATOM     15  H   UNL     1      37.483 -19.349 -22.515  0.00  0.00    +0.144 HD
ENDBRANCH  10  13
ENDBRANCH   5  10
ENDBRANCH   1   4
BRANCH   1  16
ATOM     16  N   UNL     1      31.879 -12.740 -23.091  0.00  0.00    -0.214 N 
ATOM     17  H   UNL     1      31.088 -13.274 -23.337  0.00  0.00    +0.174 HD
BRANCH  16  21
ATOM     18 CL   UNL     1      31.946  -6.766 -20.825  0.00  0.00    -0.081 Cl
ATOM     19  N   UNL     1      32.033  -9.708 -23.346  0.00  0.00    -0.310 N 
ATOM     20  C   UNL     1      31.902 -10.440 -22.188  0.00  0.00    +0.064 C 
ATOM     21  C   UNL     1      31.825 -11.825 -21.998  0.00  0.00    +0.078 C 
ATOM     22  C   UNL     1      31.851  -9.531 -21.129  0.00  0.00    +0.026 C 
ATOM     23  C   UNL     1      31.693 -12.291 -20.687  0.00  0.00    +0.017 C 
ATOM     24  C   UNL     1      31.956  -8.228 -21.692  0.00  0.00    +0.073 C 
ATOM     25  C   UNL     1      31.717 -10.025 -19.816  0.00  0.00    +0.002 C 
ATOM     26  C   UNL     1      32.066  -8.370 -23.055  0.00  0.00    +0.073 C 
ATOM     27  C   UNL     1      31.639 -11.408 -19.612  0.00  0.00    +0.001 C 
ATOM     28  H   UNL     1      32.093 -10.089 -24.250  0.00  0.00    +0.152 HD
ENDBRANCH  16  21
ENDBRANCH   1  16
TORSDOF 5
ENDMDL
MODEL 4
REMARK VINA RESULT:     -10.2      5.382      9.737
REMARK  Name = 216468
REMARK  5 active torsions:
REMARK  status: ('A' for Active; 'I' for Inactive)
REMARK    1  A    between atoms: S_1  and  C_4
REMARK    2  A    between atoms: S_1  and  N_16
REMARK    3  A    between atoms: C_5  and  S_10
REMARK    4  A    between atoms: S_10  and  N_13
REMARK    5  A    between atoms: N_16  and  C_21
REMARK                            x       y       z     vdW  Elec       q    Type
REMARK                         _______ _______ _______ _____ _____    ______ ____
ROOT
ATOM      1  S   UNL     1      35.229 -18.015 -22.305  0.00  0.00    +0.074 S 
ATOM      2  O   UNL     1      35.772 -18.581 -23.527  0.00  0.00    -0.150 OA
ATOM      3  O   UNL     1      36.012 -17.061 -21.543  0.00  0.00    -0.150 OA
ENDROOT
BRANCH   1   4
ATOM      4  C   UNL     1      34.843 -19.372 -21.239  0.00  0.00    +0.125 C 
ATOM      5  C   UNL     1      34.238 -21.494 -19.569  0.00  0.00    +0.122 C 
ATOM      6  C   UNL     1      33.517 -19.684 -20.999  0.00  0.00    +0.022 C 
ATOM      7  C   UNL     1      35.874 -20.093 -20.665  0.00  0.00    +0.022 C 
ATOM      8  C   UNL     1      33.212 -20.754 -20.157  0.00  0.00    +0.021 C 
ATOM      9  C   UNL     1      35.569 -21.163 -19.823  0.00  0.00    +0.021 C 
BRANCH   5  10
ATOM     10  S   UNL     1      33.857 -22.832 -18.515  0.00  0.00    +0.057 S 
ATOM     11  O   UNL     1      33.804 -24.047 -19.314  0.00  0.00    -0.153 OA
ATOM     12  O   UNL     1      34.730 -22.768 -17.352  0.00  0.00    -0.153 OA
BRANCH  10  13
ATOM     13  N   UNL     1      32.270 -22.421 -18.031  0.00  0.00    -0.203 NA
ATOM     14  H   UNL     1      32.103 -22.768 -17.086  0.00  0.00    +0.144 HD
ATOM     15  H   UNL     1      31.598 -22.845 -18.672  0.00  0.00    +0.144 HD
ENDBRANCH  10  13
ENDBRANCH   5  10
ENDBRANCH   1   4
BRANCH   1  16
ATOM     16  N   UNL     1      33.666 -17.366 -22.634  0.00  0.00    -0.214 N 
ATOM     17  H   UNL     1      33.028 -17.859 -23.200  0.00  0.00    +0.174 HD
BRANCH  16  21
ATOM     18 CL   UNL     1      32.770 -11.067 -23.216  0.00  0.00    -0.081 Cl
ATOM     19  N   UNL     1      33.617 -14.728 -24.158  0.00  0.00    -0.310 N 
ATOM     20  C   UNL     1      33.312 -14.928 -22.831  0.00  0.00    +0.064 C 
ATOM     21  C   UNL     1      33.313 -16.104 -22.071  0.00  0.00    +0.078 C 
ATOM     22  C   UNL     1      32.970 -13.685 -22.295  0.00  0.00    +0.026 C 
ATOM     23  C   UNL     1      32.954 -16.003 -20.724  0.00  0.00    +0.017 C 
ATOM     24  C   UNL     1      33.080 -12.732 -23.347  0.00  0.00    +0.073 C 
ATOM     25  C   UNL     1      32.611 -13.608 -20.935  0.00  0.00    +0.002 C 
ATOM     26  C   UNL     1      33.479 -13.404 -24.479  0.00  0.00    +0.073 C 
ATOM     27  C   UNL     1      32.607 -14.776 -20.163  0.00  0.00    +0.001 C 
ATOM     28  H   UNL     1      33.894 -15.433 -24.786  0.00  0.00    +0.152 HD
ENDBRANCH  16  21
ENDBRANCH   1  16
TORSDOF 5
ENDMDL
MODEL 5
REMARK VINA RESULT:      -9.9      4.522      6.009
REMARK  Name = 216468
REMARK  5 active torsions:
REMARK  status: ('A' for Active; 'I' for Inactive)
REMARK    1  A    between atoms: S_1  and  C_4
REMARK    2  A    between atoms: S_1  and  N_16
REMARK    3  A    between atoms: C_5  and  S_10
REMARK    4  A    between atoms: S_10  and  N_13
REMARK    5  A    between atoms: N_16  and  C_21
REMARK                            x       y       z     vdW  Elec       q    Type
REMARK                         _______ _______ _______ _____ _____    ______ ____
ROOT
ATOM      1  S   UNL     1      34.826 -23.525 -15.975  0.00  0.00    +0.074 S 
ATOM      2  O   UNL     1      35.295 -22.765 -17.119  0.00  0.00    -0.150 OA
ATOM      3  O   UNL     1      35.082 -24.950 -15.902  0.00  0.00    -0.150 OA
ENDROOT
BRANCH   1   4
ATOM      4  C   UNL     1      33.075 -23.284 -15.883  0.00  0.00    +0.125 C 
ATOM      5  C   UNL     1      30.338 -22.910 -15.741  0.00  0.00    +0.122 C 
ATOM      6  C   UNL     1      32.441 -23.408 -14.661  0.00  0.00    +0.022 C 
ATOM      7  C   UNL     1      32.376 -22.979 -17.037  0.00  0.00    +0.022 C 
ATOM      8  C   UNL     1      31.061 -23.219 -14.589  0.00  0.00    +0.021 C 
ATOM      9  C   UNL     1      30.995 -22.791 -16.965  0.00  0.00    +0.021 C 
BRANCH   5  10
ATOM     10  S   UNL     1      28.611 -22.675 -15.651  0.00  0.00    +0.057 S 
ATOM     11  O   UNL     1      27.976 -23.978 -15.515  0.00  0.00    -0.153 OA
ATOM     12  O   UNL     1      28.336 -21.630 -14.674  0.00  0.00    -0.153 OA
BRANCH  10  13
ATOM     13  N   UNL     1      28.284 -22.064 -17.214  0.00  0.00    -0.203 NA
ATOM     14  H   UNL     1      27.638 -22.689 -17.694  0.00  0.00    +0.144 HD
ATOM     15  H   UNL     1      29.155 -22.002 -17.743  0.00  0.00    +0.144 HD
ENDBRANCH  10  13
ENDBRANCH   5  10
ENDBRANCH   1   4
BRANCH   1  16
ATOM     16  N   UNL     1      35.365 -22.753 -14.530  0.00  0.00    -0.214 N 
ATOM     17  H   UNL     1      35.040 -21.855 -14.291  0.00  0.00    +0.174 HD
BRANCH  16  21
ATOM     18 CL   UNL     1      40.768 -26.069 -13.734  0.00  0.00    -0.081 Cl
ATOM     19  N   UNL     1      37.927 -24.100 -15.483  0.00  0.00    -0.310 N 
ATOM     20  C   UNL     1      37.449 -24.037 -14.194  0.00  0.00    +0.064 C 
ATOM     21  C   UNL     1      36.289 -23.440 -13.688  0.00  0.00    +0.078 C 
ATOM     22  C   UNL     1      38.364 -24.713 -13.383  0.00  0.00    +0.026 C 
ATOM     23  C   UNL     1      36.059 -23.538 -12.313  0.00  0.00    +0.017 C 
ATOM     24  C   UNL     1      39.406 -25.183 -14.231  0.00  0.00    +0.073 C 
ATOM     25  C   UNL     1      38.110 -24.799 -12.000  0.00  0.00    +0.002 C 
ATOM     26  C   UNL     1      39.109 -24.791 -15.515  0.00  0.00    +0.073 C 
ATOM     27  C   UNL     1      36.954 -24.206 -11.480  0.00  0.00    +0.001 C 
ATOM     28  H   UNL     1      37.484 -23.706 -16.269  0.00  0.00    +0.152 HD
ENDBRANCH  16  21
ENDBRANCH   1  16
TORSDOF 5
ENDMDL
MODEL 6
REMARK VINA RESULT:      -9.9      8.205     11.087
REMARK  Name = 216468
REMARK  5 active torsions:
REMARK  status: ('A' for Active; 'I' for Inactive)
REMARK    1  A    between atoms: S_1  and  C_4
REMARK    2  A    between atoms: S_1  and  N_16
REMARK    3  A    between atoms: C_5  and  S_10
REMARK    4  A    between atoms: S_10  and  N_13
REMARK    5  A    between atoms: N_16  and  C_21
REMARK                            x       y       z     vdW  Elec       q    Type
REMARK                         _______ _______ _______ _____ _____    ______ ____
ROOT
ATOM      1  S   UNL     1      32.744 -13.543 -23.167  0.00  0.00    +0.074 S 
ATOM      2  O   UNL     1      32.412 -13.966 -24.515  0.00  0.00    -0.150 OA
ATOM      3  O   UNL     1      31.858 -13.874 -22.068  0.00  0.00    -0.150 OA
ENDROOT
BRANCH   1   4
ATOM      4  C   UNL     1      32.919 -11.783 -23.209  0.00  0.00    +0.125 C 
ATOM      5  C   UNL     1      33.192  -9.031 -23.277  0.00  0.00    +0.122 C 
ATOM      6  C   UNL     1      32.064 -11.003 -22.453  0.00  0.00    +0.022 C 
ATOM      7  C   UNL     1      33.907 -11.223 -23.999  0.00  0.00    +0.022 C 
ATOM      8  C   UNL     1      32.201  -9.615 -22.487  0.00  0.00    +0.021 C 
ATOM      9  C   UNL     1      34.044  -9.835 -24.033  0.00  0.00    +0.021 C 
BRANCH   5  10
ATOM     10  S   UNL     1      33.363  -7.295 -23.320  0.00  0.00    +0.057 S 
ATOM     11  O   UNL     1      33.107  -6.773 -21.985  0.00  0.00    -0.153 OA
ATOM     12  O   UNL     1      34.610  -6.969 -23.998  0.00  0.00    -0.153 OA
BRANCH  10  13
ATOM     13  N   UNL     1      32.058  -6.865 -24.338  0.00  0.00    -0.203 NA
ATOM     14  H   UNL     1      32.419  -6.421 -25.183  0.00  0.00    +0.144 HD
ATOM     15  H   UNL     1      31.444  -6.215 -23.848  0.00  0.00    +0.144 HD
ENDBRANCH  10  13
ENDBRANCH   5  10
ENDBRANCH   1   4
BRANCH   1  16
ATOM     16  N   UNL     1      34.351 -14.050 -22.801  0.00  0.00    -0.214 N 
ATOM     17  H   UNL     1      35.091 -13.399 -22.787  0.00  0.00    +0.174 HD
BRANCH  16  21
ATOM     18 CL   UNL     1      34.994 -20.101 -24.748  0.00  0.00    -0.081 Cl
ATOM     19  N   UNL     1      34.412 -16.273 -24.884  0.00  0.00    -0.310 N 
ATOM     20  C   UNL     1      34.605 -16.398 -23.526  0.00  0.00    +0.064 C 
ATOM     21  C   UNL     1      34.591 -15.427 -22.519  0.00  0.00    +0.078 C 
ATOM     22  C   UNL     1      34.837 -17.750 -23.266  0.00  0.00    +0.026 C 
ATOM     23  C   UNL     1      34.822 -15.853 -21.207  0.00  0.00    +0.017 C 
ATOM     24  C   UNL     1      34.777 -18.432 -24.515  0.00  0.00    +0.073 C 
ATOM     25  C   UNL     1      35.068 -18.156 -21.937  0.00  0.00    +0.002 C 
ATOM     26  C   UNL     1      34.515 -17.497 -25.489  0.00  0.00    +0.073 C 
ATOM     27  C   UNL     1      35.057 -17.196 -20.919  0.00  0.00    +0.001 C 
ATOM     28  H   UNL     1      34.227 -15.428 -25.351  0.00  0.00    +0.152 HD
ENDBRANCH  16  21
ENDBRANCH   1  16
TORSDOF 5
ENDMDL
MODEL 7
REMARK VINA RESULT:      -9.8      5.236      6.460
REMARK  Name = 216468
REMARK  5 active torsions:
REMARK  status: ('A' for Active; 'I' for Inactive)
REMARK    1  A    between atoms: S_1  and  C_4
REMARK    2  A    between atoms: S_1  and  N_16
REMARK    3  A    between atoms: C_5  and  S_10
REMARK    4  A    between atoms: S_10  and  N_13
REMARK    5  A    between atoms: N_16  and  C_21
REMARK                            x       y       z     vdW  Elec       q    Type
REMARK                         _______ _______ _______ _____ _____    ______ ____
ROOT
ATOM      1  S   UNL     1      33.591 -24.384 -14.123  0.00  0.00    +0.074 S 
ATOM      2  O   UNL     1      34.125 -25.455 -14.944  0.00  0.00    -0.150 OA
ATOM      3  O   UNL     1      33.436 -24.579 -12.695  0.00  0.00    -0.150 OA
ENDROOT
BRANCH   1   4
ATOM      4  C   UNL     1      32.005 -23.971 -14.788  0.00  0.00    +0.125 C 
ATOM      5  C   UNL     1      29.524 -23.325 -15.828  0.00  0.00    +0.122 C 
ATOM      6  C   UNL     1      30.868 -24.459 -14.171  0.00  0.00    +0.022 C 
ATOM      7  C   UNL     1      31.934 -23.168 -15.912  0.00  0.00    +0.022 C 
ATOM      8  C   UNL     1      29.617 -24.134 -14.696  0.00  0.00    +0.021 C 
ATOM      9  C   UNL     1      30.682 -22.842 -16.437  0.00  0.00    +0.021 C 
BRANCH   5  10
ATOM     10  S   UNL     1      27.959 -22.919 -16.486  0.00  0.00    +0.057 S 
ATOM     11  O   UNL     1      26.987 -22.936 -15.403  0.00  0.00    -0.153 OA
ATOM     12  O   UNL     1      28.100 -21.729 -17.314  0.00  0.00    -0.153 OA
BRANCH  10  13
ATOM     13  N   UNL     1      27.675 -24.263 -17.503  0.00  0.00    -0.203 NA
ATOM     14  H   UNL     1      27.946 -24.028 -18.458  0.00  0.00    +0.144 HD
ATOM     15  H   UNL     1      26.684 -24.504 -17.479  0.00  0.00    +0.144 HD
ENDBRANCH  10  13
ENDBRANCH   5  10
ENDBRANCH   1   4
BRANCH   1  16
ATOM     16  N   UNL     1      34.489 -22.944 -14.427  0.00  0.00    -0.214 N 
ATOM     17  H   UNL     1      34.089 -22.059 -14.259  0.00  0.00    +0.174 HD
BRANCH  16  21
ATOM     18 CL   UNL     1      40.319 -25.549 -14.201  0.00  0.00    -0.081 Cl
ATOM     19  N   UNL     1      36.623 -24.808 -13.306  0.00  0.00    -0.310 N 
ATOM     20  C   UNL     1      36.752 -23.935 -14.362  0.00  0.00    +0.064 C 
ATOM     21  C   UNL     1      35.820 -23.056 -14.927  0.00  0.00    +0.078 C 
ATOM     22  C   UNL     1      38.058 -24.056 -14.839  0.00  0.00    +0.026 C 
ATOM     23  C   UNL     1      36.240 -22.278 -16.010  0.00  0.00    +0.017 C 
ATOM     24  C   UNL     1      38.709 -25.032 -14.032  0.00  0.00    +0.073 C 
ATOM     25  C   UNL     1      38.458 -23.262 -15.933  0.00  0.00    +0.002 C 
ATOM     26  C   UNL     1      37.801 -25.475 -13.099  0.00  0.00    +0.073 C 
ATOM     27  C   UNL     1      37.537 -22.379 -16.507  0.00  0.00    +0.001 C 
ATOM     28  H   UNL     1      35.803 -24.934 -12.776  0.00  0.00    +0.152 HD
ENDBRANCH  16  21
ENDBRANCH   1  16
TORSDOF 5
ENDMDL
MODEL 8
REMARK VINA RESULT:      -9.8      2.644      3.773
REMARK  Name = 216468
REMARK  5 active torsions:
REMARK  status: ('A' for Active; 'I' for Inactive)
REMARK    1  A    between atoms: S_1  and  C_4
REMARK    2  A    between atoms: S_1  and  N_16
REMARK    3  A    between atoms: C_5  and  S_10
REMARK    4  A    between atoms: S_10  and  N_13
REMARK    5  A    between atoms: N_16  and  C_21
REMARK                            x       y       z     vdW  Elec       q    Type
REMARK                         _______ _______ _______ _____ _____    ______ ____
ROOT
ATOM      1  S   UNL     1      34.233 -22.794 -18.483  0.00  0.00    +0.074 S 
ATOM      2  O   UNL     1      35.409 -22.771 -17.633  0.00  0.00    -0.150 OA
ATOM      3  O   UNL     1      33.928 -23.979 -19.260  0.00  0.00    -0.150 OA
ENDROOT
BRANCH   1   4
ATOM      4  C   UNL     1      34.386 -21.435 -19.606  0.00  0.00    +0.125 C 
ATOM      5  C   UNL     1      34.624 -19.311 -21.361  0.00  0.00    +0.122 C 
ATOM      6  C   UNL     1      35.647 -21.008 -19.980  0.00  0.00    +0.022 C 
ATOM      7  C   UNL     1      33.240 -20.827 -20.087  0.00  0.00    +0.022 C 
ATOM      8  C   UNL     1      35.767 -19.937 -20.865  0.00  0.00    +0.021 C 
ATOM      9  C   UNL     1      33.361 -19.755 -20.972  0.00  0.00    +0.021 C 
BRANCH   5  10
ATOM     10  S   UNL     1      34.775 -17.969 -22.468  0.00  0.00    +0.057 S 
ATOM     11  O   UNL     1      34.186 -18.355 -23.742  0.00  0.00    -0.153 OA
ATOM     12  O   UNL     1      34.317 -16.761 -21.796  0.00  0.00    -0.153 OA
BRANCH  10  13
ATOM     13  N   UNL     1      36.472 -17.885 -22.648  0.00  0.00    -0.203 NA
ATOM     14  H   UNL     1      36.795 -18.683 -23.195  0.00  0.00    +0.144 HD
ATOM     15  H   UNL     1      36.913 -17.903 -21.728  0.00  0.00    +0.144 HD
ENDBRANCH  10  13
ENDBRANCH   5  10
ENDBRANCH   1   4
BRANCH   1  16
ATOM     16  N   UNL     1      32.858 -22.329 -17.552  0.00  0.00    -0.214 N 
ATOM     17  H   UNL     1      32.335 -21.531 -17.794  0.00  0.00    +0.174 HD
BRANCH  16  21
ATOM     18 CL   UNL     1      28.467 -25.517 -14.178  0.00  0.00    -0.081 Cl
ATOM     19  N   UNL     1      30.051 -23.374 -16.990  0.00  0.00    -0.310 N 
ATOM     20  C   UNL     1      31.180 -23.570 -16.227  0.00  0.00    +0.064 C 
ATOM     21  C   UNL     1      32.492 -23.123 -16.424  0.00  0.00    +0.078 C 
ATOM     22  C   UNL     1      30.806 -24.347 -15.129  0.00  0.00    +0.026 C 
ATOM     23  C   UNL     1      33.447 -23.482 -15.468  0.00  0.00    +0.017 C 
ATOM     24  C   UNL     1      29.413 -24.610 -15.260  0.00  0.00    +0.073 C 
ATOM     25  C   UNL     1      31.786 -24.696 -14.179  0.00  0.00    +0.002 C 
ATOM     26  C   UNL     1      28.978 -23.999 -16.412  0.00  0.00    +0.073 C 
ATOM     27  C   UNL     1      33.102 -24.256 -14.363  0.00  0.00    +0.001 C 
ATOM     28  H   UNL     1      30.019 -22.859 -17.828  0.00  0.00    +0.152 HD
ENDBRANCH  16  21
ENDBRANCH   1  16
TORSDOF 5
ENDMDL
MODEL 9
REMARK VINA RESULT:      -9.6      7.486     10.718
REMARK  Name = 216468
REMARK  5 active torsions:
REMARK  status: ('A' for Active; 'I' for Inactive)
REMARK    1  A    between atoms: S_1  and  C_4
REMARK    2  A    between atoms: S_1  and  N_16
REMARK    3  A    between atoms: C_5  and  S_10
REMARK    4  A    between atoms: S_10  and  N_13
REMARK    5  A    between atoms: N_16  and  C_21
REMARK                            x       y       z     vdW  Elec       q    Type
REMARK                         _______ _______ _______ _____ _____    ______ ____
ROOT
ATOM      1  S   UNL     1      32.747 -13.791 -23.609  0.00  0.00    +0.074 S 
ATOM      2  O   UNL     1      31.995 -14.031 -24.827  0.00  0.00    -0.150 OA
ATOM      3  O   UNL     1      32.211 -14.227 -22.333  0.00  0.00    -0.150 OA
ENDROOT
BRANCH   1   4
ATOM      4  C   UNL     1      33.023 -12.047 -23.512  0.00  0.00    +0.125 C 
ATOM      5  C   UNL     1      33.455  -9.318 -23.361  0.00  0.00    +0.122 C 
ATOM      6  C   UNL     1      32.239 -11.286 -22.664  0.00  0.00    +0.022 C 
ATOM      7  C   UNL     1      34.018 -11.478 -24.287  0.00  0.00    +0.022 C 
ATOM      8  C   UNL     1      32.457  -9.910 -22.588  0.00  0.00    +0.021 C 
ATOM      9  C   UNL     1      34.235 -10.102 -24.211  0.00  0.00    +0.021 C 
BRANCH   5  10
ATOM     10  S   UNL     1      33.726  -7.596 -23.268  0.00  0.00    +0.057 S 
ATOM     11  O   UNL     1      35.162  -7.356 -23.282  0.00  0.00    -0.153 OA
ATOM     12  O   UNL     1      32.872  -6.939 -24.247  0.00  0.00    -0.153 OA
BRANCH  10  13
ATOM     13  N   UNL     1      33.126  -7.258 -21.703  0.00  0.00    -0.203 NA
ATOM     14  H   UNL     1      33.818  -6.715 -21.185  0.00  0.00    +0.144 HD
ATOM     15  H   UNL     1      32.944  -8.133 -21.212  0.00  0.00    +0.144 HD
ENDBRANCH  10  13
ENDBRANCH   5  10
ENDBRANCH   1   4
BRANCH   1  16
ATOM     16  N   UNL     1      34.350 -14.393 -23.811  0.00  0.00    -0.214 N 
ATOM     17  H   UNL     1      35.114 -13.774 -23.869  0.00  0.00    +0.174 HD
BRANCH  16  21
ATOM     18 CL   UNL     1      35.509 -20.023 -21.021  0.00  0.00    -0.081 Cl
ATOM     19  N   UNL     1      34.895 -16.220 -21.434  0.00  0.00    -0.310 N 
ATOM     20  C   UNL     1      34.797 -16.583 -22.758  0.00  0.00    +0.064 C 
ATOM     21  C   UNL     1      34.550 -15.803 -23.894  0.00  0.00    +0.078 C 
ATOM     22  C   UNL     1      34.995 -17.964 -22.822  0.00  0.00    +0.026 C 
ATOM     23  C   UNL     1      34.505 -16.455 -25.129  0.00  0.00    +0.017 C 
ATOM     24  C   UNL     1      35.216 -18.416 -21.490  0.00  0.00    +0.073 C 
ATOM     25  C   UNL     1      34.945 -18.600 -24.078  0.00  0.00    +0.002 C 
ATOM     26  C   UNL     1      35.148 -17.321 -20.661  0.00  0.00    +0.073 C 
ATOM     27  C   UNL     1      34.698 -17.831 -25.222  0.00  0.00    +0.001 C 
ATOM     28  H   UNL     1      34.798 -15.302 -21.093  0.00  0.00    +0.152 HD
ENDBRANCH  16  21
ENDBRANCH   1  16
TORSDOF 5
ENDMDL
