MODEL 1
REMARK VINA RESULT:      -7.8      0.000      0.000
REMARK  Name = 1130
REMARK  5 active torsions:
REMARK  status: ('A' for Active; 'I' for Inactive)
REMARK    1  A    between atoms: C_1  and  C_5
REMARK    2  A    between atoms: C_1  and  N_13
REMARK    3  A    between atoms: C_15  and  C_18
REMARK    4  A    between atoms: C_18  and  C_19
REMARK    5  A    between atoms: C_19  and  O_20
REMARK                            x       y       z     vdW  Elec       q    Type
REMARK                         _______ _______ _______ _____ _____    ______ ____
ROOT
ATOM      1  C   UNL     1      35.677 -18.504 -22.330  0.00  0.00    +0.124 C 
ENDROOT
BRANCH   1   5
ATOM      2  N   UNL     1      35.071 -20.938 -19.504  0.00  0.00    -0.340 NA
ATOM      3  N   UNL     1      32.993 -20.527 -20.653  0.00  0.00    -0.186 NA
ATOM      4  N   UNL     1      37.063 -19.866 -20.216  0.00  0.00    -0.332 N 
ATOM      5  C   UNL     1      35.010 -19.435 -21.383  0.00  0.00    +0.062 C 
ATOM      6  C   UNL     1      35.672 -20.092 -20.366  0.00  0.00    +0.187 C 
ATOM      7  C   UNL     1      33.658 -19.694 -21.480  0.00  0.00    +0.111 C 
ATOM      8  C   UNL     1      33.750 -21.107 -19.701  0.00  0.00    +0.066 C 
ATOM      9  C   UNL     1      33.049 -22.035 -18.768  0.00  0.00    +0.129 C 
ATOM     10  H   UNL     1      37.561 -20.322 -19.499  0.00  0.00    +0.145 HD
ATOM     11  H   UNL     1      37.531 -19.254 -20.829  0.00  0.00    +0.145 HD
ENDBRANCH   1   5
BRANCH   1  13
ATOM     12  S   UNL     1      34.143 -15.043 -21.395  0.00  0.00    -0.095 S 
ATOM     13  N   UNL     1      35.038 -17.186 -22.282  0.00  0.00    -0.297 N 
ATOM     14  C   UNL     1      34.538 -16.567 -23.391  0.00  0.00    +0.028 C 
ATOM     15  C   UNL     1      33.992 -15.344 -23.082  0.00  0.00    +0.016 C 
ATOM     16  C   UNL     1      34.923 -16.545 -21.151  0.00  0.00    +0.154 C 
ATOM     17  C   UNL     1      34.638 -17.242 -24.694  0.00  0.00    +0.047 C 
BRANCH  15  18
ATOM     18  C   UNL     1      33.346 -14.345 -23.957  0.00  0.00    +0.065 C 
BRANCH  18  19
ATOM     19  C   UNL     1      33.290 -12.939 -23.334  0.00  0.00    +0.142 C 
BRANCH  19  20
ATOM     20  O   UNL     1      34.262 -12.091 -23.934  0.00  0.00    -0.382 OA
ATOM     21  H   UNL     1      34.726 -11.593 -23.243  0.00  0.00    +0.210 HD
ENDBRANCH  19  20
ENDBRANCH  18  19
ENDBRANCH  15  18
ENDBRANCH   1  13
TORSDOF 5
ENDMDL
MODEL 2
REMARK VINA RESULT:      -7.8      3.683      6.697
REMARK  Name = 1130
REMARK  5 active torsions:
REMARK  status: ('A' for Active; 'I' for Inactive)
REMARK    1  A    between atoms: C_1  and  C_5
REMARK    2  A    between atoms: C_1  and  N_13
REMARK    3  A    between atoms: C_15  and  C_18
REMARK    4  A    between atoms: C_18  and  C_19
REMARK    5  A    between atoms: C_19  and  O_20
REMARK                            x       y       z     vdW  Elec       q    Type
REMARK                         _______ _______ _______ _____ _____    ______ ____
ROOT
ATOM      1  C   UNL     1      35.843 -17.707 -21.890  0.00  0.00    +0.124 C 
ENDROOT
BRANCH   1   5
ATOM      2  N   UNL     1      33.819 -15.271 -23.953  0.00  0.00    -0.340 NA
ATOM      3  N   UNL     1      34.372 -17.185 -25.308  0.00  0.00    -0.186 NA
ATOM      4  N   UNL     1      34.542 -15.154 -21.698  0.00  0.00    -0.332 N 
ATOM      5  C   UNL     1      35.111 -17.075 -23.019  0.00  0.00    +0.062 C 
ATOM      6  C   UNL     1      34.484 -15.849 -22.931  0.00  0.00    +0.187 C 
ATOM      7  C   UNL     1      35.021 -17.704 -24.244  0.00  0.00    +0.111 C 
ATOM      8  C   UNL     1      33.803 -15.984 -25.096  0.00  0.00    +0.066 C 
ATOM      9  C   UNL     1      33.077 -15.379 -26.249  0.00  0.00    +0.129 C 
ATOM     10  H   UNL     1      34.104 -14.277 -21.605  0.00  0.00    +0.145 HD
ATOM     11  H   UNL     1      35.020 -15.548 -20.932  0.00  0.00    +0.145 HD
ENDBRANCH   1   5
BRANCH   1  13
ATOM     12  S   UNL     1      33.064 -20.128 -20.619  0.00  0.00    -0.095 S 
ATOM     13  N   UNL     1      35.038 -18.778 -21.299  0.00  0.00    -0.297 N 
ATOM     14  C   UNL     1      35.589 -19.833 -20.631  0.00  0.00    +0.028 C 
ATOM     15  C   UNL     1      34.624 -20.699 -20.174  0.00  0.00    +0.016 C 
ATOM     16  C   UNL     1      33.736 -18.760 -21.394  0.00  0.00    +0.154 C 
ATOM     17  C   UNL     1      37.051 -19.906 -20.490  0.00  0.00    +0.047 C 
BRANCH  15  18
ATOM     18  C   UNL     1      34.763 -21.956 -19.410  0.00  0.00    +0.065 C 
BRANCH  18  19
ATOM     19  C   UNL     1      33.469 -22.371 -18.686  0.00  0.00    +0.142 C 
BRANCH  19  20
ATOM     20  O   UNL     1      33.524 -23.744 -18.321  0.00  0.00    -0.382 OA
ATOM     21  H   UNL     1      32.796 -23.945 -17.711  0.00  0.00    +0.210 HD
ENDBRANCH  19  20
ENDBRANCH  18  19
ENDBRANCH  15  18
ENDBRANCH   1  13
TORSDOF 5
ENDMDL
MODEL 3
REMARK VINA RESULT:      -7.6      3.555      6.668
REMARK  Name = 1130
REMARK  5 active torsions:
REMARK  status: ('A' for Active; 'I' for Inactive)
REMARK    1  A    between atoms: C_1  and  C_5
REMARK    2  A    between atoms: C_1  and  N_13
REMARK    3  A    between atoms: C_15  and  C_18
REMARK    4  A    between atoms: C_18  and  C_19
REMARK    5  A    between atoms: C_19  and  O_20
REMARK                            x       y       z     vdW  Elec       q    Type
REMARK                         _______ _______ _______ _____ _____    ______ ____
ROOT
ATOM      1  C   UNL     1      35.731 -17.941 -22.292  0.00  0.00    +0.124 C 
ENDROOT
BRANCH   1   5
ATOM      2  N   UNL     1      33.569 -15.142 -23.622  0.00  0.00    -0.340 NA
ATOM      3  N   UNL     1      33.915 -14.820 -21.260  0.00  0.00    -0.186 NA
ATOM      4  N   UNL     1      34.536 -17.003 -24.729  0.00  0.00    -0.332 N 
ATOM      5  C   UNL     1      34.900 -16.712 -22.374  0.00  0.00    +0.062 C 
ATOM      6  C   UNL     1      34.324 -16.257 -23.543  0.00  0.00    +0.187 C 
ATOM      7  C   UNL     1      34.659 -15.945 -21.253  0.00  0.00    +0.111 C 
ATOM      8  C   UNL     1      33.407 -14.481 -22.460  0.00  0.00    +0.066 C 
ATOM      9  C   UNL     1      32.578 -13.243 -22.507  0.00  0.00    +0.129 C 
ATOM     10  H   UNL     1      34.138 -16.702 -25.577  0.00  0.00    +0.145 HD
ATOM     11  H   UNL     1      35.082 -17.822 -24.705  0.00  0.00    +0.145 HD
ENDBRANCH   1   5
BRANCH   1  13
ATOM     12  S   UNL     1      33.223 -20.364 -20.548  0.00  0.00    -0.095 S 
ATOM     13  N   UNL     1      35.044 -18.968 -21.505  0.00  0.00    -0.297 N 
ATOM     14  C   UNL     1      35.705 -19.833 -20.682  0.00  0.00    +0.028 C 
ATOM     15  C   UNL     1      34.838 -20.696 -20.057  0.00  0.00    +0.016 C 
ATOM     16  C   UNL     1      33.747 -19.092 -21.565  0.00  0.00    +0.154 C 
ATOM     17  C   UNL     1      37.169 -19.740 -20.572  0.00  0.00    +0.047 C 
BRANCH  15  18
ATOM     18  C   UNL     1      35.109 -21.783 -19.095  0.00  0.00    +0.065 C 
BRANCH  18  19
ATOM     19  C   UNL     1      33.870 -22.643 -18.785  0.00  0.00    +0.142 C 
BRANCH  19  20
ATOM     20  O   UNL     1      33.934 -23.877 -19.489  0.00  0.00    -0.382 OA
ATOM     21  H   UNL     1      34.806 -24.280 -19.354  0.00  0.00    +0.210 HD
ENDBRANCH  19  20
ENDBRANCH  18  19
ENDBRANCH  15  18
ENDBRANCH   1  13
TORSDOF 5
ENDMDL
MODEL 4
REMARK VINA RESULT:      -7.5      4.793      8.005
REMARK  Name = 1130
REMARK  5 active torsions:
REMARK  status: ('A' for Active; 'I' for Inactive)
REMARK    1  A    between atoms: C_1  and  C_5
REMARK    2  A    between atoms: C_1  and  N_13
REMARK    3  A    between atoms: C_15  and  C_18
REMARK    4  A    between atoms: C_18  and  C_19
REMARK    5  A    between atoms: C_19  and  O_20
REMARK                            x       y       z     vdW  Elec       q    Type
REMARK                         _______ _______ _______ _____ _____    ______ ____
ROOT
ATOM      1  C   UNL     1      35.159 -22.023 -19.925  0.00  0.00    +0.124 C 
ENDROOT
BRANCH   1   5
ATOM      2  N   UNL     1      33.727 -18.678 -20.944  0.00  0.00    -0.340 NA
ATOM      3  N   UNL     1      36.132 -18.529 -20.903  0.00  0.00    -0.186 NA
ATOM      4  N   UNL     1      32.646 -20.714 -20.391  0.00  0.00    -0.332 N 
ATOM      5  C   UNL     1      35.044 -20.601 -20.340  0.00  0.00    +0.062 C 
ATOM      6  C   UNL     1      33.838 -19.968 -20.566  0.00  0.00    +0.187 C 
ATOM      7  C   UNL     1      36.169 -19.825 -20.527  0.00  0.00    +0.111 C 
ATOM      8  C   UNL     1      34.897 -18.026 -21.092  0.00  0.00    +0.066 C 
ATOM      9  C   UNL     1      34.816 -16.597 -21.508  0.00  0.00    +0.129 C 
ATOM     10  H   UNL     1      31.772 -20.289 -20.545  0.00  0.00    +0.145 HD
ATOM     11  H   UNL     1      32.693 -21.659 -20.115  0.00  0.00    +0.145 HD
ENDBRANCH   1   5
BRANCH   1  13
ATOM     12  S   UNL     1      36.986 -21.897 -16.481  0.00  0.00    -0.095 S 
ATOM     13  N   UNL     1      35.587 -22.110 -18.526  0.00  0.00    -0.297 N 
ATOM     14  C   UNL     1      34.802 -22.646 -17.546  0.00  0.00    +0.028 C 
ATOM     15  C   UNL     1      35.429 -22.611 -16.323  0.00  0.00    +0.016 C 
ATOM     16  C   UNL     1      36.759 -21.668 -18.162  0.00  0.00    +0.154 C 
ATOM     17  C   UNL     1      33.471 -23.162 -17.897  0.00  0.00    +0.047 C 
BRANCH  15  18
ATOM     18  C   UNL     1      34.959 -23.076 -15.003  0.00  0.00    +0.065 C 
BRANCH  18  19
ATOM     19  C   UNL     1      34.924 -24.610 -14.877  0.00  0.00    +0.142 C 
BRANCH  19  20
ATOM     20  O   UNL     1      36.055 -25.186 -15.518  0.00  0.00    -0.382 OA
ATOM     21  H   UNL     1      36.120 -24.847 -16.424  0.00  0.00    +0.210 HD
ENDBRANCH  19  20
ENDBRANCH  18  19
ENDBRANCH  15  18
ENDBRANCH   1  13
TORSDOF 5
ENDMDL
MODEL 5
REMARK VINA RESULT:      -7.3      1.266      2.068
REMARK  Name = 1130
REMARK  5 active torsions:
REMARK  status: ('A' for Active; 'I' for Inactive)
REMARK    1  A    between atoms: C_1  and  C_5
REMARK    2  A    between atoms: C_1  and  N_13
REMARK    3  A    between atoms: C_15  and  C_18
REMARK    4  A    between atoms: C_18  and  C_19
REMARK    5  A    between atoms: C_19  and  O_20
REMARK                            x       y       z     vdW  Elec       q    Type
REMARK                         _______ _______ _______ _____ _____    ______ ____
ROOT
ATOM      1  C   UNL     1      34.739 -18.665 -22.574  0.00  0.00    +0.124 C 
ENDROOT
BRANCH   1   5
ATOM      2  N   UNL     1      34.665 -20.986 -19.592  0.00  0.00    -0.340 NA
ATOM      3  N   UNL     1      36.926 -20.236 -19.954  0.00  0.00    -0.186 NA
ATOM      4  N   UNL     1      32.919 -20.249 -21.016  0.00  0.00    -0.332 N 
ATOM      5  C   UNL     1      35.160 -19.482 -21.405  0.00  0.00    +0.062 C 
ATOM      6  C   UNL     1      34.288 -20.244 -20.654  0.00  0.00    +0.187 C 
ATOM      7  C   UNL     1      36.480 -19.516 -21.005  0.00  0.00    +0.111 C 
ATOM      8  C   UNL     1      35.980 -20.937 -19.302  0.00  0.00    +0.066 C 
ATOM      9  C   UNL     1      36.435 -21.745 -18.135  0.00  0.00    +0.129 C 
ATOM     10  H   UNL     1      32.274 -20.783 -20.498  0.00  0.00    +0.145 HD
ATOM     11  H   UNL     1      32.611 -19.718 -21.787  0.00  0.00    +0.145 HD
ENDBRANCH   1   5
BRANCH   1  13
ATOM     12  S   UNL     1      34.402 -15.225 -20.770  0.00  0.00    -0.095 S 
ATOM     13  N   UNL     1      34.586 -17.261 -22.184  0.00  0.00    -0.297 N 
ATOM     14  C   UNL     1      34.425 -16.256 -23.093  0.00  0.00    +0.028 C 
ATOM     15  C   UNL     1      34.303 -15.034 -22.476  0.00  0.00    +0.016 C 
ATOM     16  C   UNL     1      34.599 -16.917 -20.926  0.00  0.00    +0.154 C 
ATOM     17  C   UNL     1      34.400 -16.584 -24.527  0.00  0.00    +0.047 C 
BRANCH  15  18
ATOM     18  C   UNL     1      34.115 -13.691 -23.061  0.00  0.00    +0.065 C 
BRANCH  18  19
ATOM     19  C   UNL     1      32.661 -13.411 -23.482  0.00  0.00    +0.142 C 
BRANCH  19  20
ATOM     20  O   UNL     1      31.837 -13.234 -22.337  0.00  0.00    -0.382 OA
ATOM     21  H   UNL     1      31.188 -12.535 -22.511  0.00  0.00    +0.210 HD
ENDBRANCH  19  20
ENDBRANCH  18  19
ENDBRANCH  15  18
ENDBRANCH   1  13
TORSDOF 5
ENDMDL
MODEL 6
REMARK VINA RESULT:      -7.2      3.873      7.834
REMARK  Name = 1130
REMARK  5 active torsions:
REMARK  status: ('A' for Active; 'I' for Inactive)
REMARK    1  A    between atoms: C_1  and  C_5
REMARK    2  A    between atoms: C_1  and  N_13
REMARK    3  A    between atoms: C_15  and  C_18
REMARK    4  A    between atoms: C_18  and  C_19
REMARK    5  A    between atoms: C_19  and  O_20
REMARK                            x       y       z     vdW  Elec       q    Type
REMARK                         _______ _______ _______ _____ _____    ______ ____
ROOT
ATOM      1  C   UNL     1      32.348 -13.730 -23.490  0.00  0.00    +0.124 C 
ENDROOT
BRANCH   1   5
ATOM      2  N   UNL     1      32.765 -10.022 -22.888  0.00  0.00    -0.340 NA
ATOM      3  N   UNL     1      34.462 -10.770 -24.427  0.00  0.00    -0.186 NA
ATOM      4  N   UNL     1      31.183 -11.558 -22.016  0.00  0.00    -0.332 N 
ATOM      5  C   UNL     1      32.860 -12.336 -23.547  0.00  0.00    +0.062 C 
ATOM      6  C   UNL     1      32.303 -11.289 -22.840  0.00  0.00    +0.187 C 
ATOM      7  C   UNL     1      33.948 -12.014 -24.332  0.00  0.00    +0.111 C 
ATOM      8  C   UNL     1      33.831  -9.836 -23.690  0.00  0.00    +0.066 C 
ATOM      9  C   UNL     1      34.370  -8.448 -23.769  0.00  0.00    +0.129 C 
ATOM     10  H   UNL     1      30.765 -10.831 -21.500  0.00  0.00    +0.145 HD
ATOM     11  H   UNL     1      30.822 -12.473 -21.958  0.00  0.00    +0.145 HD
ENDBRANCH   1   5
BRANCH   1  13
ATOM     12  S   UNL     1      34.492 -15.504 -20.759  0.00  0.00    -0.095 S 
ATOM     13  N   UNL     1      33.250 -14.571 -22.701  0.00  0.00    -0.297 N 
ATOM     14  C   UNL     1      33.991 -15.578 -23.250  0.00  0.00    +0.028 C 
ATOM     15  C   UNL     1      34.755 -16.216 -22.303  0.00  0.00    +0.016 C 
ATOM     16  C   UNL     1      33.380 -14.382 -21.416  0.00  0.00    +0.154 C 
ATOM     17  C   UNL     1      33.887 -15.837 -24.694  0.00  0.00    +0.047 C 
BRANCH  15  18
ATOM     18  C   UNL     1      35.694 -17.347 -22.445  0.00  0.00    +0.065 C 
BRANCH  18  19
ATOM     19  C   UNL     1      35.259 -18.600 -21.664  0.00  0.00    +0.142 C 
BRANCH  19  20
ATOM     20  O   UNL     1      36.061 -18.764 -20.502  0.00  0.00    -0.382 OA
ATOM     21  H   UNL     1      35.510 -19.087 -19.772  0.00  0.00    +0.210 HD
ENDBRANCH  19  20
ENDBRANCH  18  19
ENDBRANCH  15  18
ENDBRANCH   1  13
TORSDOF 5
ENDMDL
MODEL 7
REMARK VINA RESULT:      -7.2      1.717      2.114
REMARK  Name = 1130
REMARK  5 active torsions:
REMARK  status: ('A' for Active; 'I' for Inactive)
REMARK    1  A    between atoms: C_1  and  C_5
REMARK    2  A    between atoms: C_1  and  N_13
REMARK    3  A    between atoms: C_15  and  C_18
REMARK    4  A    between atoms: C_18  and  C_19
REMARK    5  A    between atoms: C_19  and  O_20
REMARK                            x       y       z     vdW  Elec       q    Type
REMARK                         _______ _______ _______ _____ _____    ______ ____
ROOT
ATOM      1  C   UNL     1      36.010 -18.030 -21.723  0.00  0.00    +0.124 C 
ENDROOT
BRANCH   1   5
ATOM      2  N   UNL     1      35.094 -21.105 -19.724  0.00  0.00    -0.340 NA
ATOM      3  N   UNL     1      33.078 -20.026 -20.485  0.00  0.00    -0.186 NA
ATOM      4  N   UNL     1      37.215 -20.194 -20.270  0.00  0.00    -0.332 N 
ATOM      5  C   UNL     1      35.226 -19.094 -21.043  0.00  0.00    +0.062 C 
ATOM      6  C   UNL     1      35.801 -20.137 -20.344  0.00  0.00    +0.187 C 
ATOM      7  C   UNL     1      33.847 -19.091 -21.081  0.00  0.00    +0.111 C 
ATOM      8  C   UNL     1      33.757 -20.990 -19.833  0.00  0.00    +0.066 C 
ATOM      9  C   UNL     1      32.940 -22.041 -19.162  0.00  0.00    +0.129 C 
ATOM     10  H   UNL     1      37.653 -20.926 -19.778  0.00  0.00    +0.145 HD
ATOM     11  H   UNL     1      37.760 -19.502 -20.710  0.00  0.00    +0.145 HD
ENDBRANCH   1   5
BRANCH   1  13
ATOM     12  S   UNL     1      34.399 -17.606 -25.249  0.00  0.00    -0.095 S 
ATOM     13  N   UNL     1      35.322 -17.592 -22.940  0.00  0.00    -0.297 N 
ATOM     14  C   UNL     1      34.722 -16.371 -23.050  0.00  0.00    +0.028 C 
ATOM     15  C   UNL     1      34.148 -16.201 -24.287  0.00  0.00    +0.016 C 
ATOM     16  C   UNL     1      35.258 -18.373 -23.984  0.00  0.00    +0.154 C 
ATOM     17  C   UNL     1      34.763 -15.448 -21.906  0.00  0.00    +0.047 C 
BRANCH  15  18
ATOM     18  C   UNL     1      33.404 -15.051 -24.838  0.00  0.00    +0.065 C 
BRANCH  18  19
ATOM     19  C   UNL     1      32.970 -15.254 -26.302  0.00  0.00    +0.142 C 
BRANCH  19  20
ATOM     20  O   UNL     1      33.595 -14.292 -27.142  0.00  0.00    -0.382 OA
ATOM     21  H   UNL     1      32.933 -13.651 -27.447  0.00  0.00    +0.210 HD
ENDBRANCH  19  20
ENDBRANCH  18  19
ENDBRANCH  15  18
ENDBRANCH   1  13
TORSDOF 5
ENDMDL
MODEL 8
REMARK VINA RESULT:      -7.2      3.451      5.772
REMARK  Name = 1130
REMARK  5 active torsions:
REMARK  status: ('A' for Active; 'I' for Inactive)
REMARK    1  A    between atoms: C_1  and  C_5
REMARK    2  A    between atoms: C_1  and  N_13
REMARK    3  A    between atoms: C_15  and  C_18
REMARK    4  A    between atoms: C_18  and  C_19
REMARK    5  A    between atoms: C_19  and  O_20
REMARK                            x       y       z     vdW  Elec       q    Type
REMARK                         _______ _______ _______ _____ _____    ______ ____
ROOT
ATOM      1  C   UNL     1      33.630 -13.113 -24.164  0.00  0.00    +0.124 C 
ENDROOT
BRANCH   1   5
ATOM      2  N   UNL     1      34.454 -16.717 -23.381  0.00  0.00    -0.340 NA
ATOM      3  N   UNL     1      34.798 -15.379 -21.406  0.00  0.00    -0.186 NA
ATOM      4  N   UNL     1      33.709 -15.707 -25.393  0.00  0.00    -0.332 N 
ATOM      5  C   UNL     1      34.042 -14.346 -23.444  0.00  0.00    +0.062 C 
ATOM      6  C   UNL     1      34.081 -15.595 -24.031  0.00  0.00    +0.187 C 
ATOM      7  C   UNL     1      34.414 -14.298 -22.116  0.00  0.00    +0.111 C 
ATOM      8  C   UNL     1      34.796 -16.539 -22.090  0.00  0.00    +0.066 C 
ATOM      9  C   UNL     1      35.214 -17.757 -21.338  0.00  0.00    +0.129 C 
ATOM     10  H   UNL     1      33.727 -16.585 -25.837  0.00  0.00    +0.145 HD
ATOM     11  H   UNL     1      33.432 -14.907 -25.896  0.00  0.00    +0.145 HD
ENDBRANCH   1   5
BRANCH   1  13
ATOM     12  S   UNL     1      31.267 -11.444 -21.548  0.00  0.00    -0.095 S 
ATOM     13  N   UNL     1      32.886 -12.225 -23.267  0.00  0.00    -0.297 N 
ATOM     14  C   UNL     1      33.109 -10.879 -23.207  0.00  0.00    +0.028 C 
ATOM     15  C   UNL     1      32.285 -10.272 -22.290  0.00  0.00    +0.016 C 
ATOM     16  C   UNL     1      31.963 -12.701 -22.477  0.00  0.00    +0.154 C 
ATOM     17  C   UNL     1      34.135 -10.285 -24.077  0.00  0.00    +0.047 C 
BRANCH  15  18
ATOM     18  C   UNL     1      32.182  -8.852 -21.902  0.00  0.00    +0.065 C 
BRANCH  18  19
ATOM     19  C   UNL     1      32.127  -8.642 -20.377  0.00  0.00    +0.142 C 
BRANCH  19  20
ATOM     20  O   UNL     1      33.162  -7.761 -19.960  0.00  0.00    -0.382 OA
ATOM     21  H   UNL     1      33.305  -7.084 -20.641  0.00  0.00    +0.210 HD
ENDBRANCH  19  20
ENDBRANCH  18  19
ENDBRANCH  15  18
ENDBRANCH   1  13
TORSDOF 5
ENDMDL
MODEL 9
REMARK VINA RESULT:      -7.1      1.922      2.767
REMARK  Name = 1130
REMARK  5 active torsions:
REMARK  status: ('A' for Active; 'I' for Inactive)
REMARK    1  A    between atoms: C_1  and  C_5
REMARK    2  A    between atoms: C_1  and  N_13
REMARK    3  A    between atoms: C_15  and  C_18
REMARK    4  A    between atoms: C_18  and  C_19
REMARK    5  A    between atoms: C_19  and  O_20
REMARK                            x       y       z     vdW  Elec       q    Type
REMARK                         _______ _______ _______ _____ _____    ______ ____
ROOT
ATOM      1  C   UNL     1      33.991 -20.135 -21.609  0.00  0.00    +0.124 C 
ENDROOT
BRANCH   1   5
ATOM      2  N   UNL     1      35.024 -21.941 -18.455  0.00  0.00    -0.340 NA
ATOM      3  N   UNL     1      36.874 -20.617 -19.249  0.00  0.00    -0.186 NA
ATOM      4  N   UNL     1      32.968 -21.953 -19.636  0.00  0.00    -0.332 N 
ATOM      5  C   UNL     1      34.791 -20.622 -20.455  0.00  0.00    +0.062 C 
ATOM      6  C   UNL     1      34.303 -21.496 -19.504  0.00  0.00    +0.187 C 
ATOM      7  C   UNL     1      36.096 -20.212 -20.275  0.00  0.00    +0.111 C 
ATOM      8  C   UNL     1      36.284 -21.469 -18.389  0.00  0.00    +0.066 C 
ATOM      9  C   UNL     1      37.114 -21.939 -17.243  0.00  0.00    +0.129 C 
ATOM     10  H   UNL     1      32.594 -22.576 -18.972  0.00  0.00    +0.145 HD
ATOM     11  H   UNL     1      32.415 -21.647 -20.391  0.00  0.00    +0.145 HD
ENDBRANCH   1   5
BRANCH   1  13
ATOM     12  S   UNL     1      34.330 -16.263 -21.293  0.00  0.00    -0.095 S 
ATOM     13  N   UNL     1      34.189 -18.695 -21.792  0.00  0.00    -0.297 N 
ATOM     14  C   UNL     1      34.538 -18.143 -22.991  0.00  0.00    +0.028 C 
ATOM     15  C   UNL     1      34.662 -16.778 -22.901  0.00  0.00    +0.016 C 
ATOM     16  C   UNL     1      34.035 -17.872 -20.791  0.00  0.00    +0.154 C 
ATOM     17  C   UNL     1      34.724 -19.022 -24.156  0.00  0.00    +0.047 C 
BRANCH  15  18
ATOM     18  C   UNL     1      35.018 -15.787 -23.936  0.00  0.00    +0.065 C 
BRANCH  18  19
ATOM     19  C   UNL     1      33.830 -15.393 -24.833  0.00  0.00    +0.142 C 
BRANCH  19  20
ATOM     20  O   UNL     1      33.968 -15.975 -26.123  0.00  0.00    -0.382 OA
ATOM     21  H   UNL     1      34.907 -16.129 -26.309  0.00  0.00    +0.210 HD
ENDBRANCH  19  20
ENDBRANCH  18  19
ENDBRANCH  15  18
ENDBRANCH   1  13
TORSDOF 5
ENDMDL
