MODEL 1
REMARK VINA RESULT:     -11.9      0.000      0.000
REMARK  Name = 3038525
REMARK  3 active torsions:
REMARK  status: ('A' for Active; 'I' for Inactive)
REMARK    1  A    between atoms: C_6  and  C_14
REMARK    2  A    between atoms: C_10  and  S_20
REMARK    3  A    between atoms: S_20  and  C_23
REMARK                            x       y       z     vdW  Elec       q    Type
REMARK                         _______ _______ _______ _____ _____    ______ ____
ROOT
ATOM      1  O   UNL     1      32.389 -14.028 -26.041  0.00  0.00    -0.222 OA
ATOM      2  N   UNL     1      34.621 -16.790 -24.158  0.00  0.00    -0.185 N 
ATOM      3  N   UNL     1      35.384 -17.804 -23.627  0.00  0.00    -0.170 NA
ATOM      4  N   UNL     1      33.501 -16.030 -26.132  0.00  0.00    -0.178 NA
ATOM      5  C   UNL     1      34.225 -15.655 -23.440  0.00  0.00    +0.082 C 
ATOM      6  C   UNL     1      33.472 -14.696 -24.035  0.00  0.00    +0.100 C 
ATOM      7  C   UNL     1      34.664 -15.577 -22.053  0.00  0.00    +0.019 C 
ATOM      8  C   UNL     1      33.074 -14.885 -25.486  0.00  0.00    +0.153 C 
ATOM      9  C   UNL     1      35.407 -16.542 -21.501  0.00  0.00    +0.029 C 
ATOM     10  C   UNL     1      35.739 -17.670 -22.392  0.00  0.00    +0.128 C 
ATOM     11  C   UNL     1      34.215 -16.879 -25.470  0.00  0.00    +0.253 C 
ENDROOT
BRANCH   6  14
ATOM     12 CL   UNL     1      31.864 -15.129 -21.472  0.00  0.00    -0.082 Cl
ATOM     13 CL   UNL     1      34.260 -12.029 -25.303  0.00  0.00    -0.082 Cl
ATOM     14  C   UNL     1      33.030 -13.493 -23.338  0.00  0.00    +0.033 C 
ATOM     15  C   UNL     1      32.288 -13.598 -22.159  0.00  0.00    +0.059 C 
ATOM     16  C   UNL     1      33.345 -12.231 -23.848  0.00  0.00    +0.059 C 
ATOM     17  C   UNL     1      31.864 -12.448 -21.494  0.00  0.00    +0.011 C 
ATOM     18  C   UNL     1      32.920 -11.081 -23.183  0.00  0.00    +0.011 C 
ATOM     19  C   UNL     1      32.180 -11.190 -22.006  0.00  0.00    +0.002 C 
ENDBRANCH   6  14
BRANCH  10  20
ATOM     20  S   UNL     1      36.712 -18.933 -21.658  0.00  0.00    -0.064 S 
BRANCH  20  23
ATOM     21  F   UNL     1      37.068 -21.302 -19.835  0.00  0.00    -0.204 F 
ATOM     22  F   UNL     1      32.494 -21.989 -18.860  0.00  0.00    -0.204 F 
ATOM     23  C   UNL     1      35.447 -19.858 -20.812  0.00  0.00    +0.058 C 
ATOM     24  C   UNL     1      35.787 -20.939 -19.997  0.00  0.00    +0.148 C 
ATOM     25  C   UNL     1      34.106 -19.499 -20.966  0.00  0.00    +0.011 C 
ATOM     26  C   UNL     1      34.790 -21.658 -19.338  0.00  0.00    +0.060 C 
ATOM     27  C   UNL     1      33.110 -20.218 -20.306  0.00  0.00    +0.030 C 
ATOM     28  C   UNL     1      33.452 -21.298 -19.493  0.00  0.00    +0.142 C 
ENDBRANCH  20  23
ENDBRANCH  10  20
TORSDOF 3
ENDMDL
MODEL 2
REMARK VINA RESULT:     -11.9      0.029      1.726
REMARK  Name = 3038525
REMARK  3 active torsions:
REMARK  status: ('A' for Active; 'I' for Inactive)
REMARK    1  A    between atoms: C_6  and  C_14
REMARK    2  A    between atoms: C_10  and  S_20
REMARK    3  A    between atoms: S_20  and  C_23
REMARK                            x       y       z     vdW  Elec       q    Type
REMARK                         _______ _______ _______ _____ _____    ______ ____
ROOT
ATOM      1  O   UNL     1      32.374 -14.025 -26.057  0.00  0.00    -0.222 OA
ATOM      2  N   UNL     1      34.611 -16.780 -24.169  0.00  0.00    -0.185 N 
ATOM      3  N   UNL     1      35.376 -17.792 -23.637  0.00  0.00    -0.170 NA
ATOM      4  N   UNL     1      33.490 -16.025 -26.145  0.00  0.00    -0.178 NA
ATOM      5  C   UNL     1      34.213 -15.645 -23.453  0.00  0.00    +0.082 C 
ATOM      6  C   UNL     1      33.459 -14.688 -24.050  0.00  0.00    +0.100 C 
ATOM      7  C   UNL     1      34.651 -15.564 -22.066  0.00  0.00    +0.019 C 
ATOM      8  C   UNL     1      33.061 -14.880 -25.501  0.00  0.00    +0.153 C 
ATOM      9  C   UNL     1      35.395 -16.527 -21.512  0.00  0.00    +0.029 C 
ATOM     10  C   UNL     1      35.730 -17.656 -22.402  0.00  0.00    +0.128 C 
ATOM     11  C   UNL     1      34.205 -16.872 -25.482  0.00  0.00    +0.253 C 
ENDROOT
BRANCH   6  14
ATOM     12 CL   UNL     1      34.197 -12.023 -25.350  0.00  0.00    -0.082 Cl
ATOM     13 CL   UNL     1      31.893 -15.119 -21.460  0.00  0.00    -0.082 Cl
ATOM     14  C   UNL     1      33.013 -13.484 -23.355  0.00  0.00    +0.033 C 
ATOM     15  C   UNL     1      33.308 -12.223 -23.878  0.00  0.00    +0.059 C 
ATOM     16  C   UNL     1      32.292 -13.589 -22.163  0.00  0.00    +0.059 C 
ATOM     17  C   UNL     1      32.884 -11.073 -23.215  0.00  0.00    +0.011 C 
ATOM     18  C   UNL     1      31.868 -12.438 -21.499  0.00  0.00    +0.011 C 
ATOM     19  C   UNL     1      32.163 -11.180 -22.025  0.00  0.00    +0.002 C 
ENDBRANCH   6  14
BRANCH  10  20
ATOM     20  S   UNL     1      36.705 -18.915 -21.666  0.00  0.00    -0.064 S 
BRANCH  20  23
ATOM     21  F   UNL     1      37.066 -21.264 -19.816  0.00  0.00    -0.204 F 
ATOM     22  F   UNL     1      32.491 -21.974 -18.863  0.00  0.00    -0.204 F 
ATOM     23  C   UNL     1      35.441 -19.841 -20.818  0.00  0.00    +0.058 C 
ATOM     24  C   UNL     1      35.784 -20.911 -19.990  0.00  0.00    +0.148 C 
ATOM     25  C   UNL     1      34.099 -19.494 -20.984  0.00  0.00    +0.011 C 
ATOM     26  C   UNL     1      34.788 -21.632 -19.330  0.00  0.00    +0.060 C 
ATOM     27  C   UNL     1      33.104 -20.213 -20.324  0.00  0.00    +0.030 C 
ATOM     28  C   UNL     1      33.448 -21.283 -19.497  0.00  0.00    +0.142 C 
ENDBRANCH  20  23
ENDBRANCH  10  20
TORSDOF 3
ENDMDL
MODEL 3
REMARK VINA RESULT:     -11.6      5.865      9.420
REMARK  Name = 3038525
REMARK  3 active torsions:
REMARK  status: ('A' for Active; 'I' for Inactive)
REMARK    1  A    between atoms: C_6  and  C_14
REMARK    2  A    between atoms: C_10  and  S_20
REMARK    3  A    between atoms: S_20  and  C_23
REMARK                            x       y       z     vdW  Elec       q    Type
REMARK                         _______ _______ _______ _____ _____    ______ ____
ROOT
ATOM      1  O   UNL     1      31.822 -14.786 -21.635  0.00  0.00    -0.222 OA
ATOM      2  N   UNL     1      32.804 -11.080 -22.841  0.00  0.00    -0.185 N 
ATOM      3  N   UNL     1      33.054  -9.766 -23.162  0.00  0.00    -0.170 NA
ATOM      4  N   UNL     1      31.546 -12.523 -21.404  0.00  0.00    -0.178 NA
ATOM      5  C   UNL     1      33.414 -12.168 -23.476  0.00  0.00    +0.082 C 
ATOM      6  C   UNL     1      33.115 -13.436 -23.101  0.00  0.00    +0.100 C 
ATOM      7  C   UNL     1      34.365 -11.853 -24.534  0.00  0.00    +0.019 C 
ATOM      8  C   UNL     1      32.108 -13.643 -21.985  0.00  0.00    +0.153 C 
ATOM      9  C   UNL     1      34.636 -10.589 -24.876  0.00  0.00    +0.029 C 
ATOM     10  C   UNL     1      33.908  -9.559 -24.110  0.00  0.00    +0.128 C 
ATOM     11  C   UNL     1      31.903 -11.360 -21.838  0.00  0.00    +0.253 C 
ENDROOT
BRANCH   6  14
ATOM     12 CL   UNL     1      35.047 -15.050 -21.368  0.00  0.00    -0.082 Cl
ATOM     13 CL   UNL     1      32.302 -14.001 -25.993  0.00  0.00    -0.082 Cl
ATOM     14  C   UNL     1      33.718 -14.609 -23.726  0.00  0.00    +0.033 C 
ATOM     15  C   UNL     1      34.614 -15.404 -23.006  0.00  0.00    +0.059 C 
ATOM     16  C   UNL     1      33.403 -14.941 -25.046  0.00  0.00    +0.059 C 
ATOM     17  C   UNL     1      35.191 -16.524 -23.603  0.00  0.00    +0.011 C 
ATOM     18  C   UNL     1      33.981 -16.061 -25.642  0.00  0.00    +0.011 C 
ATOM     19  C   UNL     1      34.875 -16.853 -24.921  0.00  0.00    +0.002 C 
ENDBRANCH   6  14
BRANCH  10  20
ATOM     20  S   UNL     1      34.269  -7.904 -24.566  0.00  0.00    -0.064 S 
BRANCH  20  23
ATOM     21  F   UNL     1      34.057  -7.414 -21.602  0.00  0.00    -0.204 F 
ATOM     22  F   UNL     1      29.968  -5.045 -21.687  0.00  0.00    -0.204 F 
ATOM     23  C   UNL     1      32.977  -7.044 -23.691  0.00  0.00    +0.058 C 
ATOM     24  C   UNL     1      33.034  -6.905 -22.304  0.00  0.00    +0.148 C 
ATOM     25  C   UNL     1      31.901  -6.506 -24.401  0.00  0.00    +0.011 C 
ATOM     26  C   UNL     1      32.017  -6.230 -21.627  0.00  0.00    +0.060 C 
ATOM     27  C   UNL     1      30.886  -5.830 -23.724  0.00  0.00    +0.030 C 
ATOM     28  C   UNL     1      30.944  -5.693 -22.337  0.00  0.00    +0.142 C 
ENDBRANCH  20  23
ENDBRANCH  10  20
TORSDOF 3
ENDMDL
MODEL 4
REMARK VINA RESULT:     -10.3      4.588      6.776
REMARK  Name = 3038525
REMARK  3 active torsions:
REMARK  status: ('A' for Active; 'I' for Inactive)
REMARK    1  A    between atoms: C_6  and  C_14
REMARK    2  A    between atoms: C_10  and  S_20
REMARK    3  A    between atoms: S_20  and  C_23
REMARK                            x       y       z     vdW  Elec       q    Type
REMARK                         _______ _______ _______ _____ _____    ______ ____
ROOT
ATOM      1  O   UNL     1      34.305  -6.940 -24.388  0.00  0.00    -0.222 OA
ATOM      2  N   UNL     1      33.536 -10.719 -23.254  0.00  0.00    -0.185 N 
ATOM      3  N   UNL     1      33.376 -12.049 -22.942  0.00  0.00    -0.170 NA
ATOM      4  N   UNL     1      34.864  -9.159 -24.494  0.00  0.00    -0.178 NA
ATOM      5  C   UNL     1      32.710  -9.699 -22.768  0.00  0.00    +0.082 C 
ATOM      6  C   UNL     1      32.933  -8.408 -23.122  0.00  0.00    +0.100 C 
ATOM      7  C   UNL     1      31.628 -10.106 -21.881  0.00  0.00    +0.019 C 
ATOM      8  C   UNL     1      34.091  -8.103 -24.053  0.00  0.00    +0.153 C 
ATOM      9  C   UNL     1      31.440 -11.388 -21.553  0.00  0.00    +0.029 C 
ATOM     10  C   UNL     1      32.397 -12.339 -22.150  0.00  0.00    +0.128 C 
ATOM     11  C   UNL     1      34.564 -10.350 -24.093  0.00  0.00    +0.253 C 
ENDROOT
BRANCH   6  14
ATOM     12 CL   UNL     1      30.868  -7.317 -25.093  0.00  0.00    -0.082 Cl
ATOM     13 CL   UNL     1      33.462  -7.449 -20.269  0.00  0.00    -0.082 Cl
ATOM     14  C   UNL     1      32.106  -7.304 -22.647  0.00  0.00    +0.033 C 
ATOM     15  C   UNL     1      31.137  -6.743 -23.482  0.00  0.00    +0.059 C 
ATOM     16  C   UNL     1      32.281  -6.802 -21.355  0.00  0.00    +0.059 C 
ATOM     17  C   UNL     1      30.348  -5.687 -23.029  0.00  0.00    +0.011 C 
ATOM     18  C   UNL     1      31.492  -5.745 -20.902  0.00  0.00    +0.011 C 
ATOM     19  C   UNL     1      30.525  -5.188 -21.739  0.00  0.00    +0.002 C 
ENDBRANCH   6  14
BRANCH  10  20
ATOM     20  S   UNL     1      32.141 -14.019 -21.716  0.00  0.00    -0.064 S 
BRANCH  20  23
ATOM     21  F   UNL     1      34.534 -15.800 -21.300  0.00  0.00    -0.204 F 
ATOM     22  F   UNL     1      35.415 -16.679 -25.860  0.00  0.00    -0.204 F 
ATOM     23  C   UNL     1      33.132 -14.824 -22.958  0.00  0.00    +0.058 C 
ATOM     24  C   UNL     1      34.216 -15.622 -22.590  0.00  0.00    +0.148 C 
ATOM     25  C   UNL     1      32.821 -14.653 -24.309  0.00  0.00    +0.011 C 
ATOM     26  C   UNL     1      34.988 -16.249 -23.570  0.00  0.00    +0.060 C 
ATOM     27  C   UNL     1      33.592 -15.280 -25.288  0.00  0.00    +0.030 C 
ATOM     28  C   UNL     1      34.675 -16.077 -24.919  0.00  0.00    +0.142 C 
ENDBRANCH  20  23
ENDBRANCH  10  20
TORSDOF 3
ENDMDL
MODEL 5
REMARK VINA RESULT:     -10.3      4.587      6.682
REMARK  Name = 3038525
REMARK  3 active torsions:
REMARK  status: ('A' for Active; 'I' for Inactive)
REMARK    1  A    between atoms: C_6  and  C_14
REMARK    2  A    between atoms: C_10  and  S_20
REMARK    3  A    between atoms: S_20  and  C_23
REMARK                            x       y       z     vdW  Elec       q    Type
REMARK                         _______ _______ _______ _____ _____    ______ ____
ROOT
ATOM      1  O   UNL     1      34.335  -6.944 -24.382  0.00  0.00    -0.222 OA
ATOM      2  N   UNL     1      33.547 -10.722 -23.260  0.00  0.00    -0.185 N 
ATOM      3  N   UNL     1      33.381 -12.052 -22.951  0.00  0.00    -0.170 NA
ATOM      4  N   UNL     1      34.887  -9.165 -24.490  0.00  0.00    -0.178 NA
ATOM      5  C   UNL     1      32.721  -9.700 -22.776  0.00  0.00    +0.082 C 
ATOM      6  C   UNL     1      32.951  -8.410 -23.126  0.00  0.00    +0.100 C 
ATOM      7  C   UNL     1      31.634 -10.106 -21.896  0.00  0.00    +0.019 C 
ATOM      8  C   UNL     1      34.115  -8.106 -24.051  0.00  0.00    +0.153 C 
ATOM      9  C   UNL     1      31.440 -11.388 -21.571  0.00  0.00    +0.029 C 
ATOM     10  C   UNL     1      32.397 -12.341 -22.165  0.00  0.00    +0.128 C 
ATOM     11  C   UNL     1      34.580 -10.356 -24.093  0.00  0.00    +0.253 C 
ENDROOT
BRANCH   6  14
ATOM     12 CL   UNL     1      33.452  -7.475 -20.260  0.00  0.00    -0.082 Cl
ATOM     13 CL   UNL     1      30.918  -7.290 -25.115  0.00  0.00    -0.082 Cl
ATOM     14  C   UNL     1      32.125  -7.303 -22.654  0.00  0.00    +0.033 C 
ATOM     15  C   UNL     1      32.287  -6.813 -21.356  0.00  0.00    +0.059 C 
ATOM     16  C   UNL     1      31.170  -6.731 -23.497  0.00  0.00    +0.059 C 
ATOM     17  C   UNL     1      31.498  -5.756 -20.904  0.00  0.00    +0.011 C 
ATOM     18  C   UNL     1      30.380  -5.675 -23.044  0.00  0.00    +0.011 C 
ATOM     19  C   UNL     1      30.545  -5.187 -21.748  0.00  0.00    +0.002 C 
ENDBRANCH   6  14
BRANCH  10  20
ATOM     20  S   UNL     1      32.133 -14.021 -21.735  0.00  0.00    -0.064 S 
BRANCH  20  23
ATOM     21  F   UNL     1      34.525 -15.802 -21.316  0.00  0.00    -0.204 F 
ATOM     22  F   UNL     1      35.409 -16.684 -25.875  0.00  0.00    -0.204 F 
ATOM     23  C   UNL     1      33.124 -14.827 -22.976  0.00  0.00    +0.058 C 
ATOM     24  C   UNL     1      34.208 -15.625 -22.608  0.00  0.00    +0.148 C 
ATOM     25  C   UNL     1      32.814 -14.657 -24.328  0.00  0.00    +0.011 C 
ATOM     26  C   UNL     1      34.979 -16.252 -23.586  0.00  0.00    +0.060 C 
ATOM     27  C   UNL     1      33.585 -15.285 -25.306  0.00  0.00    +0.030 C 
ATOM     28  C   UNL     1      34.668 -16.082 -24.935  0.00  0.00    +0.142 C 
ENDBRANCH  20  23
ENDBRANCH  10  20
TORSDOF 3
ENDMDL
MODEL 6
REMARK VINA RESULT:     -10.2      3.824      5.810
REMARK  Name = 3038525
REMARK  3 active torsions:
REMARK  status: ('A' for Active; 'I' for Inactive)
REMARK    1  A    between atoms: C_6  and  C_14
REMARK    2  A    between atoms: C_10  and  S_20
REMARK    3  A    between atoms: S_20  and  C_23
REMARK                            x       y       z     vdW  Elec       q    Type
REMARK                         _______ _______ _______ _____ _____    ______ ____
ROOT
ATOM      1  O   UNL     1      31.796  -8.866 -21.070  0.00  0.00    -0.222 OA
ATOM      2  N   UNL     1      32.479 -12.293 -23.056  0.00  0.00    -0.185 N 
ATOM      3  N   UNL     1      32.666 -13.530 -23.628  0.00  0.00    -0.170 NA
ATOM      4  N   UNL     1      31.711 -11.156 -21.094  0.00  0.00    -0.178 NA
ATOM      5  C   UNL     1      32.790 -11.085 -23.691  0.00  0.00    +0.082 C 
ATOM      6  C   UNL     1      32.575  -9.904 -23.060  0.00  0.00    +0.100 C 
ATOM      7  C   UNL     1      33.343 -11.181 -25.035  0.00  0.00    +0.019 C 
ATOM      8  C   UNL     1      31.994  -9.927 -21.658  0.00  0.00    +0.153 C 
ATOM      9  C   UNL     1      33.540 -12.364 -25.626  0.00  0.00    +0.029 C 
ATOM     10  C   UNL     1      33.160 -13.541 -24.822  0.00  0.00    +0.128 C 
ATOM     11  C   UNL     1      31.955 -12.220 -21.785  0.00  0.00    +0.253 C 
ENDROOT
BRANCH   6  14
ATOM     12 CL   UNL     1      35.509  -9.385 -23.739  0.00  0.00    -0.082 Cl
ATOM     13 CL   UNL     1      30.205  -8.028 -23.515  0.00  0.00    -0.082 Cl
ATOM     14  C   UNL     1      32.879  -8.614 -23.670  0.00  0.00    +0.033 C 
ATOM     15  C   UNL     1      34.194  -8.292 -24.012  0.00  0.00    +0.059 C 
ATOM     16  C   UNL     1      31.855  -7.695 -23.914  0.00  0.00    +0.059 C 
ATOM     17  C   UNL     1      34.485  -7.060 -24.595  0.00  0.00    +0.011 C 
ATOM     18  C   UNL     1      32.147  -6.461 -24.496  0.00  0.00    +0.011 C 
ATOM     19  C   UNL     1      33.462  -6.144 -24.837  0.00  0.00    +0.002 C 
ENDBRANCH   6  14
BRANCH  10  20
ATOM     20  S   UNL     1      33.424 -15.089 -25.605  0.00  0.00    -0.064 S 
BRANCH  20  23
ATOM     21  F   UNL     1      34.454 -17.919 -25.648  0.00  0.00    -0.204 F 
ATOM     22  F   UNL     1      35.964 -18.065 -21.171  0.00  0.00    -0.204 F 
ATOM     23  C   UNL     1      34.190 -15.992 -24.274  0.00  0.00    +0.058 C 
ATOM     24  C   UNL     1      34.614 -17.308 -24.464  0.00  0.00    +0.148 C 
ATOM     25  C   UNL     1      34.367 -15.378 -23.032  0.00  0.00    +0.011 C 
ATOM     26  C   UNL     1      35.213 -18.008 -23.416  0.00  0.00    +0.060 C 
ATOM     27  C   UNL     1      34.966 -16.077 -21.986  0.00  0.00    +0.030 C 
ATOM     28  C   UNL     1      35.389 -17.393 -22.177  0.00  0.00    +0.142 C 
ENDBRANCH  20  23
ENDBRANCH  10  20
TORSDOF 3
ENDMDL
MODEL 7
REMARK VINA RESULT:     -10.2      3.822      5.721
REMARK  Name = 3038525
REMARK  3 active torsions:
REMARK  status: ('A' for Active; 'I' for Inactive)
REMARK    1  A    between atoms: C_6  and  C_14
REMARK    2  A    between atoms: C_10  and  S_20
REMARK    3  A    between atoms: S_20  and  C_23
REMARK                            x       y       z     vdW  Elec       q    Type
REMARK                         _______ _______ _______ _____ _____    ______ ____
ROOT
ATOM      1  O   UNL     1      31.782  -8.874 -21.054  0.00  0.00    -0.222 OA
ATOM      2  N   UNL     1      32.487 -12.296 -23.042  0.00  0.00    -0.185 N 
ATOM      3  N   UNL     1      32.684 -13.531 -23.614  0.00  0.00    -0.170 NA
ATOM      4  N   UNL     1      31.715 -11.164 -21.078  0.00  0.00    -0.178 NA
ATOM      5  C   UNL     1      32.788 -11.085 -23.678  0.00  0.00    +0.082 C 
ATOM      6  C   UNL     1      32.565  -9.906 -23.046  0.00  0.00    +0.100 C 
ATOM      7  C   UNL     1      33.338 -11.177 -25.023  0.00  0.00    +0.019 C 
ATOM      8  C   UNL     1      31.987  -9.933 -21.643  0.00  0.00    +0.153 C 
ATOM      9  C   UNL     1      33.543 -12.359 -25.614  0.00  0.00    +0.029 C 
ATOM     10  C   UNL     1      33.175 -13.539 -24.809  0.00  0.00    +0.128 C 
ATOM     11  C   UNL     1      31.966 -12.227 -21.769  0.00  0.00    +0.253 C 
ENDROOT
BRANCH   6  14
ATOM     12 CL   UNL     1      30.181  -8.042 -23.480  0.00  0.00    -0.082 Cl
ATOM     13 CL   UNL     1      35.491  -9.370 -23.746  0.00  0.00    -0.082 Cl
ATOM     14  C   UNL     1      32.857  -8.613 -23.658  0.00  0.00    +0.033 C 
ATOM     15  C   UNL     1      31.827  -7.700 -23.894  0.00  0.00    +0.059 C 
ATOM     16  C   UNL     1      34.169  -8.285 -24.010  0.00  0.00    +0.059 C 
ATOM     17  C   UNL     1      32.106  -6.466 -24.478  0.00  0.00    +0.011 C 
ATOM     18  C   UNL     1      34.448  -7.051 -24.596  0.00  0.00    +0.011 C 
ATOM     19  C   UNL     1      33.416  -6.141 -24.829  0.00  0.00    +0.002 C 
ENDBRANCH   6  14
BRANCH  10  20
ATOM     20  S   UNL     1      33.449 -15.085 -25.592  0.00  0.00    -0.064 S 
BRANCH  20  23
ATOM     21  F   UNL     1      34.454 -17.923 -25.621  0.00  0.00    -0.204 F 
ATOM     22  F   UNL     1      35.934 -18.070 -21.134  0.00  0.00    -0.204 F 
ATOM     23  C   UNL     1      34.199 -15.991 -24.254  0.00  0.00    +0.058 C 
ATOM     24  C   UNL     1      34.612 -17.311 -24.438  0.00  0.00    +0.148 C 
ATOM     25  C   UNL     1      34.373 -15.375 -23.013  0.00  0.00    +0.011 C 
ATOM     26  C   UNL     1      35.198 -18.013 -23.384  0.00  0.00    +0.060 C 
ATOM     27  C   UNL     1      34.959 -16.076 -21.960  0.00  0.00    +0.030 C 
ATOM     28  C   UNL     1      35.371 -17.396 -22.146  0.00  0.00    +0.142 C 
ENDBRANCH  20  23
ENDBRANCH  10  20
TORSDOF 3
ENDMDL
MODEL 8
REMARK VINA RESULT:      -9.9      8.581     12.299
REMARK  Name = 3038525
REMARK  3 active torsions:
REMARK  status: ('A' for Active; 'I' for Inactive)
REMARK    1  A    between atoms: C_6  and  C_14
REMARK    2  A    between atoms: C_10  and  S_20
REMARK    3  A    between atoms: S_20  and  C_23
REMARK                            x       y       z     vdW  Elec       q    Type
REMARK                         _______ _______ _______ _____ _____    ______ ____
ROOT
ATOM      1  O   UNL     1      32.763  -9.721 -19.497  0.00  0.00    -0.222 OA
ATOM      2  N   UNL     1      31.767  -6.633 -21.870  0.00  0.00    -0.185 N 
ATOM      3  N   UNL     1      31.432  -5.500 -22.574  0.00  0.00    -0.170 NA
ATOM      4  N   UNL     1      32.330  -7.480 -19.703  0.00  0.00    -0.178 NA
ATOM      5  C   UNL     1      31.882  -7.904 -22.447  0.00  0.00    +0.082 C 
ATOM      6  C   UNL     1      32.217  -8.975 -21.685  0.00  0.00    +0.100 C 
ATOM      7  C   UNL     1      31.625  -7.993 -23.878  0.00  0.00    +0.019 C 
ATOM      8  C   UNL     1      32.462  -8.762 -20.203  0.00  0.00    +0.153 C 
ATOM      9  C   UNL     1      31.297  -6.914 -24.597  0.00  0.00    +0.029 C 
ATOM     10  C   UNL     1      31.218  -5.652 -23.839  0.00  0.00    +0.128 C 
ATOM     11  C   UNL     1      32.007  -6.532 -20.518  0.00  0.00    +0.253 C 
ENDROOT
BRANCH   6  14
ATOM     12 CL   UNL     1      30.228 -11.056 -20.659  0.00  0.00    -0.082 Cl
ATOM     13 CL   UNL     1      34.456  -9.394 -23.724  0.00  0.00    -0.082 Cl
ATOM     14  C   UNL     1      32.352 -10.322 -22.230  0.00  0.00    +0.033 C 
ATOM     15  C   UNL     1      31.485 -11.336 -21.816  0.00  0.00    +0.059 C 
ATOM     16  C   UNL     1      33.349 -10.603 -23.168  0.00  0.00    +0.059 C 
ATOM     17  C   UNL     1      31.614 -12.623 -22.336  0.00  0.00    +0.011 C 
ATOM     18  C   UNL     1      33.478 -11.891 -23.687  0.00  0.00    +0.011 C 
ATOM     19  C   UNL     1      32.610 -12.901 -23.271  0.00  0.00    +0.002 C 
ENDBRANCH   6  14
BRANCH  10  20
ATOM     20  S   UNL     1      30.786  -4.242 -24.790  0.00  0.00    -0.064 S 
BRANCH  20  23
ATOM     21  F   UNL     1      31.023  -2.580 -27.290  0.00  0.00    -0.204 F 
ATOM     22  F   UNL     1      35.211  -4.247 -28.711  0.00  0.00    -0.204 F 
ATOM     23  C   UNL     1      32.115  -4.237 -25.975  0.00  0.00    +0.058 C 
ATOM     24  C   UNL     1      32.066  -3.398 -27.089  0.00  0.00    +0.148 C 
ATOM     25  C   UNL     1      33.212  -5.081 -25.788  0.00  0.00    +0.011 C 
ATOM     26  C   UNL     1      33.112  -3.401 -28.013  0.00  0.00    +0.060 C 
ATOM     27  C   UNL     1      34.257  -5.083 -26.711  0.00  0.00    +0.030 C 
ATOM     28  C   UNL     1      34.207  -4.244 -27.824  0.00  0.00    +0.142 C 
ENDBRANCH  20  23
ENDBRANCH  10  20
TORSDOF 3
ENDMDL
MODEL 9
REMARK VINA RESULT:      -9.7      9.638     13.505
REMARK  Name = 3038525
REMARK  3 active torsions:
REMARK  status: ('A' for Active; 'I' for Inactive)
REMARK    1  A    between atoms: C_6  and  C_14
REMARK    2  A    between atoms: C_10  and  S_20
REMARK    3  A    between atoms: S_20  and  C_23
REMARK                            x       y       z     vdW  Elec       q    Type
REMARK                         _______ _______ _______ _____ _____    ______ ____
ROOT
ATOM      1  O   UNL     1      32.772  -8.458 -20.413  0.00  0.00    -0.222 OA
ATOM      2  N   UNL     1      31.442  -5.373 -22.620  0.00  0.00    -0.185 N 
ATOM      3  N   UNL     1      30.948  -4.261 -23.261  0.00  0.00    -0.170 NA
ATOM      4  N   UNL     1      31.763  -6.402 -20.482  0.00  0.00    -0.178 NA
ATOM      5  C   UNL     1      32.036  -6.455 -23.281  0.00  0.00    +0.082 C 
ATOM      6  C   UNL     1      32.501  -7.517 -22.577  0.00  0.00    +0.100 C 
ATOM      7  C   UNL     1      32.119  -6.363 -24.733  0.00  0.00    +0.019 C 
ATOM      8  C   UNL     1      32.360  -7.503 -21.067  0.00  0.00    +0.153 C 
ATOM      9  C   UNL     1      31.650  -5.299 -25.392  0.00  0.00    +0.029 C 
ATOM     10  C   UNL     1      31.055  -4.246 -24.549  0.00  0.00    +0.128 C 
ATOM     11  C   UNL     1      31.357  -5.444 -21.247  0.00  0.00    +0.253 C 
ENDROOT
BRANCH   6  14
ATOM     12 CL   UNL     1      30.878 -10.107 -22.581  0.00  0.00    -0.082 Cl
ATOM     13 CL   UNL     1      35.288  -7.072 -23.749  0.00  0.00    -0.082 Cl
ATOM     14  C   UNL     1      33.128  -8.673 -23.211  0.00  0.00    +0.033 C 
ATOM     15  C   UNL     1      32.458  -9.897 -23.257  0.00  0.00    +0.059 C 
ATOM     16  C   UNL     1      34.403  -8.558 -23.772  0.00  0.00    +0.059 C 
ATOM     17  C   UNL     1      33.058 -11.001 -23.861  0.00  0.00    +0.011 C 
ATOM     18  C   UNL     1      35.003  -9.663 -24.376  0.00  0.00    +0.011 C 
ATOM     19  C   UNL     1      34.330 -10.884 -24.421  0.00  0.00    +0.002 C 
ENDBRANCH   6  14
BRANCH  10  20
ATOM     20  S   UNL     1      30.441  -2.854 -25.423  0.00  0.00    -0.064 S 
BRANCH  20  23
ATOM     21  F   UNL     1      33.201  -1.786 -24.868  0.00  0.00    -0.204 F 
ATOM     22  F   UNL     1      34.824  -2.013 -29.302  0.00  0.00    -0.204 F 
ATOM     23  C   UNL     1      31.766  -2.598 -26.585  0.00  0.00    +0.058 C 
ATOM     24  C   UNL     1      32.994  -2.091 -26.157  0.00  0.00    +0.148 C 
ATOM     25  C   UNL     1      31.574  -2.907 -27.934  0.00  0.00    +0.011 C 
ATOM     26  C   UNL     1      34.027  -1.893 -27.075  0.00  0.00    +0.060 C 
ATOM     27  C   UNL     1      32.607  -2.710 -28.850  0.00  0.00    +0.030 C 
ATOM     28  C   UNL     1      33.833  -2.202 -28.421  0.00  0.00    +0.142 C 
ENDBRANCH  20  23
ENDBRANCH  10  20
TORSDOF 3
ENDMDL
