MODEL 1
REMARK VINA RESULT:     -12.7      0.000      0.000
REMARK  Name = 216239
REMARK  6 active torsions:
REMARK  status: ('A' for Active; 'I' for Inactive)
REMARK    1  A    between atoms: C_1  and  N_9
REMARK    2  A    between atoms: C_2  and  O_24
REMARK    3  A    between atoms: N_8  and  C_14
REMARK    4  A    between atoms: C_15  and  C_23
REMARK    5  A    between atoms: O_24  and  C_26
REMARK    6  A    between atoms: C_28  and  C_33
REMARK                            x       y       z     vdW  Elec       q    Type
REMARK                         _______ _______ _______ _____ _____    ______ ____
ROOT
ATOM      1  C   UNL     1      34.973 -21.857 -18.731  0.00  0.00    +0.052 C 
ATOM      2  C   UNL     1      34.190 -23.395 -16.564  0.00  0.00    +0.145 C 
ATOM      3  C   UNL     1      35.815 -21.965 -17.638  0.00  0.00    +0.018 C 
ATOM      4  C   UNL     1      33.747 -22.501 -18.766  0.00  0.00    +0.018 C 
ATOM      5  C   UNL     1      35.421 -22.740 -16.546  0.00  0.00    +0.039 C 
ATOM      6  C   UNL     1      33.352 -23.275 -17.674  0.00  0.00    +0.039 C 
ENDROOT
BRANCH   1   9
ATOM      7  O   UNL     1      33.409 -19.930 -20.392  0.00  0.00    -0.252 OA
ATOM      8  N   UNL     1      35.381 -19.592 -21.611  0.00  0.00    -0.268 N 
ATOM      9  N   UNL     1      35.374 -21.072 -19.837  0.00  0.00    -0.268 N 
ATOM     10  C   UNL     1      34.595 -20.175 -20.588  0.00  0.00    +0.308 C 
ATOM     11  H   UNL     1      36.320 -19.886 -21.649  0.00  0.00    +0.156 HD
ATOM     12  H   UNL     1      36.313 -21.164 -20.116  0.00  0.00    +0.156 HD
BRANCH   8  14
ATOM     13 CL   UNL     1      33.783 -15.661 -25.726  0.00  0.00    -0.082 Cl
ATOM     14  C   UNL     1      35.002 -18.657 -22.575  0.00  0.00    +0.052 C 
ATOM     15  C   UNL     1      34.359 -16.405 -23.168  0.00  0.00    +0.083 C 
ATOM     16  C   UNL     1      34.736 -17.339 -22.204  0.00  0.00    +0.019 C 
ATOM     17  C   UNL     1      34.889 -19.041 -23.912  0.00  0.00    +0.016 C 
ATOM     18  C   UNL     1      34.245 -16.789 -24.504  0.00  0.00    +0.062 C 
ATOM     19  C   UNL     1      34.511 -18.107 -24.876  0.00  0.00    +0.013 C 
BRANCH  15  23
ATOM     20  F   UNL     1      34.674 -14.060 -23.521  0.00  0.00    -0.166 F 
ATOM     21  F   UNL     1      32.758 -14.685 -22.717  0.00  0.00    -0.166 F 
ATOM     22  F   UNL     1      34.535 -14.754 -21.465  0.00  0.00    -0.166 F 
ATOM     23  C   UNL     1      34.085 -15.002 -22.729  0.00  0.00    +0.419 C 
ENDBRANCH  15  23
ENDBRANCH   8  14
ENDBRANCH   1   9
BRANCH   2  24
ATOM     24  O   UNL     1      33.804 -24.149 -15.499  0.00  0.00    -0.453 OA
BRANCH  24  26
ATOM     25  N   UNL     1      36.681 -25.073 -12.646  0.00  0.00    -0.239 NA
ATOM     26  C   UNL     1      34.762 -24.458 -14.549  0.00  0.00    +0.149 C 
ATOM     27  C   UNL     1      35.895 -25.143 -14.932  0.00  0.00    +0.061 C 
ATOM     28  C   UNL     1      36.824 -25.426 -13.944  0.00  0.00    +0.137 C 
ATOM     29  C   UNL     1      34.562 -24.071 -13.240  0.00  0.00    +0.058 C 
ATOM     30  C   UNL     1      35.551 -24.404 -12.328  0.00  0.00    +0.102 C 
BRANCH  28  33
ATOM     31  O   UNL     1      37.994 -27.299 -14.733  0.00  0.00    -0.268 OA
ATOM     32  N   UNL     1      39.255 -25.472 -14.061  0.00  0.00    -0.298 N 
ATOM     33  C   UNL     1      38.044 -26.145 -14.270  0.00  0.00    +0.264 C 
ATOM     34  C   UNL     1      40.549 -26.045 -14.358  0.00  0.00    +0.111 C 
ATOM     35  H   UNL     1      39.223 -24.560 -13.691  0.00  0.00    +0.150 HD
ENDBRANCH  28  33
ENDBRANCH  24  26
ENDBRANCH   2  24
TORSDOF 6
ENDMDL
MODEL 2
REMARK VINA RESULT:     -12.3      2.868      4.631
REMARK  Name = 216239
REMARK  6 active torsions:
REMARK  status: ('A' for Active; 'I' for Inactive)
REMARK    1  A    between atoms: C_1  and  N_9
REMARK    2  A    between atoms: C_2  and  O_24
REMARK    3  A    between atoms: N_8  and  C_14
REMARK    4  A    between atoms: C_15  and  C_23
REMARK    5  A    between atoms: O_24  and  C_26
REMARK    6  A    between atoms: C_28  and  C_33
REMARK                            x       y       z     vdW  Elec       q    Type
REMARK                         _______ _______ _______ _____ _____    ______ ____
ROOT
ATOM      1  C   UNL     1      35.166 -21.607 -19.192  0.00  0.00    +0.052 C 
ATOM      2  C   UNL     1      34.538 -23.170 -16.993  0.00  0.00    +0.145 C 
ATOM      3  C   UNL     1      33.980 -22.322 -19.186  0.00  0.00    +0.018 C 
ATOM      4  C   UNL     1      36.045 -21.657 -18.123  0.00  0.00    +0.018 C 
ATOM      5  C   UNL     1      33.664 -23.109 -18.078  0.00  0.00    +0.039 C 
ATOM      6  C   UNL     1      35.729 -22.445 -17.016  0.00  0.00    +0.039 C 
ENDROOT
BRANCH   1   9
ATOM      7  O   UNL     1      33.511 -19.606 -20.668  0.00  0.00    -0.252 OA
ATOM      8  N   UNL     1      35.373 -19.293 -22.055  0.00  0.00    -0.268 N 
ATOM      9  N   UNL     1      35.486 -20.809 -20.315  0.00  0.00    -0.268 N 
ATOM     10  C   UNL     1      34.667 -19.877 -20.975  0.00  0.00    +0.308 C 
ATOM     11  H   UNL     1      36.296 -19.609 -22.183  0.00  0.00    +0.156 HD
ATOM     12  H   UNL     1      36.393 -20.919 -20.680  0.00  0.00    +0.156 HD
BRANCH   8  14
ATOM     13 CL   UNL     1      33.520 -15.236 -25.933  0.00  0.00    -0.082 Cl
ATOM     14  C   UNL     1      34.934 -18.328 -22.962  0.00  0.00    +0.052 C 
ATOM     15  C   UNL     1      34.229 -16.067 -23.436  0.00  0.00    +0.083 C 
ATOM     16  C   UNL     1      34.666 -17.031 -22.528  0.00  0.00    +0.019 C 
ATOM     17  C   UNL     1      34.763 -18.663 -24.306  0.00  0.00    +0.016 C 
ATOM     18  C   UNL     1      34.057 -16.401 -24.780  0.00  0.00    +0.062 C 
ATOM     19  C   UNL     1      34.326 -17.699 -25.214  0.00  0.00    +0.013 C 
BRANCH  15  23
ATOM     20  F   UNL     1      32.625 -14.389 -22.857  0.00  0.00    -0.166 F 
ATOM     21  F   UNL     1      34.445 -14.459 -21.678  0.00  0.00    -0.166 F 
ATOM     22  F   UNL     1      34.505 -13.723 -23.723  0.00  0.00    -0.166 F 
ATOM     23  C   UNL     1      33.955 -14.687 -22.931  0.00  0.00    +0.419 C 
ENDBRANCH  15  23
ENDBRANCH   8  14
ENDBRANCH   1   9
BRANCH   2  24
ATOM     24  O   UNL     1      34.230 -23.940 -15.914  0.00  0.00    -0.453 OA
BRANCH  24  26
ATOM     25  N   UNL     1      30.647 -23.174 -13.952  0.00  0.00    -0.239 NA
ATOM     26  C   UNL     1      33.036 -23.684 -15.261  0.00  0.00    +0.149 C 
ATOM     27  C   UNL     1      31.932 -23.309 -15.996  0.00  0.00    +0.061 C 
ATOM     28  C   UNL     1      30.762 -23.066 -15.295  0.00  0.00    +0.137 C 
ATOM     29  C   UNL     1      32.979 -23.811 -13.889  0.00  0.00    +0.058 C 
ATOM     30  C   UNL     1      31.761 -23.545 -13.282  0.00  0.00    +0.102 C 
BRANCH  28  33
ATOM     31  O   UNL     1      29.588 -22.417 -17.219  0.00  0.00    -0.268 OA
ATOM     32  N   UNL     1      28.374 -22.602 -15.252  0.00  0.00    -0.298 N 
ATOM     33  C   UNL     1      29.556 -22.666 -16.000  0.00  0.00    +0.264 C 
ATOM     34  C   UNL     1      27.091 -22.244 -15.815  0.00  0.00    +0.111 C 
ATOM     35  H   UNL     1      28.418 -22.811 -14.291  0.00  0.00    +0.150 HD
ENDBRANCH  28  33
ENDBRANCH  24  26
ENDBRANCH   2  24
TORSDOF 6
ENDMDL
MODEL 3
REMARK VINA RESULT:     -12.1      3.379      5.173
REMARK  Name = 216239
REMARK  6 active torsions:
REMARK  status: ('A' for Active; 'I' for Inactive)
REMARK    1  A    between atoms: C_1  and  N_9
REMARK    2  A    between atoms: C_2  and  O_24
REMARK    3  A    between atoms: N_8  and  C_14
REMARK    4  A    between atoms: C_15  and  C_23
REMARK    5  A    between atoms: O_24  and  C_26
REMARK    6  A    between atoms: C_28  and  C_33
REMARK                            x       y       z     vdW  Elec       q    Type
REMARK                         _______ _______ _______ _____ _____    ______ ____
ROOT
ATOM      1  C   UNL     1      34.938 -20.251 -20.445  0.00  0.00    +0.052 C 
ATOM      2  C   UNL     1      34.374 -22.455 -18.864  0.00  0.00    +0.145 C 
ATOM      3  C   UNL     1      33.629 -20.686 -20.332  0.00  0.00    +0.018 C 
ATOM      4  C   UNL     1      35.973 -20.894 -19.785  0.00  0.00    +0.018 C 
ATOM      5  C   UNL     1      33.345 -21.796 -19.536  0.00  0.00    +0.039 C 
ATOM      6  C   UNL     1      35.689 -22.005 -18.990  0.00  0.00    +0.039 C 
ENDROOT
BRANCH   1   9
ATOM      7  O   UNL     1      33.258 -17.871 -21.101  0.00  0.00    -0.252 OA
ATOM      8  N   UNL     1      35.067 -17.118 -22.384  0.00  0.00    -0.268 N 
ATOM      9  N   UNL     1      35.226 -19.126 -21.253  0.00  0.00    -0.268 N 
ATOM     10  C   UNL     1      34.396 -18.027 -21.530  0.00  0.00    +0.308 C 
ATOM     11  H   UNL     1      35.980 -17.376 -22.650  0.00  0.00    +0.156 HD
ATOM     12  H   UNL     1      36.116 -19.111 -21.672  0.00  0.00    +0.156 HD
BRANCH   8  14
ATOM     13 CL   UNL     1      33.127 -11.964 -24.531  0.00  0.00    -0.082 Cl
ATOM     14  C   UNL     1      34.608 -15.906 -22.900  0.00  0.00    +0.052 C 
ATOM     15  C   UNL     1      33.656 -14.631 -24.718  0.00  0.00    +0.083 C 
ATOM     16  C   UNL     1      34.116 -15.843 -24.203  0.00  0.00    +0.019 C 
ATOM     17  C   UNL     1      34.641 -14.756 -22.111  0.00  0.00    +0.016 C 
ATOM     18  C   UNL     1      33.689 -13.481 -23.930  0.00  0.00    +0.062 C 
ATOM     19  C   UNL     1      34.181 -13.544 -22.626  0.00  0.00    +0.013 C 
BRANCH  15  23
ATOM     20  F   UNL     1      31.852 -14.153 -26.213  0.00  0.00    -0.166 F 
ATOM     21  F   UNL     1      33.861 -13.809 -26.955  0.00  0.00    -0.166 F 
ATOM     22  F   UNL     1      33.132 -15.842 -26.696  0.00  0.00    -0.166 F 
ATOM     23  C   UNL     1      33.135 -14.606 -26.119  0.00  0.00    +0.419 C 
ENDBRANCH  15  23
ENDBRANCH   8  14
ENDBRANCH   1   9
BRANCH   2  24
ATOM     24  O   UNL     1      34.097 -23.539 -18.089  0.00  0.00    -0.453 OA
BRANCH  24  26
ATOM     25  N   UNL     1      31.962 -22.910 -14.580  0.00  0.00    -0.239 NA
ATOM     26  C   UNL     1      33.385 -23.328 -16.920  0.00  0.00    +0.149 C 
ATOM     27  C   UNL     1      32.020 -23.155 -16.985  0.00  0.00    +0.061 C 
ATOM     28  C   UNL     1      31.354 -22.949 -15.787  0.00  0.00    +0.137 C 
ATOM     29  C   UNL     1      34.059 -23.299 -15.717  0.00  0.00    +0.058 C 
ATOM     30  C   UNL     1      33.302 -23.086 -14.577  0.00  0.00    +0.102 C 
BRANCH  28  33
ATOM     31  O   UNL     1      29.323 -22.477 -14.715  0.00  0.00    -0.268 OA
ATOM     32  N   UNL     1      29.243 -22.883 -16.996  0.00  0.00    -0.298 N 
ATOM     33  C   UNL     1      29.913 -22.759 -15.773  0.00  0.00    +0.264 C 
ATOM     34  C   UNL     1      27.817 -22.699 -17.149  0.00  0.00    +0.111 C 
ATOM     35  H   UNL     1      29.771 -23.108 -17.796  0.00  0.00    +0.150 HD
ENDBRANCH  28  33
ENDBRANCH  24  26
ENDBRANCH   2  24
TORSDOF 6
ENDMDL
MODEL 4
REMARK VINA RESULT:     -12.1      3.217      5.086
REMARK  Name = 216239
REMARK  6 active torsions:
REMARK  status: ('A' for Active; 'I' for Inactive)
REMARK    1  A    between atoms: C_1  and  N_9
REMARK    2  A    between atoms: C_2  and  O_24
REMARK    3  A    between atoms: N_8  and  C_14
REMARK    4  A    between atoms: C_15  and  C_23
REMARK    5  A    between atoms: O_24  and  C_26
REMARK    6  A    between atoms: C_28  and  C_33
REMARK                            x       y       z     vdW  Elec       q    Type
REMARK                         _______ _______ _______ _____ _____    ______ ____
ROOT
ATOM      1  C   UNL     1      34.784 -18.371 -21.558  0.00  0.00    +0.052 C 
ATOM      2  C   UNL     1      35.955 -20.480 -20.196  0.00  0.00    +0.145 C 
ATOM      3  C   UNL     1      36.154 -18.372 -21.360  0.00  0.00    +0.018 C 
ATOM      4  C   UNL     1      33.986 -19.402 -21.089  0.00  0.00    +0.018 C 
ATOM      5  C   UNL     1      36.744 -19.434 -20.675  0.00  0.00    +0.039 C 
ATOM      6  C   UNL     1      34.576 -20.464 -20.403  0.00  0.00    +0.039 C 
ENDROOT
BRANCH   1   9
ATOM      7  O   UNL     1      34.621 -15.475 -20.849  0.00  0.00    -0.252 OA
ATOM      8  N   UNL     1      33.444 -15.190 -22.854  0.00  0.00    -0.268 N 
ATOM      9  N   UNL     1      34.186 -17.294 -22.253  0.00  0.00    -0.268 N 
ATOM     10  C   UNL     1      34.138 -15.942 -21.874  0.00  0.00    +0.308 C 
ATOM     11  H   UNL     1      33.109 -15.701 -23.626  0.00  0.00    +0.156 HD
ATOM     12  H   UNL     1      33.751 -17.518 -23.106  0.00  0.00    +0.156 HD
BRANCH   8  14
ATOM     13 CL   UNL     1      32.312  -9.390 -22.958  0.00  0.00    -0.082 Cl
ATOM     14  C   UNL     1      33.170 -13.822 -22.870  0.00  0.00    +0.052 C 
ATOM     15  C   UNL     1      32.106 -11.889 -21.889  0.00  0.00    +0.083 C 
ATOM     16  C   UNL     1      32.378 -13.256 -21.872  0.00  0.00    +0.019 C 
ATOM     17  C   UNL     1      33.690 -13.021 -23.887  0.00  0.00    +0.016 C 
ATOM     18  C   UNL     1      32.625 -11.086 -22.905  0.00  0.00    +0.062 C 
ATOM     19  C   UNL     1      33.418 -11.653 -23.903  0.00  0.00    +0.013 C 
BRANCH  15  23
ATOM     20  F   UNL     1      29.919 -11.354 -21.079  0.00  0.00    -0.166 F 
ATOM     21  F   UNL     1      31.389 -11.972 -19.608  0.00  0.00    -0.166 F 
ATOM     22  F   UNL     1      31.544 -10.013 -20.540  0.00  0.00    -0.166 F 
ATOM     23  C   UNL     1      31.254 -11.320 -20.799  0.00  0.00    +0.419 C 
ENDBRANCH  15  23
ENDBRANCH   8  14
ENDBRANCH   1   9
BRANCH   2  24
ATOM     24  O   UNL     1      36.531 -21.515 -19.526  0.00  0.00    -0.453 OA
BRANCH  24  26
ATOM     25  N   UNL     1      34.473 -23.089 -16.276  0.00  0.00    -0.239 NA
ATOM     26  C   UNL     1      35.846 -22.040 -18.443  0.00  0.00    +0.149 C 
ATOM     27  C   UNL     1      36.501 -22.191 -17.240  0.00  0.00    +0.061 C 
ATOM     28  C   UNL     1      35.771 -22.719 -16.187  0.00  0.00    +0.137 C 
ATOM     29  C   UNL     1      34.523 -22.399 -18.593  0.00  0.00    +0.058 C 
ATOM     30  C   UNL     1      33.882 -22.919 -17.479  0.00  0.00    +0.102 C 
BRANCH  28  33
ATOM     31  O   UNL     1      37.620 -22.762 -14.745  0.00  0.00    -0.268 OA
ATOM     32  N   UNL     1      35.547 -23.234 -13.819  0.00  0.00    -0.298 N 
ATOM     33  C   UNL     1      36.392 -22.908 -14.887  0.00  0.00    +0.264 C 
ATOM     34  C   UNL     1      36.011 -23.431 -12.464  0.00  0.00    +0.111 C 
ATOM     35  H   UNL     1      34.585 -23.336 -14.001  0.00  0.00    +0.150 HD
ENDBRANCH  28  33
ENDBRANCH  24  26
ENDBRANCH   2  24
TORSDOF 6
ENDMDL
MODEL 5
REMARK VINA RESULT:     -12.0      5.585      9.535
REMARK  Name = 216239
REMARK  6 active torsions:
REMARK  status: ('A' for Active; 'I' for Inactive)
REMARK    1  A    between atoms: C_1  and  N_9
REMARK    2  A    between atoms: C_2  and  O_24
REMARK    3  A    between atoms: N_8  and  C_14
REMARK    4  A    between atoms: C_15  and  C_23
REMARK    5  A    between atoms: O_24  and  C_26
REMARK    6  A    between atoms: C_28  and  C_33
REMARK                            x       y       z     vdW  Elec       q    Type
REMARK                         _______ _______ _______ _____ _____    ______ ____
ROOT
ATOM      1  C   UNL     1      34.106 -14.012 -23.990  0.00  0.00    +0.052 C 
ATOM      2  C   UNL     1      34.314 -16.772 -23.868  0.00  0.00    +0.145 C 
ATOM      3  C   UNL     1      34.510 -14.610 -22.808  0.00  0.00    +0.018 C 
ATOM      4  C   UNL     1      33.804 -14.764 -25.113  0.00  0.00    +0.018 C 
ATOM      5  C   UNL     1      34.615 -15.999 -22.747  0.00  0.00    +0.039 C 
ATOM      6  C   UNL     1      33.907 -16.154 -25.051  0.00  0.00    +0.039 C 
ENDROOT
BRANCH   1   9
ATOM      7  O   UNL     1      32.145 -12.170 -22.694  0.00  0.00    -0.252 OA
ATOM      8  N   UNL     1      33.302 -10.423 -23.742  0.00  0.00    -0.268 N 
ATOM      9  N   UNL     1      34.000 -12.603 -24.051  0.00  0.00    -0.268 N 
ATOM     10  C   UNL     1      33.054 -11.779 -23.419  0.00  0.00    +0.308 C 
ATOM     11  H   UNL     1      34.068 -10.258 -24.338  0.00  0.00    +0.156 HD
ATOM     12  H   UNL     1      34.671 -12.142 -24.604  0.00  0.00    +0.156 HD
BRANCH   8  14
ATOM     13 CL   UNL     1      30.327  -5.609 -22.035  0.00  0.00    -0.082 Cl
ATOM     14  C   UNL     1      32.604  -9.287 -23.329  0.00  0.00    +0.052 C 
ATOM     15  C   UNL     1      32.122  -7.623 -21.646  0.00  0.00    +0.083 C 
ATOM     16  C   UNL     1      32.819  -8.759 -22.057  0.00  0.00    +0.019 C 
ATOM     17  C   UNL     1      31.689  -8.681 -24.191  0.00  0.00    +0.016 C 
ATOM     18  C   UNL     1      31.207  -7.016 -22.507  0.00  0.00    +0.062 C 
ATOM     19  C   UNL     1      30.992  -7.545 -23.780  0.00  0.00    +0.013 C 
BRANCH  15  23
ATOM     20  F   UNL     1      31.485  -7.517 -19.342  0.00  0.00    -0.166 F 
ATOM     21  F   UNL     1      33.608  -7.429 -19.781  0.00  0.00    -0.166 F 
ATOM     22  F   UNL     1      32.335  -5.724 -20.231  0.00  0.00    -0.166 F 
ATOM     23  C   UNL     1      32.383  -7.086 -20.275  0.00  0.00    +0.419 C 
ENDBRANCH  15  23
ENDBRANCH   8  14
ENDBRANCH   1   9
BRANCH   2  24
ATOM     24  O   UNL     1      34.414 -18.127 -23.808  0.00  0.00    -0.453 OA
BRANCH  24  26
ATOM     25  N   UNL     1      35.846 -19.805 -20.285  0.00  0.00    -0.239 NA
ATOM     26  C   UNL     1      34.891 -18.686 -22.634  0.00  0.00    +0.149 C 
ATOM     27  C   UNL     1      34.047 -19.456 -21.862  0.00  0.00    +0.061 C 
ATOM     28  C   UNL     1      34.572 -19.993 -20.698  0.00  0.00    +0.137 C 
ATOM     29  C   UNL     1      36.199 -18.459 -22.263  0.00  0.00    +0.058 C 
ATOM     30  C   UNL     1      36.628 -19.040 -21.080  0.00  0.00    +0.102 C 
BRANCH  28  33
ATOM     31  O   UNL     1      32.533 -20.570 -19.696  0.00  0.00    -0.268 OA
ATOM     32  N   UNL     1      34.369 -21.895 -19.194  0.00  0.00    -0.298 N 
ATOM     33  C   UNL     1      33.745 -20.816 -19.833  0.00  0.00    +0.264 C 
ATOM     34  C   UNL     1      33.676 -22.816 -18.322  0.00  0.00    +0.111 C 
ATOM     35  H   UNL     1      35.332 -22.033 -19.345  0.00  0.00    +0.150 HD
ENDBRANCH  28  33
ENDBRANCH  24  26
ENDBRANCH   2  24
TORSDOF 6
ENDMDL
MODEL 6
REMARK VINA RESULT:     -12.0      3.510      5.206
REMARK  Name = 216239
REMARK  6 active torsions:
REMARK  status: ('A' for Active; 'I' for Inactive)
REMARK    1  A    between atoms: C_1  and  N_9
REMARK    2  A    between atoms: C_2  and  O_24
REMARK    3  A    between atoms: N_8  and  C_14
REMARK    4  A    between atoms: C_15  and  C_23
REMARK    5  A    between atoms: O_24  and  C_26
REMARK    6  A    between atoms: C_28  and  C_33
REMARK                            x       y       z     vdW  Elec       q    Type
REMARK                         _______ _______ _______ _____ _____    ______ ____
ROOT
ATOM      1  C   UNL     1      34.842 -18.673 -21.320  0.00  0.00    +0.052 C 
ATOM      2  C   UNL     1      36.094 -20.742 -19.969  0.00  0.00    +0.145 C 
ATOM      3  C   UNL     1      34.076 -19.698 -20.792  0.00  0.00    +0.018 C 
ATOM      4  C   UNL     1      36.221 -18.659 -21.187  0.00  0.00    +0.018 C 
ATOM      5  C   UNL     1      34.707 -20.740 -20.111  0.00  0.00    +0.039 C 
ATOM      6  C   UNL     1      36.851 -19.702 -20.508  0.00  0.00    +0.039 C 
ENDROOT
BRANCH   1   9
ATOM      7  O   UNL     1      34.834 -15.738 -20.768  0.00  0.00    -0.252 OA
ATOM      8  N   UNL     1      33.456 -15.526 -22.651  0.00  0.00    -0.268 N 
ATOM      9  N   UNL     1      34.202 -17.616 -22.010  0.00  0.00    -0.268 N 
ATOM     10  C   UNL     1      34.231 -16.245 -21.708  0.00  0.00    +0.308 C 
ATOM     11  H   UNL     1      33.027 -16.067 -23.353  0.00  0.00    +0.156 HD
ATOM     12  H   UNL     1      33.673 -17.873 -22.798  0.00  0.00    +0.156 HD
BRANCH   8  14
ATOM     13 CL   UNL     1      32.478  -9.706 -22.972  0.00  0.00    -0.082 Cl
ATOM     14  C   UNL     1      33.219 -14.153 -22.718  0.00  0.00    +0.052 C 
ATOM     15  C   UNL     1      32.241 -12.149 -21.788  0.00  0.00    +0.083 C 
ATOM     16  C   UNL     1      32.477 -13.522 -21.721  0.00  0.00    +0.019 C 
ATOM     17  C   UNL     1      33.726 -13.410 -23.786  0.00  0.00    +0.016 C 
ATOM     18  C   UNL     1      32.747 -11.406 -22.855  0.00  0.00    +0.062 C 
ATOM     19  C   UNL     1      33.491 -12.037 -23.853  0.00  0.00    +0.013 C 
BRANCH  15  23
ATOM     20  F   UNL     1      30.113 -11.409 -20.987  0.00  0.00    -0.166 F 
ATOM     21  F   UNL     1      31.503 -12.185 -19.513  0.00  0.00    -0.166 F 
ATOM     22  F   UNL     1      31.858 -10.242 -20.422  0.00  0.00    -0.166 F 
ATOM     23  C   UNL     1      31.442 -11.511 -20.698  0.00  0.00    +0.419 C 
ENDBRANCH  15  23
ENDBRANCH   8  14
ENDBRANCH   1   9
BRANCH   2  24
ATOM     24  O   UNL     1      36.709 -21.759 -19.306  0.00  0.00    -0.453 OA
BRANCH  24  26
ATOM     25  N   UNL     1      35.574 -22.470 -15.372  0.00  0.00    -0.239 NA
ATOM     26  C   UNL     1      36.330 -21.995 -17.996  0.00  0.00    +0.149 C 
ATOM     27  C   UNL     1      35.098 -22.560 -17.741  0.00  0.00    +0.061 C 
ATOM     28  C   UNL     1      34.768 -22.777 -16.413  0.00  0.00    +0.137 C 
ATOM     29  C   UNL     1      37.194 -21.661 -16.974  0.00  0.00    +0.058 C 
ATOM     30  C   UNL     1      36.769 -21.918 -15.681  0.00  0.00    +0.102 C 
BRANCH  28  33
ATOM     31  O   UNL     1      32.576 -23.448 -16.909  0.00  0.00    -0.268 OA
ATOM     32  N   UNL     1      33.345 -23.857 -14.760  0.00  0.00    -0.298 N 
ATOM     33  C   UNL     1      33.487 -23.369 -16.065  0.00  0.00    +0.264 C 
ATOM     34  C   UNL     1      32.142 -24.492 -14.271  0.00  0.00    +0.111 C 
ATOM     35  H   UNL     1      34.106 -23.762 -14.142  0.00  0.00    +0.150 HD
ENDBRANCH  28  33
ENDBRANCH  24  26
ENDBRANCH   2  24
TORSDOF 6
ENDMDL
MODEL 7
REMARK VINA RESULT:     -11.9      2.074      2.585
REMARK  Name = 216239
REMARK  6 active torsions:
REMARK  status: ('A' for Active; 'I' for Inactive)
REMARK    1  A    between atoms: C_1  and  N_9
REMARK    2  A    between atoms: C_2  and  O_24
REMARK    3  A    between atoms: N_8  and  C_14
REMARK    4  A    between atoms: C_15  and  C_23
REMARK    5  A    between atoms: O_24  and  C_26
REMARK    6  A    between atoms: C_28  and  C_33
REMARK                            x       y       z     vdW  Elec       q    Type
REMARK                         _______ _______ _______ _____ _____    ______ ____
ROOT
ATOM      1  C   UNL     1      34.994 -20.944 -19.585  0.00  0.00    +0.052 C 
ATOM      2  C   UNL     1      34.375 -23.094 -17.951  0.00  0.00    +0.145 C 
ATOM      3  C   UNL     1      35.945 -21.416 -18.697  0.00  0.00    +0.018 C 
ATOM      4  C   UNL     1      33.738 -21.523 -19.673  0.00  0.00    +0.018 C 
ATOM      5  C   UNL     1      35.634 -22.499 -17.875  0.00  0.00    +0.039 C 
ATOM      6  C   UNL     1      33.426 -22.605 -18.850  0.00  0.00    +0.039 C 
ENDROOT
BRANCH   1   9
ATOM      7  O   UNL     1      33.332 -19.534 -21.626  0.00  0.00    -0.252 OA
ATOM      8  N   UNL     1      35.190 -18.155 -21.988  0.00  0.00    -0.268 N 
ATOM      9  N   UNL     1      35.310 -19.846 -20.419  0.00  0.00    -0.268 N 
ATOM     10  C   UNL     1      34.487 -19.217 -21.367  0.00  0.00    +0.308 C 
ATOM     11  H   UNL     1      36.115 -18.016 -21.679  0.00  0.00    +0.156 HD
ATOM     12  H   UNL     1      36.217 -19.478 -20.323  0.00  0.00    +0.156 HD
BRANCH   8  14
ATOM     13 CL   UNL     1      33.329 -14.473 -26.221  0.00  0.00    -0.082 Cl
ATOM     14  C   UNL     1      34.748 -17.279 -22.979  0.00  0.00    +0.052 C 
ATOM     15  C   UNL     1      33.835 -15.138 -23.626  0.00  0.00    +0.083 C 
ATOM     16  C   UNL     1      34.276 -16.013 -22.634  0.00  0.00    +0.019 C 
ATOM     17  C   UNL     1      34.777 -17.671 -24.318  0.00  0.00    +0.016 C 
ATOM     18  C   UNL     1      33.864 -15.529 -24.965  0.00  0.00    +0.062 C 
ATOM     19  C   UNL     1      34.336 -16.796 -25.310  0.00  0.00    +0.013 C 
BRANCH  15  23
ATOM     20  F   UNL     1      33.352 -13.593 -21.865  0.00  0.00    -0.166 F 
ATOM     21  F   UNL     1      34.069 -12.759 -23.734  0.00  0.00    -0.166 F 
ATOM     22  F   UNL     1      32.053 -13.564 -23.608  0.00  0.00    -0.166 F 
ATOM     23  C   UNL     1      33.340 -13.789 -23.215  0.00  0.00    +0.419 C 
ENDBRANCH  15  23
ENDBRANCH   8  14
ENDBRANCH   1   9
BRANCH   2  24
ATOM     24  O   UNL     1      34.070 -24.149 -17.147  0.00  0.00    -0.453 OA
BRANCH  24  26
ATOM     25  N   UNL     1      32.897 -23.325 -13.246  0.00  0.00    -0.239 NA
ATOM     26  C   UNL     1      33.679 -23.875 -15.847  0.00  0.00    +0.149 C 
ATOM     27  C   UNL     1      34.571 -24.086 -14.817  0.00  0.00    +0.061 C 
ATOM     28  C   UNL     1      34.132 -23.795 -13.535  0.00  0.00    +0.137 C 
ATOM     29  C   UNL     1      32.407 -23.397 -15.613  0.00  0.00    +0.058 C 
ATOM     30  C   UNL     1      32.065 -23.138 -14.295  0.00  0.00    +0.102 C 
BRANCH  28  33
ATOM     31  O   UNL     1      34.784 -24.888 -11.566  0.00  0.00    -0.268 OA
ATOM     32  N   UNL     1      36.127 -23.147 -12.302  0.00  0.00    -0.298 N 
ATOM     33  C   UNL     1      35.014 -23.991 -12.397  0.00  0.00    +0.264 C 
ATOM     34  C   UNL     1      37.107 -23.233 -11.242  0.00  0.00    +0.111 C 
ATOM     35  H   UNL     1      36.249 -22.457 -12.993  0.00  0.00    +0.150 HD
ENDBRANCH  28  33
ENDBRANCH  24  26
ENDBRANCH   2  24
TORSDOF 6
ENDMDL
MODEL 8
REMARK VINA RESULT:     -11.9      5.847     11.766
REMARK  Name = 216239
REMARK  6 active torsions:
REMARK  status: ('A' for Active; 'I' for Inactive)
REMARK    1  A    between atoms: C_1  and  N_9
REMARK    2  A    between atoms: C_2  and  O_24
REMARK    3  A    between atoms: N_8  and  C_14
REMARK    4  A    between atoms: C_15  and  C_23
REMARK    5  A    between atoms: O_24  and  C_26
REMARK    6  A    between atoms: C_28  and  C_33
REMARK                            x       y       z     vdW  Elec       q    Type
REMARK                         _______ _______ _______ _____ _____    ______ ____
ROOT
ATOM      1  C   UNL     1      34.548 -21.211 -19.526  0.00  0.00    +0.052 C 
ATOM      2  C   UNL     1      34.769 -19.393 -21.604  0.00  0.00    +0.145 C 
ATOM      3  C   UNL     1      33.399 -20.671 -20.079  0.00  0.00    +0.018 C 
ATOM      4  C   UNL     1      35.805 -20.862 -19.990  0.00  0.00    +0.018 C 
ATOM      5  C   UNL     1      33.510 -19.756 -21.126  0.00  0.00    +0.039 C 
ATOM      6  C   UNL     1      35.917 -19.945 -21.036  0.00  0.00    +0.039 C 
ENDROOT
BRANCH   1   9
ATOM      7  O   UNL     1      36.351 -21.703 -17.197  0.00  0.00    -0.252 OA
ATOM      8  N   UNL     1      34.832 -23.364 -16.547  0.00  0.00    -0.268 N 
ATOM      9  N   UNL     1      34.435 -22.140 -18.465  0.00  0.00    -0.268 N 
ATOM     10  C   UNL     1      35.315 -22.332 -17.388  0.00  0.00    +0.308 C 
ATOM     11  H   UNL     1      33.985 -23.782 -16.826  0.00  0.00    +0.156 HD
ATOM     12  H   UNL     1      33.642 -22.723 -18.484  0.00  0.00    +0.156 HD
BRANCH   8  14
ATOM     13 CL   UNL     1      37.185 -25.497 -11.562  0.00  0.00    -0.082 Cl
ATOM     14  C   UNL     1      35.396 -23.870 -15.375  0.00  0.00    +0.052 C 
ATOM     15  C   UNL     1      37.299 -24.762 -14.184  0.00  0.00    +0.083 C 
ATOM     16  C   UNL     1      36.735 -24.257 -15.356  0.00  0.00    +0.019 C 
ATOM     17  C   UNL     1      34.619 -23.987 -14.222  0.00  0.00    +0.016 C 
ATOM     18  C   UNL     1      36.522 -24.880 -13.031  0.00  0.00    +0.062 C 
ATOM     19  C   UNL     1      35.183 -24.492 -13.051  0.00  0.00    +0.013 C 
BRANCH  15  23
ATOM     20  F   UNL     1      39.433 -24.752 -13.104  0.00  0.00    -0.166 F 
ATOM     21  F   UNL     1      38.925 -26.514 -14.262  0.00  0.00    -0.166 F 
ATOM     22  F   UNL     1      39.408 -24.652 -15.276  0.00  0.00    -0.166 F 
ATOM     23  C   UNL     1      38.739 -25.164 -14.204  0.00  0.00    +0.419 C 
ENDBRANCH  15  23
ENDBRANCH   8  14
ENDBRANCH   1   9
BRANCH   2  24
ATOM     24  O   UNL     1      34.877 -18.498 -22.624  0.00  0.00    -0.453 OA
BRANCH  24  26
ATOM     25  N   UNL     1      34.285 -14.481 -21.736  0.00  0.00    -0.239 NA
ATOM     26  C   UNL     1      34.680 -17.160 -22.329  0.00  0.00    +0.149 C 
ATOM     27  C   UNL     1      34.320 -16.292 -23.337  0.00  0.00    +0.061 C 
ATOM     28  C   UNL     1      34.133 -14.964 -22.990  0.00  0.00    +0.137 C 
ATOM     29  C   UNL     1      34.849 -16.724 -21.031  0.00  0.00    +0.058 C 
ATOM     30  C   UNL     1      34.640 -15.376 -20.787  0.00  0.00    +0.102 C 
BRANCH  28  33
ATOM     31  O   UNL     1      33.065 -14.330 -24.979  0.00  0.00    -0.268 OA
ATOM     32  N   UNL     1      34.170 -12.669 -23.797  0.00  0.00    -0.298 N 
ATOM     33  C   UNL     1      33.752 -13.990 -23.998  0.00  0.00    +0.264 C 
ATOM     34  C   UNL     1      33.851 -11.584 -24.698  0.00  0.00    +0.111 C 
ATOM     35  H   UNL     1      34.712 -12.468 -23.000  0.00  0.00    +0.150 HD
ENDBRANCH  28  33
ENDBRANCH  24  26
ENDBRANCH   2  24
TORSDOF 6
ENDMDL
MODEL 9
REMARK VINA RESULT:     -11.9      2.634      3.737
REMARK  Name = 216239
REMARK  6 active torsions:
REMARK  status: ('A' for Active; 'I' for Inactive)
REMARK    1  A    between atoms: C_1  and  N_9
REMARK    2  A    between atoms: C_2  and  O_24
REMARK    3  A    between atoms: N_8  and  C_14
REMARK    4  A    between atoms: C_15  and  C_23
REMARK    5  A    between atoms: O_24  and  C_26
REMARK    6  A    between atoms: C_28  and  C_33
REMARK                            x       y       z     vdW  Elec       q    Type
REMARK                         _______ _______ _______ _____ _____    ______ ____
ROOT
ATOM      1  C   UNL     1      34.837 -20.222 -20.300  0.00  0.00    +0.052 C 
ATOM      2  C   UNL     1      34.219 -22.524 -18.888  0.00  0.00    +0.145 C 
ATOM      3  C   UNL     1      33.517 -20.630 -20.214  0.00  0.00    +0.018 C 
ATOM      4  C   UNL     1      35.856 -20.940 -19.696  0.00  0.00    +0.018 C 
ATOM      5  C   UNL     1      33.206 -21.789 -19.502  0.00  0.00    +0.039 C 
ATOM      6  C   UNL     1      35.545 -22.100 -18.985  0.00  0.00    +0.039 C 
ENDROOT
BRANCH   1   9
ATOM      7  O   UNL     1      33.146 -17.846 -20.944  0.00  0.00    -0.252 OA
ATOM      8  N   UNL     1      35.022 -16.982 -22.049  0.00  0.00    -0.268 N 
ATOM      9  N   UNL     1      35.152 -19.047 -21.021  0.00  0.00    -0.268 N 
ATOM     10  C   UNL     1      34.315 -17.952 -21.298  0.00  0.00    +0.308 C 
ATOM     11  H   UNL     1      35.958 -17.204 -22.262  0.00  0.00    +0.156 HD
ATOM     12  H   UNL     1      36.069 -18.988 -21.373  0.00  0.00    +0.156 HD
BRANCH   8  14
ATOM     13 CL   UNL     1      33.106 -11.759 -24.045  0.00  0.00    -0.082 Cl
ATOM     14  C   UNL     1      34.569 -15.753 -22.530  0.00  0.00    +0.052 C 
ATOM     15  C   UNL     1      33.720 -14.398 -24.341  0.00  0.00    +0.083 C 
ATOM     16  C   UNL     1      34.173 -15.626 -23.861  0.00  0.00    +0.019 C 
ATOM     17  C   UNL     1      34.512 -14.650 -21.677  0.00  0.00    +0.016 C 
ATOM     18  C   UNL     1      33.663 -13.294 -23.489  0.00  0.00    +0.062 C 
ATOM     19  C   UNL     1      34.059 -13.421 -22.157  0.00  0.00    +0.013 C 
BRANCH  15  23
ATOM     20  F   UNL     1      31.952 -14.205 -25.940  0.00  0.00    -0.166 F 
ATOM     21  F   UNL     1      33.826 -13.225 -26.422  0.00  0.00    -0.166 F 
ATOM     22  F   UNL     1      33.685 -15.393 -26.499  0.00  0.00    -0.166 F 
ATOM     23  C   UNL     1      33.302 -14.304 -25.773  0.00  0.00    +0.419 C 
ENDBRANCH  15  23
ENDBRANCH   8  14
ENDBRANCH   1   9
BRANCH   2  24
ATOM     24  O   UNL     1      33.916 -23.656 -18.196  0.00  0.00    -0.453 OA
BRANCH  24  26
ATOM     25  N   UNL     1      32.438 -23.217 -14.336  0.00  0.00    -0.239 NA
ATOM     26  C   UNL     1      33.424 -23.511 -16.910  0.00  0.00    +0.149 C 
ATOM     27  C   UNL     1      34.263 -23.728 -15.838  0.00  0.00    +0.061 C 
ATOM     28  C   UNL     1      33.723 -23.568 -14.572  0.00  0.00    +0.137 C 
ATOM     29  C   UNL     1      32.105 -23.151 -16.730  0.00  0.00    +0.058 C 
ATOM     30  C   UNL     1      31.661 -23.018 -15.423  0.00  0.00    +0.102 C 
BRANCH  28  33
ATOM     31  O   UNL     1      34.135 -24.484 -12.453  0.00  0.00    -0.268 OA
ATOM     32  N   UNL     1      35.810 -23.178 -13.383  0.00  0.00    -0.298 N 
ATOM     33  C   UNL     1      34.545 -23.779 -13.393  0.00  0.00    +0.264 C 
ATOM     34  C   UNL     1      36.750 -23.313 -12.293  0.00  0.00    +0.111 C 
ATOM     35  H   UNL     1      36.072 -22.632 -14.159  0.00  0.00    +0.150 HD
ENDBRANCH  28  33
ENDBRANCH  24  26
ENDBRANCH   2  24
TORSDOF 6
ENDMDL
