MODEL 1
REMARK VINA RESULT:      -9.3      0.000      0.000
REMARK  Name = 5440
REMARK  6 active torsions:
REMARK  status: ('A' for Active; 'I' for Inactive)
REMARK    1  A    between atoms: N_2  and  C_18
REMARK    2  A    between atoms: C_10  and  S_15
REMARK    3  A    between atoms: S_15  and  C_16
REMARK    4  A    between atoms: C_18  and  C_19
REMARK    5  A    between atoms: C_19  and  C_20
REMARK    6  A    between atoms: C_20  and  N_21
REMARK                            x       y       z     vdW  Elec       q    Type
REMARK                         _______ _______ _______ _____ _____    ______ ____
ROOT
ATOM      1  S   UNL     1      33.319 -16.037 -25.988  0.00  0.00    -0.084 S 
ATOM      2  N   UNL     1      34.110 -14.652 -23.320  0.00  0.00    -0.286 N 
ATOM      3  C   UNL     1      34.443 -16.027 -23.421  0.00  0.00    +0.058 C 
ATOM      4  C   UNL     1      33.884 -13.786 -24.419  0.00  0.00    +0.058 C 
ATOM      5  C   UNL     1      34.157 -16.759 -24.591  0.00  0.00    +0.043 C 
ATOM      6  C   UNL     1      33.543 -14.295 -25.687  0.00  0.00    +0.043 C 
ATOM      7  C   UNL     1      35.103 -16.716 -22.380  0.00  0.00    +0.021 C 
ATOM      8  C   UNL     1      34.024 -12.385 -24.307  0.00  0.00    +0.015 C 
ATOM      9  C   UNL     1      34.495 -18.120 -24.689  0.00  0.00    +0.008 C 
ATOM     10  C   UNL     1      35.441 -18.068 -22.485  0.00  0.00    +0.026 C 
ATOM     11  C   UNL     1      33.328 -13.432 -26.776  0.00  0.00    +0.008 C 
ATOM     12  C   UNL     1      35.135 -18.772 -23.640  0.00  0.00    +0.007 C 
ATOM     13  C   UNL     1      33.814 -11.531 -25.393  0.00  0.00    +0.001 C 
ATOM     14  C   UNL     1      33.463 -12.055 -26.628  0.00  0.00    +0.001 C 
ENDROOT
BRANCH  10  15
ATOM     15  S   UNL     1      36.275 -18.887 -21.139  0.00  0.00    -0.114 S 
BRANCH  15  16
ATOM     16  C   UNL     1      35.172 -20.292 -20.822  0.00  0.00    +0.062 C 
ATOM     17  C   UNL     1      33.740 -19.819 -20.659  0.00  0.00    +0.013 C 
ENDBRANCH  15  16
ENDBRANCH  10  15
BRANCH   2  18
ATOM     18  C   UNL     1      34.067 -14.065 -21.974  0.00  0.00    +0.093 C 
BRANCH  18  19
ATOM     19  C   UNL     1      32.680 -14.235 -21.355  0.00  0.00    -0.001 C 
BRANCH  19  20
ATOM     20  C   UNL     1      31.685 -13.125 -21.707  0.00  0.00    -0.076 C 
BRANCH  20  21
ATOM     21  N   UNL     1      32.147 -11.813 -21.258  0.00  0.00    +0.384 N 
ATOM     22  N   UNL     1      31.720  -9.083 -20.410  0.00  0.00    +0.383 N 
ATOM     23  C   UNL     1      31.765 -10.769 -22.216  0.00  0.00    -0.101 C 
ATOM     24  C   UNL     1      31.618 -11.503 -19.924  0.00  0.00    -0.101 C 
ATOM     25  C   UNL     1      32.248  -9.393 -21.744  0.00  0.00    -0.101 C 
ATOM     26  C   UNL     1      32.101 -10.128 -19.452  0.00  0.00    -0.101 C 
ATOM     27  C   UNL     1      32.185  -7.772 -19.960  0.00  0.00    -0.101 C 
ATOM     28  H   UNL     1      33.165 -11.841 -21.201  0.00  0.00    -0.080 HD
ATOM     29  H   UNL     1      30.702  -9.054 -20.466  0.00  0.00    -0.080 HD
ENDBRANCH  20  21
ENDBRANCH  19  20
ENDBRANCH  18  19
ENDBRANCH   2  18
TORSDOF 6
ENDMDL
MODEL 2
REMARK VINA RESULT:      -9.1      6.451     11.519
REMARK  Name = 5440
REMARK  6 active torsions:
REMARK  status: ('A' for Active; 'I' for Inactive)
REMARK    1  A    between atoms: N_2  and  C_18
REMARK    2  A    between atoms: C_10  and  S_15
REMARK    3  A    between atoms: S_15  and  C_16
REMARK    4  A    between atoms: C_18  and  C_19
REMARK    5  A    between atoms: C_19  and  C_20
REMARK    6  A    between atoms: C_20  and  N_21
REMARK                            x       y       z     vdW  Elec       q    Type
REMARK                         _______ _______ _______ _____ _____    ______ ____
ROOT
ATOM      1  S   UNL     1      33.593 -24.162 -13.561  0.00  0.00    -0.084 S 
ATOM      2  N   UNL     1      33.582 -23.395 -16.573  0.00  0.00    -0.286 N 
ATOM      3  C   UNL     1      32.312 -23.435 -15.944  0.00  0.00    +0.058 C 
ATOM      4  C   UNL     1      34.819 -23.229 -15.900  0.00  0.00    +0.058 C 
ATOM      5  C   UNL     1      32.189 -23.747 -14.576  0.00  0.00    +0.043 C 
ATOM      6  C   UNL     1      34.945 -23.521 -14.528  0.00  0.00    +0.043 C 
ATOM      7  C   UNL     1      31.121 -23.131 -16.641  0.00  0.00    +0.021 C 
ATOM      8  C   UNL     1      35.966 -22.734 -16.557  0.00  0.00    +0.015 C 
ATOM      9  C   UNL     1      30.927 -23.778 -13.955  0.00  0.00    +0.008 C 
ATOM     10  C   UNL     1      29.871 -23.158 -16.018  0.00  0.00    +0.026 C 
ATOM     11  C   UNL     1      36.172 -23.346 -13.863  0.00  0.00    +0.008 C 
ATOM     12  C   UNL     1      29.773 -23.484 -14.674  0.00  0.00    +0.007 C 
ATOM     13  C   UNL     1      37.183 -22.558 -15.892  0.00  0.00    +0.001 C 
ATOM     14  C   UNL     1      37.286 -22.867 -14.544  0.00  0.00    +0.001 C 
ENDROOT
BRANCH  10  15
ATOM     15  S   UNL     1      28.402 -22.764 -16.948  0.00  0.00    -0.114 S 
BRANCH  15  16
ATOM     16  C   UNL     1      27.243 -22.306 -15.628  0.00  0.00    +0.062 C 
ATOM     17  C   UNL     1      25.955 -21.763 -16.216  0.00  0.00    +0.013 C 
ENDBRANCH  15  16
ENDBRANCH  10  15
BRANCH   2  18
ATOM     18  C   UNL     1      33.612 -23.459 -18.039  0.00  0.00    +0.093 C 
BRANCH  18  19
ATOM     19  C   UNL     1      33.616 -22.055 -18.643  0.00  0.00    -0.001 C 
BRANCH  19  20
ATOM     20  C   UNL     1      34.755 -21.791 -19.634  0.00  0.00    -0.076 C 
BRANCH  20  21
ATOM     21  N   UNL     1      34.841 -20.379 -20.003  0.00  0.00    +0.384 N 
ATOM     22  N   UNL     1      35.041 -18.226 -21.922  0.00  0.00    +0.383 N 
ATOM     23  C   UNL     1      36.098 -20.100 -20.707  0.00  0.00    -0.101 C 
ATOM     24  C   UNL     1      33.693 -19.986 -20.830  0.00  0.00    -0.101 C 
ATOM     25  C   UNL     1      36.188 -18.620 -21.096  0.00  0.00    -0.101 C 
ATOM     26  C   UNL     1      33.783 -18.506 -21.218  0.00  0.00    -0.101 C 
ATOM     27  C   UNL     1      35.127 -16.814 -22.288  0.00  0.00    -0.101 C 
ATOM     28  H   UNL     1      34.822 -19.828 -19.145  0.00  0.00    -0.080 HD
ATOM     29  H   UNL     1      35.058 -18.776 -22.780  0.00  0.00    -0.080 HD
ENDBRANCH  20  21
ENDBRANCH  19  20
ENDBRANCH  18  19
ENDBRANCH   2  18
TORSDOF 6
ENDMDL
MODEL 3
REMARK VINA RESULT:      -8.6      7.793     11.098
REMARK  Name = 5440
REMARK  6 active torsions:
REMARK  status: ('A' for Active; 'I' for Inactive)
REMARK    1  A    between atoms: N_2  and  C_18
REMARK    2  A    between atoms: C_10  and  S_15
REMARK    3  A    between atoms: S_15  and  C_16
REMARK    4  A    between atoms: C_18  and  C_19
REMARK    5  A    between atoms: C_19  and  C_20
REMARK    6  A    between atoms: C_20  and  N_21
REMARK                            x       y       z     vdW  Elec       q    Type
REMARK                         _______ _______ _______ _____ _____    ______ ____
ROOT
ATOM      1  S   UNL     1      36.874 -21.349 -18.982  0.00  0.00    -0.084 S 
ATOM      2  N   UNL     1      34.187 -22.564 -17.997  0.00  0.00    -0.286 N 
ATOM      3  C   UNL     1      35.268 -22.639 -17.082  0.00  0.00    +0.058 C 
ATOM      4  C   UNL     1      34.089 -21.639 -19.067  0.00  0.00    +0.058 C 
ATOM      5  C   UNL     1      36.531 -22.103 -17.404  0.00  0.00    +0.043 C 
ATOM      6  C   UNL     1      35.234 -21.003 -19.586  0.00  0.00    +0.043 C 
ATOM      7  C   UNL     1      35.125 -23.217 -15.801  0.00  0.00    +0.021 C 
ATOM      8  C   UNL     1      32.847 -21.285 -19.636  0.00  0.00    +0.015 C 
ATOM      9  C   UNL     1      37.597 -22.173 -16.490  0.00  0.00    +0.008 C 
ATOM     10  C   UNL     1      36.187 -23.280 -14.895  0.00  0.00    +0.026 C 
ATOM     11  C   UNL     1      35.130 -20.080 -20.641  0.00  0.00    +0.008 C 
ATOM     12  C   UNL     1      37.426 -22.759 -15.240  0.00  0.00    +0.007 C 
ATOM     13  C   UNL     1      32.747 -20.363 -20.683  0.00  0.00    +0.001 C 
ATOM     14  C   UNL     1      33.891 -19.763 -21.187  0.00  0.00    +0.001 C 
ENDROOT
BRANCH  10  15
ATOM     15  S   UNL     1      35.949 -24.020 -13.290  0.00  0.00    -0.114 S 
BRANCH  15  16
ATOM     16  C   UNL     1      36.855 -25.583 -13.467  0.00  0.00    +0.062 C 
ATOM     17  C   UNL     1      38.250 -25.458 -12.887  0.00  0.00    +0.013 C 
ENDBRANCH  15  16
ENDBRANCH  10  15
BRANCH   2  18
ATOM     18  C   UNL     1      33.051 -23.467 -17.775  0.00  0.00    +0.093 C 
BRANCH  18  19
ATOM     19  C   UNL     1      32.176 -22.964 -16.627  0.00  0.00    -0.001 C 
BRANCH  19  20
ATOM     20  C   UNL     1      31.436 -24.065 -15.861  0.00  0.00    -0.076 C 
BRANCH  20  21
ATOM     21  N   UNL     1      30.015 -23.759 -15.702  0.00  0.00    +0.384 N 
ATOM     22  N   UNL     1      27.634 -22.216 -16.256  0.00  0.00    +0.383 N 
ATOM     23  C   UNL     1      29.831 -22.415 -15.141  0.00  0.00    -0.101 C 
ATOM     24  C   UNL     1      29.309 -23.882 -16.983  0.00  0.00    -0.101 C 
ATOM     25  C   UNL     1      28.341 -22.093 -14.976  0.00  0.00    -0.101 C 
ATOM     26  C   UNL     1      27.820 -23.560 -16.817  0.00  0.00    -0.101 C 
ATOM     27  C   UNL     1      26.214 -21.913 -16.095  0.00  0.00    -0.101 C 
ATOM     28  H   UNL     1      29.619 -24.437 -15.050  0.00  0.00    -0.080 HD
ATOM     29  H   UNL     1      28.029 -21.539 -16.908  0.00  0.00    -0.080 HD
ENDBRANCH  20  21
ENDBRANCH  19  20
ENDBRANCH  18  19
ENDBRANCH   2  18
TORSDOF 6
ENDMDL
MODEL 4
REMARK VINA RESULT:      -8.4      3.140      7.275
REMARK  Name = 5440
REMARK  6 active torsions:
REMARK  status: ('A' for Active; 'I' for Inactive)
REMARK    1  A    between atoms: N_2  and  C_18
REMARK    2  A    between atoms: C_10  and  S_15
REMARK    3  A    between atoms: S_15  and  C_16
REMARK    4  A    between atoms: C_18  and  C_19
REMARK    5  A    between atoms: C_19  and  C_20
REMARK    6  A    between atoms: C_20  and  N_21
REMARK                            x       y       z     vdW  Elec       q    Type
REMARK                         _______ _______ _______ _____ _____    ______ ____
ROOT
ATOM      1  S   UNL     1      31.957  -7.558 -20.030  0.00  0.00    -0.084 S 
ATOM      2  N   UNL     1      32.206  -8.898 -22.824  0.00  0.00    -0.286 N 
ATOM      3  C   UNL     1      32.086  -9.786 -21.725  0.00  0.00    +0.058 C 
ATOM      4  C   UNL     1      31.787  -7.544 -22.826  0.00  0.00    +0.058 C 
ATOM      5  C   UNL     1      31.943  -9.299 -20.410  0.00  0.00    +0.043 C 
ATOM      6  C   UNL     1      31.614  -6.834 -21.622  0.00  0.00    +0.043 C 
ATOM      7  C   UNL     1      32.067 -11.188 -21.893  0.00  0.00    +0.021 C 
ATOM      8  C   UNL     1      31.490  -6.856 -24.023  0.00  0.00    +0.015 C 
ATOM      9  C   UNL     1      31.817 -10.183 -19.324  0.00  0.00    +0.008 C 
ATOM     10  C   UNL     1      31.937 -12.062 -20.811  0.00  0.00    +0.026 C 
ATOM     11  C   UNL     1      31.190  -5.494 -21.630  0.00  0.00    +0.008 C 
ATOM     12  C   UNL     1      31.814 -11.560 -19.524  0.00  0.00    +0.007 C 
ATOM     13  C   UNL     1      31.064  -5.525 -24.026  0.00  0.00    +0.001 C 
ATOM     14  C   UNL     1      30.917  -4.842 -22.828  0.00  0.00    +0.001 C 
ENDROOT
BRANCH  10  15
ATOM     15  S   UNL     1      31.918 -13.824 -21.083  0.00  0.00    -0.114 S 
BRANCH  15  16
ATOM     16  C   UNL     1      33.687 -14.226 -21.013  0.00  0.00    +0.062 C 
ATOM     17  C   UNL     1      33.891 -15.729 -21.015  0.00  0.00    +0.013 C 
ENDBRANCH  15  16
ENDBRANCH  10  15
BRANCH   2  18
ATOM     18  C   UNL     1      32.740  -9.445 -24.078  0.00  0.00    +0.093 C 
BRANCH  18  19
ATOM     19  C   UNL     1      34.268  -9.467 -24.050  0.00  0.00    -0.001 C 
BRANCH  19  20
ATOM     20  C   UNL     1      34.909 -10.452 -25.033  0.00  0.00    -0.076 C 
BRANCH  20  21
ATOM     21  N   UNL     1      33.998 -11.539 -25.389  0.00  0.00    +0.384 N 
ATOM     22  N   UNL     1      33.414 -14.269 -26.140  0.00  0.00    +0.383 N 
ATOM     23  C   UNL     1      34.280 -12.034 -26.741  0.00  0.00    -0.101 C 
ATOM     24  C   UNL     1      34.086 -12.633 -24.414  0.00  0.00    -0.101 C 
ATOM     25  C   UNL     1      33.327 -13.175 -27.114  0.00  0.00    -0.101 C 
ATOM     26  C   UNL     1      33.132 -13.773 -24.787  0.00  0.00    -0.101 C 
ATOM     27  C   UNL     1      32.501 -15.354 -26.495  0.00  0.00    -0.101 C 
ATOM     28  H   UNL     1      33.047 -11.170 -25.373  0.00  0.00    -0.080 HD
ATOM     29  H   UNL     1      34.364 -14.639 -26.155  0.00  0.00    -0.080 HD
ENDBRANCH  20  21
ENDBRANCH  19  20
ENDBRANCH  18  19
ENDBRANCH   2  18
TORSDOF 6
ENDMDL
MODEL 5
REMARK VINA RESULT:      -8.3      7.028     11.952
REMARK  Name = 5440
REMARK  6 active torsions:
REMARK  status: ('A' for Active; 'I' for Inactive)
REMARK    1  A    between atoms: N_2  and  C_18
REMARK    2  A    between atoms: C_10  and  S_15
REMARK    3  A    between atoms: S_15  and  C_16
REMARK    4  A    between atoms: C_18  and  C_19
REMARK    5  A    between atoms: C_19  and  C_20
REMARK    6  A    between atoms: C_20  and  N_21
REMARK                            x       y       z     vdW  Elec       q    Type
REMARK                         _______ _______ _______ _____ _____    ______ ____
ROOT
ATOM      1  S   UNL     1      32.554 -23.024 -13.042  0.00  0.00    -0.084 S 
ATOM      2  N   UNL     1      33.381 -23.550 -15.992  0.00  0.00    -0.286 N 
ATOM      3  C   UNL     1      34.271 -24.047 -15.007  0.00  0.00    +0.058 C 
ATOM      4  C   UNL     1      32.010 -23.261 -15.780  0.00  0.00    +0.058 C 
ATOM      5  C   UNL     1      33.994 -23.892 -13.634  0.00  0.00    +0.043 C 
ATOM      6  C   UNL     1      31.508 -23.028 -14.484  0.00  0.00    +0.043 C 
ATOM      7  C   UNL     1      35.450 -24.747 -15.347  0.00  0.00    +0.021 C 
ATOM      8  C   UNL     1      31.080 -23.229 -16.842  0.00  0.00    +0.015 C 
ATOM      9  C   UNL     1      34.876 -24.393 -12.660  0.00  0.00    +0.008 C 
ATOM     10  C   UNL     1      36.320 -25.248 -14.375  0.00  0.00    +0.026 C 
ATOM     11  C   UNL     1      30.145 -22.750 -14.278  0.00  0.00    +0.008 C 
ATOM     12  C   UNL     1      36.035 -25.069 -13.030  0.00  0.00    +0.007 C 
ATOM     13  C   UNL     1      29.725 -22.956 -16.632  0.00  0.00    +0.001 C 
ATOM     14  C   UNL     1      29.258 -22.714 -15.349  0.00  0.00    +0.001 C 
ENDROOT
BRANCH  10  15
ATOM     15  S   UNL     1      37.793 -26.126 -14.863  0.00  0.00    -0.114 S 
BRANCH  15  16
ATOM     16  C   UNL     1      39.030 -25.425 -13.735  0.00  0.00    +0.062 C 
ATOM     17  C   UNL     1      40.432 -25.753 -14.211  0.00  0.00    +0.013 C 
ENDBRANCH  15  16
ENDBRANCH  10  15
BRANCH   2  18
ATOM     18  C   UNL     1      33.904 -23.390 -17.355  0.00  0.00    +0.093 C 
BRANCH  18  19
ATOM     19  C   UNL     1      34.875 -22.211 -17.427  0.00  0.00    -0.001 C 
BRANCH  19  20
ATOM     20  C   UNL     1      35.617 -22.078 -18.760  0.00  0.00    -0.076 C 
BRANCH  20  21
ATOM     21  N   UNL     1      35.344 -20.798 -19.412  0.00  0.00    +0.384 N 
ATOM     22  N   UNL     1      34.925 -19.128 -21.734  0.00  0.00    +0.383 N 
ATOM     23  C   UNL     1      36.461 -20.405 -20.279  0.00  0.00    -0.101 C 
ATOM     24  C   UNL     1      34.096 -20.863 -20.182  0.00  0.00    -0.101 C 
ATOM     25  C   UNL     1      36.174 -19.065 -20.965  0.00  0.00    -0.101 C 
ATOM     26  C   UNL     1      33.808 -19.522 -20.866  0.00  0.00    -0.101 C 
ATOM     27  C   UNL     1      34.651 -17.847 -22.383  0.00  0.00    -0.101 C 
ATOM     28  H   UNL     1      35.236 -20.092 -18.684  0.00  0.00    -0.080 HD
ATOM     29  H   UNL     1      35.031 -19.834 -22.462  0.00  0.00    -0.080 HD
ENDBRANCH  20  21
ENDBRANCH  19  20
ENDBRANCH  18  19
ENDBRANCH   2  18
TORSDOF 6
ENDMDL
MODEL 6
REMARK VINA RESULT:      -8.3      2.932      7.663
REMARK  Name = 5440
REMARK  6 active torsions:
REMARK  status: ('A' for Active; 'I' for Inactive)
REMARK    1  A    between atoms: N_2  and  C_18
REMARK    2  A    between atoms: C_10  and  S_15
REMARK    3  A    between atoms: S_15  and  C_16
REMARK    4  A    between atoms: C_18  and  C_19
REMARK    5  A    between atoms: C_19  and  C_20
REMARK    6  A    between atoms: C_20  and  N_21
REMARK                            x       y       z     vdW  Elec       q    Type
REMARK                         _______ _______ _______ _____ _____    ______ ____
ROOT
ATOM      1  S   UNL     1      35.252 -10.309 -25.546  0.00  0.00    -0.084 S 
ATOM      2  N   UNL     1      33.094 -11.595 -23.716  0.00  0.00    -0.286 N 
ATOM      3  C   UNL     1      33.410 -10.242 -23.435  0.00  0.00    +0.058 C 
ATOM      4  C   UNL     1      33.312 -12.242 -24.958  0.00  0.00    +0.058 C 
ATOM      5  C   UNL     1      34.356  -9.542 -24.210  0.00  0.00    +0.043 C 
ATOM      6  C   UNL     1      34.248 -11.741 -25.884  0.00  0.00    +0.043 C 
ATOM      7  C   UNL     1      32.773  -9.524 -22.399  0.00  0.00    +0.021 C 
ATOM      8  C   UNL     1      32.583 -13.389 -25.341  0.00  0.00    +0.015 C 
ATOM      9  C   UNL     1      34.661  -8.197 -23.933  0.00  0.00    +0.008 C 
ATOM     10  C   UNL     1      33.077  -8.186 -22.131  0.00  0.00    +0.026 C 
ATOM     11  C   UNL     1      34.454 -12.381 -27.119  0.00  0.00    +0.008 C 
ATOM     12  C   UNL     1      34.023  -7.522 -22.896  0.00  0.00    +0.007 C 
ATOM     13  C   UNL     1      32.788 -14.020 -26.572  0.00  0.00    +0.001 C 
ATOM     14  C   UNL     1      33.727 -13.517 -27.460  0.00  0.00    +0.001 C 
ENDROOT
BRANCH  10  15
ATOM     15  S   UNL     1      32.240  -7.329 -20.810  0.00  0.00    -0.114 S 
BRANCH  15  16
ATOM     16  C   UNL     1      31.839  -5.743 -21.597  0.00  0.00    +0.062 C 
ATOM     17  C   UNL     1      30.669  -5.902 -22.549  0.00  0.00    +0.013 C 
ENDBRANCH  15  16
ENDBRANCH  10  15
BRANCH   2  18
ATOM     18  C   UNL     1      32.424 -12.365 -22.660  0.00  0.00    +0.093 C 
BRANCH  18  19
ATOM     19  C   UNL     1      33.396 -13.349 -22.008  0.00  0.00    -0.001 C 
BRANCH  19  20
ATOM     20  C   UNL     1      32.733 -14.582 -21.387  0.00  0.00    -0.076 C 
BRANCH  20  21
ATOM     21  N   UNL     1      33.418 -15.818 -21.760  0.00  0.00    +0.384 N 
ATOM     22  N   UNL     1      35.756 -17.337 -22.526  0.00  0.00    +0.383 N 
ATOM     23  C   UNL     1      33.989 -15.711 -23.109  0.00  0.00    -0.101 C 
ATOM     24  C   UNL     1      34.465 -16.148 -20.786  0.00  0.00    -0.101 C 
ATOM     25  C   UNL     1      34.710 -17.006 -23.500  0.00  0.00    -0.101 C 
ATOM     26  C   UNL     1      35.185 -17.443 -21.178  0.00  0.00    -0.101 C 
ATOM     27  C   UNL     1      36.439 -18.574 -22.899  0.00  0.00    -0.101 C 
ATOM     28  H   UNL     1      32.731 -16.571 -21.760  0.00  0.00    -0.080 HD
ATOM     29  H   UNL     1      36.444 -16.585 -22.525  0.00  0.00    -0.080 HD
ENDBRANCH  20  21
ENDBRANCH  19  20
ENDBRANCH  18  19
ENDBRANCH   2  18
TORSDOF 6
ENDMDL
MODEL 7
REMARK VINA RESULT:      -8.0      7.686     12.746
REMARK  Name = 5440
REMARK  6 active torsions:
REMARK  status: ('A' for Active; 'I' for Inactive)
REMARK    1  A    between atoms: N_2  and  C_18
REMARK    2  A    between atoms: C_10  and  S_15
REMARK    3  A    between atoms: S_15  and  C_16
REMARK    4  A    between atoms: C_18  and  C_19
REMARK    5  A    between atoms: C_19  and  C_20
REMARK    6  A    between atoms: C_20  and  N_21
REMARK                            x       y       z     vdW  Elec       q    Type
REMARK                         _______ _______ _______ _____ _____    ______ ____
ROOT
ATOM      1  S   UNL     1      37.878 -22.417 -16.097  0.00  0.00    -0.084 S 
ATOM      2  N   UNL     1      35.060 -23.729 -16.084  0.00  0.00    -0.286 N 
ATOM      3  C   UNL     1      35.302 -22.803 -17.130  0.00  0.00    +0.058 C 
ATOM      4  C   UNL     1      36.063 -24.420 -15.359  0.00  0.00    +0.058 C 
ATOM      5  C   UNL     1      36.549 -22.160 -17.256  0.00  0.00    +0.043 C 
ATOM      6  C   UNL     1      37.386 -23.938 -15.310  0.00  0.00    +0.043 C 
ATOM      7  C   UNL     1      34.327 -22.509 -18.109  0.00  0.00    +0.021 C 
ATOM      8  C   UNL     1      35.799 -25.633 -14.687  0.00  0.00    +0.015 C 
ATOM      9  C   UNL     1      36.787 -21.248 -18.301  0.00  0.00    +0.008 C 
ATOM     10  C   UNL     1      34.571 -21.605 -19.147  0.00  0.00    +0.026 C 
ATOM     11  C   UNL     1      38.380 -24.632 -14.597  0.00  0.00    +0.008 C 
ATOM     12  C   UNL     1      35.801 -20.972 -19.242  0.00  0.00    +0.007 C 
ATOM     13  C   UNL     1      36.790 -26.322 -13.983  0.00  0.00    +0.001 C 
ATOM     14  C   UNL     1      38.082 -25.819 -13.936  0.00  0.00    +0.001 C 
ENDROOT
BRANCH  10  15
ATOM     15  S   UNL     1      33.304 -21.273 -20.357  0.00  0.00    -0.114 S 
BRANCH  15  16
ATOM     16  C   UNL     1      33.642 -19.540 -20.778  0.00  0.00    +0.062 C 
ATOM     17  C   UNL     1      34.341 -19.445 -22.121  0.00  0.00    +0.013 C 
ENDBRANCH  15  16
ENDBRANCH  10  15
BRANCH   2  18
ATOM     18  C   UNL     1      33.660 -24.049 -15.776  0.00  0.00    +0.093 C 
BRANCH  18  19
ATOM     19  C   UNL     1      33.308 -23.621 -14.351  0.00  0.00    -0.001 C 
BRANCH  19  20
ATOM     20  C   UNL     1      32.224 -24.470 -13.680  0.00  0.00    -0.076 C 
BRANCH  20  21
ATOM     21  N   UNL     1      30.880 -24.048 -14.069  0.00  0.00    +0.384 N 
ATOM     22  N   UNL     1      28.894 -23.240 -16.008  0.00  0.00    +0.383 N 
ATOM     23  C   UNL     1      30.908 -22.713 -14.678  0.00  0.00    -0.101 C 
ATOM     24  C   UNL     1      30.275 -25.018 -14.990  0.00  0.00    -0.101 C 
ATOM     25  C   UNL     1      29.500 -22.270 -15.089  0.00  0.00    -0.101 C 
ATOM     26  C   UNL     1      28.866 -24.575 -15.399  0.00  0.00    -0.101 C 
ATOM     27  C   UNL     1      27.549 -22.818 -16.395  0.00  0.00    -0.101 C 
ATOM     28  H   UNL     1      30.308 -24.005 -13.226  0.00  0.00    -0.080 HD
ATOM     29  H   UNL     1      29.465 -23.283 -16.852  0.00  0.00    -0.080 HD
ENDBRANCH  20  21
ENDBRANCH  19  20
ENDBRANCH  18  19
ENDBRANCH   2  18
TORSDOF 6
ENDMDL
MODEL 8
REMARK VINA RESULT:      -7.0      7.675     11.595
REMARK  Name = 5440
REMARK  6 active torsions:
REMARK  status: ('A' for Active; 'I' for Inactive)
REMARK    1  A    between atoms: N_2  and  C_18
REMARK    2  A    between atoms: C_10  and  S_15
REMARK    3  A    between atoms: S_15  and  C_16
REMARK    4  A    between atoms: C_18  and  C_19
REMARK    5  A    between atoms: C_19  and  C_20
REMARK    6  A    between atoms: C_20  and  N_21
REMARK                            x       y       z     vdW  Elec       q    Type
REMARK                         _______ _______ _______ _____ _____    ______ ____
ROOT
ATOM      1  S   UNL     1      37.058 -21.275 -19.031  0.00  0.00    -0.084 S 
ATOM      2  N   UNL     1      34.322 -22.466 -18.160  0.00  0.00    -0.286 N 
ATOM      3  C   UNL     1      35.370 -22.575 -17.210  0.00  0.00    +0.058 C 
ATOM      4  C   UNL     1      34.274 -21.521 -19.215  0.00  0.00    +0.058 C 
ATOM      5  C   UNL     1      36.650 -22.051 -17.479  0.00  0.00    +0.043 C 
ATOM      6  C   UNL     1      35.445 -20.894 -19.683  0.00  0.00    +0.043 C 
ATOM      7  C   UNL     1      35.175 -23.173 -15.946  0.00  0.00    +0.021 C 
ATOM      8  C   UNL     1      33.057 -21.138 -19.820  0.00  0.00    +0.015 C 
ATOM      9  C   UNL     1      37.684 -22.154 -16.531  0.00  0.00    +0.008 C 
ATOM     10  C   UNL     1      36.205 -23.269 -15.006  0.00  0.00    +0.026 C 
ATOM     11  C   UNL     1      35.390 -19.949 -20.724  0.00  0.00    +0.008 C 
ATOM     12  C   UNL     1      37.461 -22.761 -15.299  0.00  0.00    +0.007 C 
ATOM     13  C   UNL     1      33.006 -20.196 -20.851  0.00  0.00    +0.001 C 
ATOM     14  C   UNL     1      34.175 -19.604 -21.306  0.00  0.00    +0.001 C 
ENDROOT
BRANCH  10  15
ATOM     15  S   UNL     1      35.901 -24.034 -13.424  0.00  0.00    -0.114 S 
BRANCH  15  16
ATOM     16  C   UNL     1      37.104 -23.181 -12.366  0.00  0.00    +0.062 C 
ATOM     17  C   UNL     1      38.262 -24.100 -12.027  0.00  0.00    +0.013 C 
ENDBRANCH  15  16
ENDBRANCH  10  15
BRANCH   2  18
ATOM     18  C   UNL     1      33.166 -23.356 -17.994  0.00  0.00    +0.093 C 
BRANCH  18  19
ATOM     19  C   UNL     1      31.986 -22.601 -17.383  0.00  0.00    -0.001 C 
BRANCH  19  20
ATOM     20  C   UNL     1      32.047 -22.448 -15.860  0.00  0.00    -0.076 C 
BRANCH  20  21
ATOM     21  N   UNL     1      31.000 -23.218 -15.190  0.00  0.00    +0.384 N 
ATOM     22  N   UNL     1      29.368 -25.576 -14.831  0.00  0.00    +0.383 N 
ATOM     23  C   UNL     1      29.914 -23.543 -16.123  0.00  0.00    -0.101 C 
ATOM     24  C   UNL     1      31.551 -24.443 -14.599  0.00  0.00    -0.101 C 
ATOM     25  C   UNL     1      28.817 -24.352 -15.423  0.00  0.00    -0.101 C 
ATOM     26  C   UNL     1      30.454 -25.251 -13.898  0.00  0.00    -0.101 C 
ATOM     27  C   UNL     1      28.321 -26.344 -14.160  0.00  0.00    -0.101 C 
ATOM     28  H   UNL     1      30.618 -22.642 -14.440  0.00  0.00    -0.080 HD
ATOM     29  H   UNL     1      29.750 -26.153 -15.580  0.00  0.00    -0.080 HD
ENDBRANCH  20  21
ENDBRANCH  19  20
ENDBRANCH  18  19
ENDBRANCH   2  18
TORSDOF 6
ENDMDL
MODEL 9
REMARK VINA RESULT:      -6.9      2.432      7.283
REMARK  Name = 5440
REMARK  6 active torsions:
REMARK  status: ('A' for Active; 'I' for Inactive)
REMARK    1  A    between atoms: N_2  and  C_18
REMARK    2  A    between atoms: C_10  and  S_15
REMARK    3  A    between atoms: S_15  and  C_16
REMARK    4  A    between atoms: C_18  and  C_19
REMARK    5  A    between atoms: C_19  and  C_20
REMARK    6  A    between atoms: C_20  and  N_21
REMARK                            x       y       z     vdW  Elec       q    Type
REMARK                         _______ _______ _______ _____ _____    ______ ____
ROOT
ATOM      1  S   UNL     1      33.036  -8.069 -22.205  0.00  0.00    -0.084 S 
ATOM      2  N   UNL     1      32.143 -11.027 -22.545  0.00  0.00    -0.286 N 
ATOM      3  C   UNL     1      33.066 -10.549 -23.509  0.00  0.00    +0.058 C 
ATOM      4  C   UNL     1      31.951 -10.471 -21.255  0.00  0.00    +0.058 C 
ATOM      5  C   UNL     1      33.563  -9.232 -23.448  0.00  0.00    +0.043 C 
ATOM      6  C   UNL     1      32.337  -9.147 -20.970  0.00  0.00    +0.043 C 
ATOM      7  C   UNL     1      33.557 -11.371 -24.548  0.00  0.00    +0.021 C 
ATOM      8  C   UNL     1      31.402 -11.221 -20.192  0.00  0.00    +0.015 C 
ATOM      9  C   UNL     1      34.485  -8.764 -24.402  0.00  0.00    +0.008 C 
ATOM     10  C   UNL     1      34.476 -10.902 -25.490  0.00  0.00    +0.026 C 
ATOM     11  C   UNL     1      32.153  -8.603 -19.686  0.00  0.00    +0.008 C 
ATOM     12  C   UNL     1      34.939  -9.597 -25.419  0.00  0.00    +0.007 C 
ATOM     13  C   UNL     1      31.224 -10.678 -18.917  0.00  0.00    +0.001 C 
ATOM     14  C   UNL     1      31.598  -9.366 -18.665  0.00  0.00    +0.001 C 
ENDROOT
BRANCH  10  15
ATOM     15  S   UNL     1      35.063 -11.985 -26.780  0.00  0.00    -0.114 S 
BRANCH  15  16
ATOM     16  C   UNL     1      33.529 -12.804 -27.300  0.00  0.00    +0.062 C 
ATOM     17  C   UNL     1      33.412 -14.173 -26.658  0.00  0.00    +0.013 C 
ENDBRANCH  15  16
ENDBRANCH  10  15
BRANCH   2  18
ATOM     18  C   UNL     1      31.378 -12.234 -22.883  0.00  0.00    +0.093 C 
BRANCH  18  19
ATOM     19  C   UNL     1      32.303 -13.445 -23.000  0.00  0.00    -0.001 C 
BRANCH  19  20
ATOM     20  C   UNL     1      32.620 -14.137 -21.670  0.00  0.00    -0.076 C 
BRANCH  20  21
ATOM     21  N   UNL     1      33.270 -15.431 -21.869  0.00  0.00    +0.384 N 
ATOM     22  N   UNL     1      35.572 -17.107 -22.371  0.00  0.00    +0.383 N 
ATOM     23  C   UNL     1      33.880 -15.509 -23.202  0.00  0.00    -0.101 C 
ATOM     24  C   UNL     1      34.278 -15.671 -20.830  0.00  0.00    -0.101 C 
ATOM     25  C   UNL     1      34.564 -16.865 -23.410  0.00  0.00    -0.101 C 
ATOM     26  C   UNL     1      34.962 -17.027 -21.038  0.00  0.00    -0.101 C 
ATOM     27  C   UNL     1      36.220 -18.402 -22.568  0.00  0.00    -0.101 C 
ATOM     28  H   UNL     1      32.556 -16.156 -21.798  0.00  0.00    -0.080 HD
ATOM     29  H   UNL     1      36.286 -16.383 -22.441  0.00  0.00    -0.080 HD
ENDBRANCH  20  21
ENDBRANCH  19  20
ENDBRANCH  18  19
ENDBRANCH   2  18
TORSDOF 6
ENDMDL
