MODEL 1
REMARK VINA RESULT:     -11.2      0.000      0.000
REMARK  Name = 17754104
REMARK  13 active torsions:
REMARK  status: ('A' for Active; 'I' for Inactive)
REMARK    1  A    between atoms: C_1  and  C_29
REMARK    2  A    between atoms: C_3  and  N_11
REMARK    3  A    between atoms: C_4  and  O_7
REMARK    4  A    between atoms: C_5  and  O_9
REMARK    5  A    between atoms: C_13  and  C_14
REMARK    6  A    between atoms: C_13  and  C_17
REMARK    7  A    between atoms: C_14  and  C_16
REMARK    8  A    between atoms: C_17  and  O_18
REMARK    9  A    between atoms: O_18  and  C_21
REMARK   10  A    between atoms: C_29  and  CA_30
REMARK   11  A    between atoms: CA_30  and  N_31
REMARK   12  A    between atoms: CA_30  and  C_36
REMARK   13  A    between atoms: C_36  and  O_37
REMARK                            x       y       z     vdW  Elec       q    Type
REMARK                         _______ _______ _______ _____ _____    ______ ____
ROOT
ATOM      1  C   UNL     1      30.700 -24.003 -15.545  0.00  0.00    +0.012 C 
ATOM      2  C   UNL     1      31.932 -23.363 -15.689  0.00  0.00    +0.019 C 
ATOM      3  C   UNL     1      32.941 -23.576 -14.750  0.00  0.00    +0.090 C 
ATOM      4  C   UNL     1      30.478 -24.855 -14.463  0.00  0.00    +0.133 C 
ATOM      5  C   UNL     1      32.719 -24.428 -13.668  0.00  0.00    +0.152 C 
ATOM      6  C   UNL     1      31.487 -25.066 -13.525  0.00  0.00    +0.074 C 
ENDROOT
BRANCH   3   7
ATOM      7  N   UNL     1      34.169 -22.930 -14.905  0.00  0.00    -0.354 N 
ATOM      8  H   UNL     1      34.210 -22.000 -14.585  0.00  0.00    +0.166 HD
ATOM      9  C   UNL     1      35.325 -23.425 -15.447  0.00  0.00    +0.063 C 
BRANCH   9  10
ATOM     10  C   UNL     1      35.728 -24.709 -15.435  0.00  0.00    +0.115 C 
BRANCH  10  12
ATOM     11  O   UNL     1      36.470 -25.436 -13.310  0.00  0.00    -0.288 OA
ATOM     12  C   UNL     1      36.734 -25.244 -14.492  0.00  0.00    +0.213 C 
ENDBRANCH  10  12
ENDBRANCH   9  10
BRANCH   9  13
ATOM     13  C   UNL     1      36.217 -22.392 -16.095  0.00  0.00    +0.245 C 
BRANCH  13  14
ATOM     14  O   UNL     1      36.424 -22.735 -17.464  0.00  0.00    -0.469 OA
BRANCH  14  17
ATOM     15  C   UNL     1      35.772 -20.293 -20.128  0.00  0.00    +0.003 C 
ATOM     16  C   UNL     1      34.382 -20.479 -20.314  0.00  0.00    +0.000 C 
ATOM     17  C   UNL     1      35.757 -22.000 -18.395  0.00  0.00    +0.139 C 
ATOM     18  C   UNL     1      36.445 -21.062 -19.164  0.00  0.00    +0.037 C 
ATOM     19  C   UNL     1      33.705 -21.429 -19.531  0.00  0.00    +0.003 C 
ATOM     20  C   UNL     1      34.390 -22.184 -18.578  0.00  0.00    +0.037 C 
ATOM     21  C   UNL     1      36.448 -19.344 -20.911  0.00  0.00    +0.000 C 
ATOM     22  C   UNL     1      33.708 -19.711 -21.278  0.00  0.00    +0.000 C 
ATOM     23  C   UNL     1      35.764 -18.588 -21.864  0.00  0.00    +0.000 C 
ATOM     24  C   UNL     1      34.396 -18.772 -22.047  0.00  0.00    +0.000 C 
ENDBRANCH  14  17
ENDBRANCH  13  14
ENDBRANCH   9  13
ENDBRANCH   3   7
BRANCH   4  25
ATOM     25  O   UNL     1      29.282 -25.488 -14.309  0.00  0.00    -0.506 OA
ATOM     26  H   UNL     1      28.527 -25.005 -14.038  0.00  0.00    +0.292 HD
ENDBRANCH   4  25
BRANCH   5  27
ATOM     27  O   UNL     1      33.693 -24.648 -12.740  0.00  0.00    -0.504 OA
ATOM     28  H   UNL     1      33.466 -24.743 -11.836  0.00  0.00    +0.292 HD
ENDBRANCH   5  27
BRANCH   1  29
ATOM     29  C   UNL     1      29.630 -23.763 -16.558  0.00  0.00    +0.018 C 
BRANCH  29  30
ATOM     30  CA  UNL     1      28.905 -22.411 -16.381  0.00  0.00    +0.040 C 
BRANCH  30  31
ATOM     31  N   UNL     1      28.560 -22.200 -14.977  0.00  0.00    +0.389 N 
ATOM     32  H1  UNL     1      28.895 -22.987 -14.422  0.00  0.00    -0.088 HD
ATOM     33  H2  UNL     1      27.547 -22.124 -14.883  0.00  0.00    -0.088 HD
ATOM     34  H3  UNL     1      28.998 -21.340 -14.646  0.00  0.00    -0.088 HD
ENDBRANCH  30  31
BRANCH  30  36
ATOM     35  OXT UNL     1      26.833 -21.409 -17.179  0.00  0.00    -0.253 OA
ATOM     36  C   UNL     1      27.602 -22.362 -17.161  0.00  0.00    +0.293 C 
BRANCH  36  37
ATOM     37  O   UNL     1      27.387 -23.494 -17.881  0.00  0.00    -0.482 OA
ATOM     38  H   UNL     1      27.567 -24.331 -17.501  0.00  0.00    +0.295 HD
ENDBRANCH  36  37
ENDBRANCH  30  36
ENDBRANCH  29  30
ENDBRANCH   1  29
TORSDOF 13
ENDMDL
MODEL 2
REMARK VINA RESULT:     -10.4      3.215      6.295
REMARK  Name = 17754104
REMARK  13 active torsions:
REMARK  status: ('A' for Active; 'I' for Inactive)
REMARK    1  A    between atoms: C_1  and  C_29
REMARK    2  A    between atoms: C_3  and  N_11
REMARK    3  A    between atoms: C_4  and  O_7
REMARK    4  A    between atoms: C_5  and  O_9
REMARK    5  A    between atoms: C_13  and  C_14
REMARK    6  A    between atoms: C_13  and  C_17
REMARK    7  A    between atoms: C_14  and  C_16
REMARK    8  A    between atoms: C_17  and  O_18
REMARK    9  A    between atoms: O_18  and  C_21
REMARK   10  A    between atoms: C_29  and  CA_30
REMARK   11  A    between atoms: CA_30  and  N_31
REMARK   12  A    between atoms: CA_30  and  C_36
REMARK   13  A    between atoms: C_36  and  O_37
REMARK                            x       y       z     vdW  Elec       q    Type
REMARK                         _______ _______ _______ _____ _____    ______ ____
ROOT
ATOM      1  C   UNL     1      36.831 -25.574 -13.763  0.00  0.00    +0.012 C 
ATOM      2  C   UNL     1      35.976 -25.108 -14.762  0.00  0.00    +0.019 C 
ATOM      3  C   UNL     1      34.816 -24.415 -14.418  0.00  0.00    +0.090 C 
ATOM      4  C   UNL     1      36.526 -25.347 -12.421  0.00  0.00    +0.133 C 
ATOM      5  C   UNL     1      34.510 -24.188 -13.076  0.00  0.00    +0.152 C 
ATOM      6  C   UNL     1      35.366 -24.655 -12.078  0.00  0.00    +0.074 C 
ENDROOT
BRANCH   3   7
ATOM      7  N   UNL     1      33.968 -23.953 -15.427  0.00  0.00    -0.354 N 
ATOM      8  H   UNL     1      33.040 -24.279 -15.392  0.00  0.00    +0.166 HD
ATOM      9  C   UNL     1      34.264 -23.105 -16.460  0.00  0.00    +0.063 C 
BRANCH   9  10
ATOM     10  C   UNL     1      35.183 -22.122 -16.450  0.00  0.00    +0.115 C 
BRANCH  10  12
ATOM     11  O   UNL     1      37.464 -22.058 -15.824  0.00  0.00    -0.288 OA
ATOM     12  C   UNL     1      36.628 -22.348 -16.673  0.00  0.00    +0.213 C 
ENDBRANCH  10  12
ENDBRANCH   9  10
BRANCH   9  13
ATOM     13  C   UNL     1      33.439 -23.311 -17.710  0.00  0.00    +0.245 C 
BRANCH  13  14
ATOM     14  O   UNL     1      34.272 -23.158 -18.858  0.00  0.00    -0.469 OA
BRANCH  14  17
ATOM     15  C   UNL     1      35.343 -20.129 -20.638  0.00  0.00    +0.003 C 
ATOM     16  C   UNL     1      34.094 -19.502 -20.854  0.00  0.00    +0.000 C 
ATOM     17  C   UNL     1      34.213 -21.965 -19.511  0.00  0.00    +0.139 C 
ATOM     18  C   UNL     1      35.386 -21.362 -19.964  0.00  0.00    +0.037 C 
ATOM     19  C   UNL     1      32.923 -20.124 -20.391  0.00  0.00    +0.003 C 
ATOM     20  C   UNL     1      32.984 -21.348 -19.724  0.00  0.00    +0.037 C 
ATOM     21  C   UNL     1      36.514 -19.507 -21.101  0.00  0.00    +0.000 C 
ATOM     22  C   UNL     1      34.051 -18.270 -21.528  0.00  0.00    +0.000 C 
ATOM     23  C   UNL     1      36.454 -18.283 -21.769  0.00  0.00    +0.000 C 
ATOM     24  C   UNL     1      35.224 -17.666 -21.982  0.00  0.00    +0.000 C 
ENDBRANCH  14  17
ENDBRANCH  13  14
ENDBRANCH   9  13
ENDBRANCH   3   7
BRANCH   4  25
ATOM     25  O   UNL     1      37.352 -25.795 -11.434  0.00  0.00    -0.506 OA
ATOM     26  H   UNL     1      38.280 -25.703 -11.521  0.00  0.00    +0.292 HD
ENDBRANCH   4  25
BRANCH   5  27
ATOM     27  O   UNL     1      33.382 -23.513 -12.720  0.00  0.00    -0.504 OA
ATOM     28  H   UNL     1      32.551 -23.772 -13.067  0.00  0.00    +0.292 HD
ENDBRANCH   5  27
BRANCH   1  29
ATOM     29  C   UNL     1      38.068 -26.316 -14.149  0.00  0.00    +0.018 C 
BRANCH  29  30
ATOM     30  CA  UNL     1      39.320 -25.418 -14.248  0.00  0.00    +0.040 C 
BRANCH  30  31
ATOM     31  N   UNL     1      39.092 -24.331 -15.198  0.00  0.00    +0.389 N 
ATOM     32  H1  UNL     1      39.585 -23.496 -14.882  0.00  0.00    -0.088 HD
ATOM     33  H2  UNL     1      38.094 -24.135 -15.257  0.00  0.00    -0.088 HD
ATOM     34  H3  UNL     1      39.442 -24.604 -16.116  0.00  0.00    -0.088 HD
ENDBRANCH  30  31
BRANCH  30  36
ATOM     35  OXT UNL     1      41.299 -26.824 -14.042  0.00  0.00    -0.253 OA
ATOM     36  C   UNL     1      40.530 -26.188 -14.751  0.00  0.00    +0.293 C 
BRANCH  36  37
ATOM     37  O   UNL     1      40.655 -26.128 -16.103  0.00  0.00    -0.482 OA
ATOM     38  H   UNL     1      41.062 -26.832 -16.567  0.00  0.00    +0.295 HD
ENDBRANCH  36  37
ENDBRANCH  30  36
ENDBRANCH  29  30
ENDBRANCH   1  29
TORSDOF 13
ENDMDL
MODEL 3
REMARK VINA RESULT:     -10.2      2.198      6.372
REMARK  Name = 17754104
REMARK  13 active torsions:
REMARK  status: ('A' for Active; 'I' for Inactive)
REMARK    1  A    between atoms: C_1  and  C_29
REMARK    2  A    between atoms: C_3  and  N_11
REMARK    3  A    between atoms: C_4  and  O_7
REMARK    4  A    between atoms: C_5  and  O_9
REMARK    5  A    between atoms: C_13  and  C_14
REMARK    6  A    between atoms: C_13  and  C_17
REMARK    7  A    between atoms: C_14  and  C_16
REMARK    8  A    between atoms: C_17  and  O_18
REMARK    9  A    between atoms: O_18  and  C_21
REMARK   10  A    between atoms: C_29  and  CA_30
REMARK   11  A    between atoms: CA_30  and  N_31
REMARK   12  A    between atoms: CA_30  and  C_36
REMARK   13  A    between atoms: C_36  and  O_37
REMARK                            x       y       z     vdW  Elec       q    Type
REMARK                         _______ _______ _______ _____ _____    ______ ____
ROOT
ATOM      1  C   UNL     1      36.738 -24.352 -13.624  0.00  0.00    +0.012 C 
ATOM      2  C   UNL     1      35.863 -24.267 -14.707  0.00  0.00    +0.019 C 
ATOM      3  C   UNL     1      34.485 -24.325 -14.496  0.00  0.00    +0.090 C 
ATOM      4  C   UNL     1      36.236 -24.494 -12.331  0.00  0.00    +0.133 C 
ATOM      5  C   UNL     1      33.983 -24.467 -13.202  0.00  0.00    +0.152 C 
ATOM      6  C   UNL     1      34.859 -24.553 -12.120  0.00  0.00    +0.074 C 
ENDROOT
BRANCH   3   7
ATOM      7  N   UNL     1      33.619 -24.238 -15.589  0.00  0.00    -0.354 N 
ATOM      8  H   UNL     1      33.670 -24.976 -16.237  0.00  0.00    +0.166 HD
ATOM      9  C   UNL     1      32.709 -23.255 -15.872  0.00  0.00    +0.063 C 
BRANCH   9  10
ATOM     10  C   UNL     1      32.047 -22.496 -14.980  0.00  0.00    +0.115 C 
BRANCH  10  12
ATOM     11  O   UNL     1      30.128 -23.801 -14.522  0.00  0.00    -0.288 OA
ATOM     12  C   UNL     1      30.620 -22.684 -14.642  0.00  0.00    +0.213 C 
ENDBRANCH  10  12
ENDBRANCH   9  10
BRANCH   9  13
ATOM     13  C   UNL     1      32.433 -23.050 -17.344  0.00  0.00    +0.245 C 
BRANCH  13  14
ATOM     14  O   UNL     1      33.583 -23.427 -18.099  0.00  0.00    -0.469 OA
BRANCH  14  17
ATOM     15  C   UNL     1      34.269 -20.558 -20.288  0.00  0.00    +0.003 C 
ATOM     16  C   UNL     1      35.654 -20.383 -20.056  0.00  0.00    +0.000 C 
ATOM     17  C   UNL     1      34.259 -22.432 -18.737  0.00  0.00    +0.139 C 
ATOM     18  C   UNL     1      33.586 -21.588 -19.619  0.00  0.00    +0.037 C 
ATOM     19  C   UNL     1      36.316 -21.243 -19.163  0.00  0.00    +0.003 C 
ATOM     20  C   UNL     1      35.621 -22.260 -18.509  0.00  0.00    +0.037 C 
ATOM     21  C   UNL     1      33.608 -19.699 -21.180  0.00  0.00    +0.000 C 
ATOM     22  C   UNL     1      36.338 -19.354 -20.723  0.00  0.00    +0.000 C 
ATOM     23  C   UNL     1      34.302 -18.681 -21.835  0.00  0.00    +0.000 C 
ATOM     24  C   UNL     1      35.664 -18.509 -21.606  0.00  0.00    +0.000 C 
ENDBRANCH  14  17
ENDBRANCH  13  14
ENDBRANCH   9  13
ENDBRANCH   3   7
BRANCH   4  25
ATOM     25  O   UNL     1      37.077 -24.578 -11.262  0.00  0.00    -0.506 OA
ATOM     26  H   UNL     1      37.898 -24.126 -11.276  0.00  0.00    +0.292 HD
ENDBRANCH   4  25
BRANCH   5  27
ATOM     27  O   UNL     1      32.641 -24.525 -12.975  0.00  0.00    -0.504 OA
ATOM     28  H   UNL     1      32.042 -24.193 -13.615  0.00  0.00    +0.292 HD
ENDBRANCH   5  27
BRANCH   1  29
ATOM     29  C   UNL     1      38.210 -24.291 -13.869  0.00  0.00    +0.018 C 
BRANCH  29  30
ATOM     30  CA  UNL     1      38.732 -25.423 -14.778  0.00  0.00    +0.040 C 
BRANCH  30  31
ATOM     31  N   UNL     1      38.479 -26.726 -14.165  0.00  0.00    +0.389 N 
ATOM     32  H1  UNL     1      38.785 -27.464 -14.799  0.00  0.00    -0.088 HD
ATOM     33  H2  UNL     1      37.482 -26.828 -13.981  0.00  0.00    -0.088 HD
ATOM     34  H3  UNL     1      38.997 -26.794 -13.289  0.00  0.00    -0.088 HD
ENDBRANCH  30  31
BRANCH  30  36
ATOM     35  OXT UNL     1      41.005 -24.706 -14.277  0.00  0.00    -0.253 OA
ATOM     36  C   UNL     1      40.233 -25.329 -14.995  0.00  0.00    +0.293 C 
BRANCH  36  37
ATOM     37  O   UNL     1      40.646 -26.049 -16.070  0.00  0.00    -0.482 OA
ATOM     38  H   UNL     1      40.556 -26.981 -16.071  0.00  0.00    +0.295 HD
ENDBRANCH  36  37
ENDBRANCH  30  36
ENDBRANCH  29  30
ENDBRANCH   1  29
TORSDOF 13
ENDMDL
MODEL 4
REMARK VINA RESULT:     -10.0      6.355     10.674
REMARK  Name = 17754104
REMARK  13 active torsions:
REMARK  status: ('A' for Active; 'I' for Inactive)
REMARK    1  A    between atoms: C_1  and  C_29
REMARK    2  A    between atoms: C_3  and  N_11
REMARK    3  A    between atoms: C_4  and  O_7
REMARK    4  A    between atoms: C_5  and  O_9
REMARK    5  A    between atoms: C_13  and  C_14
REMARK    6  A    between atoms: C_13  and  C_17
REMARK    7  A    between atoms: C_14  and  C_16
REMARK    8  A    between atoms: C_17  and  O_18
REMARK    9  A    between atoms: O_18  and  C_21
REMARK   10  A    between atoms: C_29  and  CA_30
REMARK   11  A    between atoms: CA_30  and  N_31
REMARK   12  A    between atoms: CA_30  and  C_36
REMARK   13  A    between atoms: C_36  and  O_37
REMARK                            x       y       z     vdW  Elec       q    Type
REMARK                         _______ _______ _______ _____ _____    ______ ____
ROOT
ATOM      1  C   UNL     1      33.661 -13.978 -24.450  0.00  0.00    +0.012 C 
ATOM      2  C   UNL     1      34.507 -14.736 -23.641  0.00  0.00    +0.019 C 
ATOM      3  C   UNL     1      34.803 -16.055 -23.986  0.00  0.00    +0.090 C 
ATOM      4  C   UNL     1      33.113 -14.538 -25.604  0.00  0.00    +0.133 C 
ATOM      5  C   UNL     1      34.255 -16.615 -25.139  0.00  0.00    +0.152 C 
ATOM      6  C   UNL     1      33.409 -15.856 -25.947  0.00  0.00    +0.074 C 
ENDROOT
BRANCH   3   7
ATOM      7  N   UNL     1      35.652 -16.804 -23.166  0.00  0.00    -0.354 N 
ATOM      8  H   UNL     1      36.579 -16.902 -23.483  0.00  0.00    +0.166 HD
ATOM      9  C   UNL     1      35.358 -17.419 -21.979  0.00  0.00    +0.063 C 
BRANCH   9  10
ATOM     10  C   UNL     1      34.443 -17.021 -21.077  0.00  0.00    +0.115 C 
BRANCH  10  12
ATOM     11  O   UNL     1      33.564 -14.981 -20.261  0.00  0.00    -0.288 OA
ATOM     12  C   UNL     1      34.523 -15.743 -20.336  0.00  0.00    +0.213 C 
ENDBRANCH  10  12
ENDBRANCH   9  10
BRANCH   9  13
ATOM     13  C   UNL     1      36.181 -18.651 -21.680  0.00  0.00    +0.245 C 
BRANCH  13  14
ATOM     14  O   UNL     1      35.325 -19.790 -21.622  0.00  0.00    -0.469 OA
BRANCH  14  17
ATOM     15  C   UNL     1      34.185 -21.866 -18.815  0.00  0.00    +0.003 C 
ATOM     16  C   UNL     1      35.401 -22.044 -18.115  0.00  0.00    +0.000 C 
ATOM     17  C   UNL     1      35.350 -20.527 -20.478  0.00  0.00    +0.139 C 
ATOM     18  C   UNL     1      34.176 -21.104 -19.995  0.00  0.00    +0.037 C 
ATOM     19  C   UNL     1      36.575 -21.455 -18.615  0.00  0.00    +0.003 C 
ATOM     20  C   UNL     1      36.548 -20.702 -19.789  0.00  0.00    +0.037 C 
ATOM     21  C   UNL     1      33.012 -22.455 -18.315  0.00  0.00    +0.000 C 
ATOM     22  C   UNL     1      35.411 -22.805 -16.934  0.00  0.00    +0.000 C 
ATOM     23  C   UNL     1      33.039 -23.209 -17.141  0.00  0.00    +0.000 C 
ATOM     24  C   UNL     1      34.236 -23.383 -16.452  0.00  0.00    +0.000 C 
ENDBRANCH  14  17
ENDBRANCH  13  14
ENDBRANCH   9  13
ENDBRANCH   3   7
BRANCH   4  25
ATOM     25  O   UNL     1      32.286 -13.810 -26.406  0.00  0.00    -0.506 OA
ATOM     26  H   UNL     1      32.512 -13.664 -27.303  0.00  0.00    +0.292 HD
ENDBRANCH   4  25
BRANCH   5  27
ATOM     27  O   UNL     1      34.532 -17.901 -25.493  0.00  0.00    -0.504 OA
ATOM     28  H   UNL     1      34.002 -18.337 -26.130  0.00  0.00    +0.292 HD
ENDBRANCH   5  27
BRANCH   1  29
ATOM     29  C   UNL     1      33.353 -12.568 -24.065  0.00  0.00    +0.018 C 
BRANCH  29  30
ATOM     30  CA  UNL     1      32.748 -12.434 -22.651  0.00  0.00    +0.040 C 
BRANCH  30  31
ATOM     31  N   UNL     1      31.896 -13.582 -22.351  0.00  0.00    +0.389 N 
ATOM     32  H1  UNL     1      32.472 -14.354 -22.015  0.00  0.00    -0.088 HD
ATOM     33  H2  UNL     1      31.401 -13.869 -23.195  0.00  0.00    -0.088 HD
ATOM     34  H3  UNL     1      31.221 -13.325 -21.630  0.00  0.00    -0.088 HD
ENDBRANCH  30  31
BRANCH  30  36
ATOM     35  OXT UNL     1      32.179 -10.080 -22.919  0.00  0.00    -0.253 OA
ATOM     36  C   UNL     1      31.871 -11.199 -22.527  0.00  0.00    +0.293 C 
BRANCH  36  37
ATOM     37  O   UNL     1      30.670 -11.473 -21.955  0.00  0.00    -0.482 OA
ATOM     38  H   UNL     1      29.881 -11.161 -22.352  0.00  0.00    +0.295 HD
ENDBRANCH  36  37
ENDBRANCH  30  36
ENDBRANCH  29  30
ENDBRANCH   1  29
TORSDOF 13
ENDMDL
MODEL 5
REMARK VINA RESULT:      -9.7     11.719     15.504
REMARK  Name = 17754104
REMARK  13 active torsions:
REMARK  status: ('A' for Active; 'I' for Inactive)
REMARK    1  A    between atoms: C_1  and  C_29
REMARK    2  A    between atoms: C_3  and  N_11
REMARK    3  A    between atoms: C_4  and  O_7
REMARK    4  A    between atoms: C_5  and  O_9
REMARK    5  A    between atoms: C_13  and  C_14
REMARK    6  A    between atoms: C_13  and  C_17
REMARK    7  A    between atoms: C_14  and  C_16
REMARK    8  A    between atoms: C_17  and  O_18
REMARK    9  A    between atoms: O_18  and  C_21
REMARK   10  A    between atoms: C_29  and  CA_30
REMARK   11  A    between atoms: CA_30  and  N_31
REMARK   12  A    between atoms: CA_30  and  C_36
REMARK   13  A    between atoms: C_36  and  O_37
REMARK                            x       y       z     vdW  Elec       q    Type
REMARK                         _______ _______ _______ _____ _____    ______ ____
ROOT
ATOM      1  C   UNL     1      31.344  -6.282 -23.248  0.00  0.00    +0.012 C 
ATOM      2  C   UNL     1      31.861  -7.570 -23.387  0.00  0.00    +0.019 C 
ATOM      3  C   UNL     1      32.365  -8.242 -22.273  0.00  0.00    +0.090 C 
ATOM      4  C   UNL     1      31.329  -5.667 -21.996  0.00  0.00    +0.133 C 
ATOM      5  C   UNL     1      32.350  -7.628 -21.021  0.00  0.00    +0.152 C 
ATOM      6  C   UNL     1      31.833  -6.340 -20.883  0.00  0.00    +0.074 C 
ENDROOT
BRANCH   3   7
ATOM      7  N   UNL     1      32.881  -9.532 -22.427  0.00  0.00    -0.354 N 
ATOM      8  H   UNL     1      33.860  -9.598 -22.496  0.00  0.00    +0.166 HD
ATOM      9  C   UNL     1      32.196 -10.715 -22.493  0.00  0.00    +0.063 C 
BRANCH   9  10
ATOM     10  C   UNL     1      31.022 -10.995 -21.898  0.00  0.00    +0.115 C 
BRANCH  10  12
ATOM     11  O   UNL     1      31.791 -10.978 -19.661  0.00  0.00    -0.288 OA
ATOM     12  C   UNL     1      30.863 -11.173 -20.439  0.00  0.00    +0.213 C 
ENDBRANCH  10  12
ENDBRANCH   9  10
BRANCH   9  13
ATOM     13  C   UNL     1      32.871 -11.796 -23.306  0.00  0.00    +0.245 C 
BRANCH  13  14
ATOM     14  O   UNL     1      32.181 -13.031 -23.119  0.00  0.00    -0.469 OA
BRANCH  14  17
ATOM     15  C   UNL     1      34.230 -16.073 -22.932  0.00  0.00    +0.003 C 
ATOM     16  C   UNL     1      34.365 -16.207 -21.530  0.00  0.00    +0.000 C 
ATOM     17  C   UNL     1      32.895 -14.067 -22.600  0.00  0.00    +0.139 C 
ATOM     18  C   UNL     1      33.492 -14.996 -23.451  0.00  0.00    +0.037 C 
ATOM     19  C   UNL     1      33.757 -15.262 -20.687  0.00  0.00    +0.003 C 
ATOM     20  C   UNL     1      33.027 -14.199 -21.220  0.00  0.00    +0.037 C 
ATOM     21  C   UNL     1      34.838 -17.018 -23.774  0.00  0.00    +0.000 C 
ATOM     22  C   UNL     1      35.103 -17.284 -21.010  0.00  0.00    +0.000 C 
ATOM     23  C   UNL     1      35.568 -18.081 -23.242  0.00  0.00    +0.000 C 
ATOM     24  C   UNL     1      35.700 -18.213 -21.862  0.00  0.00    +0.000 C 
ENDBRANCH  14  17
ENDBRANCH  13  14
ENDBRANCH   9  13
ENDBRANCH   3   7
BRANCH   4  25
ATOM     25  O   UNL     1      30.825  -4.411 -21.842  0.00  0.00    -0.506 OA
ATOM     26  H   UNL     1      30.084  -4.137 -22.347  0.00  0.00    +0.292 HD
ENDBRANCH   4  25
BRANCH   5  27
ATOM     27  O   UNL     1      32.837  -8.269 -19.922  0.00  0.00    -0.504 OA
ATOM     28  H   UNL     1      33.493  -8.931 -20.017  0.00  0.00    +0.292 HD
ENDBRANCH   5  27
BRANCH   1  29
ATOM     29  C   UNL     1      30.811  -5.575 -24.450  0.00  0.00    +0.018 C 
BRANCH  29  30
ATOM     30  CA  UNL     1      31.518  -4.233 -24.741  0.00  0.00    +0.040 C 
BRANCH  30  31
ATOM     31  N   UNL     1      30.550  -3.139 -24.747  0.00  0.00    +0.389 N 
ATOM     32  H1  UNL     1      29.615  -3.513 -24.913  0.00  0.00    -0.088 HD
ATOM     33  H2  UNL     1      30.788  -2.478 -25.487  0.00  0.00    -0.088 HD
ATOM     34  H3  UNL     1      30.569  -2.663 -23.845  0.00  0.00    -0.088 HD
ENDBRANCH  30  31
BRANCH  30  36
ATOM     35  OXT UNL     1      32.031  -3.367 -26.958  0.00  0.00    -0.253 OA
ATOM     36  C   UNL     1      32.186  -4.231 -26.105  0.00  0.00    +0.293 C 
BRANCH  36  37
ATOM     37  O   UNL     1      33.021  -5.290 -26.274  0.00  0.00    -0.482 OA
ATOM     38  H   UNL     1      33.504  -5.625 -25.545  0.00  0.00    +0.295 HD
ENDBRANCH  36  37
ENDBRANCH  30  36
ENDBRANCH  29  30
ENDBRANCH   1  29
TORSDOF 13
ENDMDL
MODEL 6
REMARK VINA RESULT:      -9.7      7.604     11.382
REMARK  Name = 17754104
REMARK  13 active torsions:
REMARK  status: ('A' for Active; 'I' for Inactive)
REMARK    1  A    between atoms: C_1  and  C_29
REMARK    2  A    between atoms: C_3  and  N_11
REMARK    3  A    between atoms: C_4  and  O_7
REMARK    4  A    between atoms: C_5  and  O_9
REMARK    5  A    between atoms: C_13  and  C_14
REMARK    6  A    between atoms: C_13  and  C_17
REMARK    7  A    between atoms: C_14  and  C_16
REMARK    8  A    between atoms: C_17  and  O_18
REMARK    9  A    between atoms: O_18  and  C_21
REMARK   10  A    between atoms: C_29  and  CA_30
REMARK   11  A    between atoms: CA_30  and  N_31
REMARK   12  A    between atoms: CA_30  and  C_36
REMARK   13  A    between atoms: C_36  and  O_37
REMARK                            x       y       z     vdW  Elec       q    Type
REMARK                         _______ _______ _______ _____ _____    ______ ____
ROOT
ATOM      1  C   UNL     1      34.029 -18.832 -21.709  0.00  0.00    +0.012 C 
ATOM      2  C   UNL     1      33.767 -17.567 -21.184  0.00  0.00    +0.019 C 
ATOM      3  C   UNL     1      34.282 -16.432 -21.810  0.00  0.00    +0.090 C 
ATOM      4  C   UNL     1      34.805 -18.962 -22.861  0.00  0.00    +0.133 C 
ATOM      5  C   UNL     1      35.058 -16.562 -22.961  0.00  0.00    +0.152 C 
ATOM      6  C   UNL     1      35.320 -17.827 -23.486  0.00  0.00    +0.074 C 
ENDROOT
BRANCH   3   7
ATOM      7  N   UNL     1      34.011 -15.170 -21.273  0.00  0.00    -0.354 N 
ATOM      8  H   UNL     1      34.633 -14.857 -20.578  0.00  0.00    +0.166 HD
ATOM      9  C   UNL     1      32.991 -14.315 -21.593  0.00  0.00    +0.063 C 
BRANCH   9  10
ATOM     10  C   UNL     1      32.386 -14.202 -22.789  0.00  0.00    +0.115 C 
BRANCH  10  12
ATOM     11  O   UNL     1      34.082 -12.966 -23.880  0.00  0.00    -0.288 OA
ATOM     12  C   UNL     1      32.965 -13.469 -23.936  0.00  0.00    +0.213 C 
ENDBRANCH  10  12
ENDBRANCH   9  10
BRANCH   9  13
ATOM     13  C   UNL     1      32.544 -13.410 -20.467  0.00  0.00    +0.245 C 
BRANCH  13  14
ATOM     14  O   UNL     1      31.469 -12.588 -20.918  0.00  0.00    -0.469 OA
BRANCH  14  17
ATOM     15  C   UNL     1      31.878  -9.081 -21.927  0.00  0.00    +0.003 C 
ATOM     16  C   UNL     1      32.000  -8.461 -20.661  0.00  0.00    +0.000 C 
ATOM     17  C   UNL     1      31.642 -11.241 -20.834  0.00  0.00    +0.139 C 
ATOM     18  C   UNL     1      31.698 -10.472 -21.996  0.00  0.00    +0.037 C 
ATOM     19  C   UNL     1      31.941  -9.251 -19.501  0.00  0.00    +0.003 C 
ATOM     20  C   UNL     1      31.762 -10.632 -19.588  0.00  0.00    +0.037 C 
ATOM     21  C   UNL     1      31.938  -8.291 -23.087  0.00  0.00    +0.000 C 
ATOM     22  C   UNL     1      32.180  -7.070 -20.591  0.00  0.00    +0.000 C 
ATOM     23  C   UNL     1      32.116  -6.910 -23.000  0.00  0.00    +0.000 C 
ATOM     24  C   UNL     1      32.237  -6.301 -21.754  0.00  0.00    +0.000 C 
ENDBRANCH  14  17
ENDBRANCH  13  14
ENDBRANCH   9  13
ENDBRANCH   3   7
BRANCH   4  25
ATOM     25  O   UNL     1      35.070 -20.190 -23.387  0.00  0.00    -0.506 OA
ATOM     26  H   UNL     1      35.836 -20.321 -23.911  0.00  0.00    +0.292 HD
ENDBRANCH   4  25
BRANCH   5  27
ATOM     27  O   UNL     1      35.569 -15.465 -23.588  0.00  0.00    -0.504 OA
ATOM     28  H   UNL     1      36.221 -14.943 -23.162  0.00  0.00    +0.292 HD
ENDBRANCH   5  27
BRANCH   1  29
ATOM     29  C   UNL     1      33.472 -20.037 -21.025  0.00  0.00    +0.018 C 
BRANCH  29  30
ATOM     30  CA  UNL     1      34.389 -20.594 -19.915  0.00  0.00    +0.040 C 
BRANCH  30  31
ATOM     31  N   UNL     1      35.716 -20.887 -20.450  0.00  0.00    +0.389 N 
ATOM     32  H1  UNL     1      36.367 -20.155 -20.164  0.00  0.00    -0.088 HD
ATOM     33  H2  UNL     1      35.672 -20.925 -21.468  0.00  0.00    -0.088 HD
ATOM     34  H3  UNL     1      36.037 -21.786 -20.089  0.00  0.00    -0.088 HD
ENDBRANCH  30  31
BRANCH  30  36
ATOM     35  OXT UNL     1      32.708 -22.069 -18.946  0.00  0.00    -0.253 OA
ATOM     36  C   UNL     1      33.855 -21.896 -19.342  0.00  0.00    +0.293 C 
BRANCH  36  37
ATOM     37  O   UNL     1      34.788 -22.884 -19.344  0.00  0.00    -0.482 OA
ATOM     38  H   UNL     1      35.158 -23.179 -18.536  0.00  0.00    +0.295 HD
ENDBRANCH  36  37
ENDBRANCH  30  36
ENDBRANCH  29  30
ENDBRANCH   1  29
TORSDOF 13
ENDMDL
MODEL 7
REMARK VINA RESULT:      -9.6      8.360     12.393
REMARK  Name = 17754104
REMARK  13 active torsions:
REMARK  status: ('A' for Active; 'I' for Inactive)
REMARK    1  A    between atoms: C_1  and  C_29
REMARK    2  A    between atoms: C_3  and  N_11
REMARK    3  A    between atoms: C_4  and  O_7
REMARK    4  A    between atoms: C_5  and  O_9
REMARK    5  A    between atoms: C_13  and  C_14
REMARK    6  A    between atoms: C_13  and  C_17
REMARK    7  A    between atoms: C_14  and  C_16
REMARK    8  A    between atoms: C_17  and  O_18
REMARK    9  A    between atoms: O_18  and  C_21
REMARK   10  A    between atoms: C_29  and  CA_30
REMARK   11  A    between atoms: CA_30  and  N_31
REMARK   12  A    between atoms: CA_30  and  C_36
REMARK   13  A    between atoms: C_36  and  O_37
REMARK                            x       y       z     vdW  Elec       q    Type
REMARK                         _______ _______ _______ _____ _____    ______ ____
ROOT
ATOM      1  C   UNL     1      32.338 -10.584 -22.576  0.00  0.00    +0.012 C 
ATOM      2  C   UNL     1      32.851 -11.882 -22.571  0.00  0.00    +0.019 C 
ATOM      3  C   UNL     1      33.618 -12.332 -23.645  0.00  0.00    +0.090 C 
ATOM      4  C   UNL     1      32.594  -9.738 -23.655  0.00  0.00    +0.133 C 
ATOM      5  C   UNL     1      33.873 -11.486 -24.724  0.00  0.00    +0.152 C 
ATOM      6  C   UNL     1      33.360 -10.189 -24.728  0.00  0.00    +0.074 C 
ENDROOT
BRANCH   3   7
ATOM      7  N   UNL     1      34.125 -13.634 -23.627  0.00  0.00    -0.354 N 
ATOM      8  H   UNL     1      34.935 -13.787 -24.165  0.00  0.00    +0.166 HD
ATOM      9  C   UNL     1      33.638 -14.724 -22.957  0.00  0.00    +0.063 C 
BRANCH   9  10
ATOM     10  C   UNL     1      32.966 -14.712 -21.791  0.00  0.00    +0.115 C 
BRANCH  10  12
ATOM     11  O   UNL     1      34.822 -14.924 -20.340  0.00  0.00    -0.288 OA
ATOM     12  C   UNL     1      33.602 -14.931 -20.475  0.00  0.00    +0.213 C 
ENDBRANCH  10  12
ENDBRANCH   9  10
BRANCH   9  13
ATOM     13  C   UNL     1      33.924 -16.055 -23.614  0.00  0.00    +0.245 C 
BRANCH  13  14
ATOM     14  O   UNL     1      35.224 -16.502 -23.231  0.00  0.00    -0.469 OA
BRANCH  14  17
ATOM     15  C   UNL     1      34.168 -19.331 -21.140  0.00  0.00    +0.003 C 
ATOM     16  C   UNL     1      35.426 -19.836 -20.736  0.00  0.00    +0.000 C 
ATOM     17  C   UNL     1      35.290 -17.591 -22.418  0.00  0.00    +0.139 C 
ATOM     18  C   UNL     1      34.117 -18.207 -21.982  0.00  0.00    +0.037 C 
ATOM     19  C   UNL     1      36.597 -19.203 -21.184  0.00  0.00    +0.003 C 
ATOM     20  C   UNL     1      36.528 -18.088 -22.020  0.00  0.00    +0.037 C 
ATOM     21  C   UNL     1      32.997 -19.963 -20.692  0.00  0.00    +0.000 C 
ATOM     22  C   UNL     1      35.477 -20.959 -19.894  0.00  0.00    +0.000 C 
ATOM     23  C   UNL     1      33.065 -21.079 -19.856  0.00  0.00    +0.000 C 
ATOM     24  C   UNL     1      34.303 -21.575 -19.459  0.00  0.00    +0.000 C 
ENDBRANCH  14  17
ENDBRANCH  13  14
ENDBRANCH   9  13
ENDBRANCH   3   7
BRANCH   4  25
ATOM     25  O   UNL     1      32.102  -8.467 -23.674  0.00  0.00    -0.506 OA
ATOM     26  H   UNL     1      32.676  -7.745 -23.837  0.00  0.00    +0.292 HD
ENDBRANCH   4  25
BRANCH   5  27
ATOM     27  O   UNL     1      34.621 -11.907 -25.782  0.00  0.00    -0.504 OA
ATOM     28  H   UNL     1      35.313 -11.369 -26.112  0.00  0.00    +0.292 HD
ENDBRANCH   5  27
BRANCH   1  29
ATOM     29  C   UNL     1      31.517 -10.119 -21.419  0.00  0.00    +0.018 C 
BRANCH  29  30
ATOM     30  CA  UNL     1      32.349  -9.459 -20.298  0.00  0.00    +0.040 C 
BRANCH  30  31
ATOM     31  N   UNL     1      31.780  -9.772 -18.990  0.00  0.00    +0.389 N 
ATOM     32  H1  UNL     1      31.959 -10.751 -18.767  0.00  0.00    -0.088 HD
ATOM     33  H2  UNL     1      30.774  -9.605 -19.007  0.00  0.00    -0.088 HD
ATOM     34  H3  UNL     1      32.212  -9.178 -18.281  0.00  0.00    -0.088 HD
ENDBRANCH  30  31
BRANCH  30  36
ATOM     35  OXT UNL     1      31.670  -7.300 -21.201  0.00  0.00    -0.253 OA
ATOM     36  C   UNL     1      32.357  -7.944 -20.418  0.00  0.00    +0.293 C 
BRANCH  36  37
ATOM     37  O   UNL     1      33.196  -7.359 -19.523  0.00  0.00    -0.482 OA
ATOM     38  H   UNL     1      33.598  -6.538 -19.726  0.00  0.00    +0.295 HD
ENDBRANCH  36  37
ENDBRANCH  30  36
ENDBRANCH  29  30
ENDBRANCH   1  29
TORSDOF 13
ENDMDL
MODEL 8
REMARK VINA RESULT:      -9.5      9.486     13.587
REMARK  Name = 17754104
REMARK  13 active torsions:
REMARK  status: ('A' for Active; 'I' for Inactive)
REMARK    1  A    between atoms: C_1  and  C_29
REMARK    2  A    between atoms: C_3  and  N_11
REMARK    3  A    between atoms: C_4  and  O_7
REMARK    4  A    between atoms: C_5  and  O_9
REMARK    5  A    between atoms: C_13  and  C_14
REMARK    6  A    between atoms: C_13  and  C_17
REMARK    7  A    between atoms: C_14  and  C_16
REMARK    8  A    between atoms: C_17  and  O_18
REMARK    9  A    between atoms: O_18  and  C_21
REMARK   10  A    between atoms: C_29  and  CA_30
REMARK   11  A    between atoms: CA_30  and  N_31
REMARK   12  A    between atoms: CA_30  and  C_36
REMARK   13  A    between atoms: C_36  and  O_37
REMARK                            x       y       z     vdW  Elec       q    Type
REMARK                         _______ _______ _______ _____ _____    ______ ____
ROOT
ATOM      1  C   UNL     1      34.633 -16.191 -23.942  0.00  0.00    +0.012 C 
ATOM      2  C   UNL     1      34.273 -14.870 -23.673  0.00  0.00    +0.019 C 
ATOM      3  C   UNL     1      33.472 -14.169 -24.575  0.00  0.00    +0.090 C 
ATOM      4  C   UNL     1      34.192 -16.810 -25.112  0.00  0.00    +0.133 C 
ATOM      5  C   UNL     1      33.032 -14.788 -25.745  0.00  0.00    +0.152 C 
ATOM      6  C   UNL     1      33.393 -16.108 -26.013  0.00  0.00    +0.074 C 
ENDROOT
BRANCH   3   7
ATOM      7  N   UNL     1      33.119 -12.847 -24.294  0.00  0.00    -0.354 N 
ATOM      8  H   UNL     1      33.181 -12.216 -25.047  0.00  0.00    +0.166 HD
ATOM      9  C   UNL     1      32.697 -12.318 -23.104  0.00  0.00    +0.063 C 
BRANCH   9  10
ATOM     10  C   UNL     1      32.011 -12.960 -22.141  0.00  0.00    +0.115 C 
BRANCH  10  12
ATOM     11  O   UNL     1      32.664 -14.692 -20.667  0.00  0.00    -0.288 OA
ATOM     12  C   UNL     1      32.631 -13.490 -20.907  0.00  0.00    +0.213 C 
ENDBRANCH  10  12
ENDBRANCH   9  10
BRANCH   9  13
ATOM     13  C   UNL     1      33.036 -10.859 -22.901  0.00  0.00    +0.245 C 
BRANCH  13  14
ATOM     14  O   UNL     1      32.063 -10.261 -22.046  0.00  0.00    -0.469 OA
BRANCH  14  17
ATOM     15  C   UNL     1      31.462  -6.906 -23.417  0.00  0.00    +0.003 C 
ATOM     16  C   UNL     1      31.646  -6.118 -22.257  0.00  0.00    +0.000 C 
ATOM     17  C   UNL     1      31.926  -8.908 -22.115  0.00  0.00    +0.139 C 
ATOM     18  C   UNL     1      31.606  -8.301 -23.328  0.00  0.00    +0.037 C 
ATOM     19  C   UNL     1      31.968  -6.746 -21.042  0.00  0.00    +0.003 C 
ATOM     20  C   UNL     1      32.107  -8.132 -20.973  0.00  0.00    +0.037 C 
ATOM     21  C   UNL     1      31.140  -6.279 -24.630  0.00  0.00    +0.000 C 
ATOM     22  C   UNL     1      31.503  -4.723 -22.344  0.00  0.00    +0.000 C 
ATOM     23  C   UNL     1      31.002  -4.892 -24.700  0.00  0.00    +0.000 C 
ATOM     24  C   UNL     1      31.182  -4.116 -23.559  0.00  0.00    +0.000 C 
ENDBRANCH  14  17
ENDBRANCH  13  14
ENDBRANCH   9  13
ENDBRANCH   3   7
BRANCH   4  25
ATOM     25  O   UNL     1      34.533 -18.100 -25.388  0.00  0.00    -0.506 OA
ATOM     26  H   UNL     1      34.664 -18.711 -24.690  0.00  0.00    +0.292 HD
ENDBRANCH   4  25
BRANCH   5  27
ATOM     27  O   UNL     1      32.249 -14.119 -26.638  0.00  0.00    -0.504 OA
ATOM     28  H   UNL     1      32.643 -13.590 -27.303  0.00  0.00    +0.292 HD
ENDBRANCH   5  27
BRANCH   1  29
ATOM     29  C   UNL     1      35.492 -16.927 -22.967  0.00  0.00    +0.018 C 
BRANCH  29  30
ATOM     30  CA  UNL     1      34.707 -17.512 -21.773  0.00  0.00    +0.040 C 
BRANCH  30  31
ATOM     31  N   UNL     1      35.061 -16.813 -20.540  0.00  0.00    +0.389 N 
ATOM     32  H1  UNL     1      35.555 -15.951 -20.768  0.00  0.00    -0.088 HD
ATOM     33  H2  UNL     1      35.661 -17.409 -19.971  0.00  0.00    -0.088 HD
ATOM     34  H3  UNL     1      34.211 -16.591 -20.021  0.00  0.00    -0.088 HD
ENDBRANCH  30  31
BRANCH  30  36
ATOM     35  OXT UNL     1      35.385 -19.463 -20.481  0.00  0.00    -0.253 OA
ATOM     36  C   UNL     1      35.031 -18.980 -21.549  0.00  0.00    +0.293 C 
BRANCH  36  37
ATOM     37  O   UNL     1      34.850 -19.726 -22.670  0.00  0.00    -0.482 OA
ATOM     38  H   UNL     1      34.130 -19.545 -23.242  0.00  0.00    +0.295 HD
ENDBRANCH  36  37
ENDBRANCH  30  36
ENDBRANCH  29  30
ENDBRANCH   1  29
TORSDOF 13
ENDMDL
MODEL 9
REMARK VINA RESULT:      -9.5      4.981      9.415
REMARK  Name = 17754104
REMARK  13 active torsions:
REMARK  status: ('A' for Active; 'I' for Inactive)
REMARK    1  A    between atoms: C_1  and  C_29
REMARK    2  A    between atoms: C_3  and  N_11
REMARK    3  A    between atoms: C_4  and  O_7
REMARK    4  A    between atoms: C_5  and  O_9
REMARK    5  A    between atoms: C_13  and  C_14
REMARK    6  A    between atoms: C_13  and  C_17
REMARK    7  A    between atoms: C_14  and  C_16
REMARK    8  A    between atoms: C_17  and  O_18
REMARK    9  A    between atoms: O_18  and  C_21
REMARK   10  A    between atoms: C_29  and  CA_30
REMARK   11  A    between atoms: CA_30  and  N_31
REMARK   12  A    between atoms: CA_30  and  C_36
REMARK   13  A    between atoms: C_36  and  O_37
REMARK                            x       y       z     vdW  Elec       q    Type
REMARK                         _______ _______ _______ _____ _____    ______ ____
ROOT
ATOM      1  C   UNL     1      34.551 -15.957 -23.588  0.00  0.00    +0.012 C 
ATOM      2  C   UNL     1      35.028 -16.797 -22.581  0.00  0.00    +0.019 C 
ATOM      3  C   UNL     1      35.225 -18.153 -22.840  0.00  0.00    +0.090 C 
ATOM      4  C   UNL     1      34.272 -16.474 -24.853  0.00  0.00    +0.133 C 
ATOM      5  C   UNL     1      34.946 -18.670 -24.105  0.00  0.00    +0.152 C 
ATOM      6  C   UNL     1      34.469 -17.830 -25.111  0.00  0.00    +0.074 C 
ENDROOT
BRANCH   3   7
ATOM      7  N   UNL     1      35.703 -18.983 -21.823  0.00  0.00    -0.354 N 
ATOM      8  H   UNL     1      36.672 -18.940 -21.652  0.00  0.00    +0.166 HD
ATOM      9  C   UNL     1      34.995 -19.848 -21.032  0.00  0.00    +0.063 C 
BRANCH   9  10
ATOM     10  C   UNL     1      33.711 -19.716 -20.651  0.00  0.00    +0.115 C 
BRANCH  10  12
ATOM     11  O   UNL     1      32.440 -21.004 -19.127  0.00  0.00    -0.288 OA
ATOM     12  C   UNL     1      32.846 -20.855 -20.276  0.00  0.00    +0.213 C 
ENDBRANCH  10  12
ENDBRANCH   9  10
BRANCH   9  13
ATOM     13  C   UNL     1      35.776 -21.046 -20.542  0.00  0.00    +0.245 C 
BRANCH  13  14
ATOM     14  O   UNL     1      36.606 -20.655 -19.449  0.00  0.00    -0.469 OA
BRANCH  14  17
ATOM     15  C   UNL     1      35.056 -22.704 -16.824  0.00  0.00    +0.003 C 
ATOM     16  C   UNL     1      36.074 -22.679 -15.843  0.00  0.00    +0.000 C 
ATOM     17  C   UNL     1      36.433 -21.317 -18.272  0.00  0.00    +0.139 C 
ATOM     18  C   UNL     1      35.252 -22.018 -18.035  0.00  0.00    +0.037 C 
ATOM     19  C   UNL     1      37.258 -21.967 -16.099  0.00  0.00    +0.003 C 
ATOM     20  C   UNL     1      37.435 -21.291 -17.306  0.00  0.00    +0.037 C 
ATOM     21  C   UNL     1      33.873 -23.415 -16.569  0.00  0.00    +0.000 C 
ATOM     22  C   UNL     1      35.880 -23.364 -14.632  0.00  0.00    +0.000 C 
ATOM     23  C   UNL     1      33.695 -24.092 -15.361  0.00  0.00    +0.000 C 
ATOM     24  C   UNL     1      34.697 -24.066 -14.395  0.00  0.00    +0.000 C 
ENDBRANCH  14  17
ENDBRANCH  13  14
ENDBRANCH   9  13
ENDBRANCH   3   7
BRANCH   4  25
ATOM     25  O   UNL     1      33.808 -15.667 -25.848  0.00  0.00    -0.506 OA
ATOM     26  H   UNL     1      33.255 -16.019 -26.518  0.00  0.00    +0.292 HD
ENDBRANCH   4  25
BRANCH   5  27
ATOM     27  O   UNL     1      35.132 -19.992 -24.377  0.00  0.00    -0.504 OA
ATOM     28  H   UNL     1      35.216 -20.280 -25.264  0.00  0.00    +0.292 HD
ENDBRANCH   5  27
BRANCH   1  29
ATOM     29  C   UNL     1      34.344 -14.508 -23.293  0.00  0.00    +0.018 C 
BRANCH  29  30
ATOM     30  CA  UNL     1      32.878 -14.149 -22.967  0.00  0.00    +0.040 C 
BRANCH  30  31
ATOM     31  N   UNL     1      32.667 -12.708 -23.093  0.00  0.00    +0.389 N 
ATOM     32  H1  UNL     1      33.498 -12.214 -22.766  0.00  0.00    -0.088 HD
ATOM     33  H2  UNL     1      31.863 -12.431 -22.530  0.00  0.00    -0.088 HD
ATOM     34  H3  UNL     1      32.496 -12.474 -24.071  0.00  0.00    -0.088 HD
ENDBRANCH  30  31
BRANCH  30  36
ATOM     35  OXT UNL     1      32.065 -15.606 -21.193  0.00  0.00    -0.253 OA
ATOM     36  C   UNL     1      32.509 -14.519 -21.541  0.00  0.00    +0.293 C 
BRANCH  36  37
ATOM     37  O   UNL     1      32.760 -13.512 -20.664  0.00  0.00    -0.482 OA
ATOM     38  H   UNL     1      32.085 -13.217 -20.085  0.00  0.00    +0.295 HD
ENDBRANCH  36  37
ENDBRANCH  30  36
ENDBRANCH  29  30
ENDBRANCH   1  29
TORSDOF 13
ENDMDL
