MODEL 1
REMARK VINA RESULT:      -7.0      0.000      0.000
REMARK  Name = 6151
REMARK  8 active torsions:
REMARK  status: ('A' for Active; 'I' for Inactive)
REMARK    1  A    between atoms: C_1  and  C_3
REMARK    2  A    between atoms: C_1  and  C_7
REMARK    3  A    between atoms: C_1  and  C_14
REMARK    4  A    between atoms: C_3  and  C_5
REMARK    5  A    between atoms: C_7  and  O_8
REMARK    6  A    between atoms: O_8  and  C_11
REMARK    7  A    between atoms: C_14  and  O_15
REMARK    8  A    between atoms: O_15  and  C_18
REMARK                            x       y       z     vdW  Elec       q    Type
REMARK                         _______ _______ _______ _____ _____    ______ ____
ROOT
ATOM      1  C   UNL     1      34.841 -19.111 -21.561  0.00  0.00    +0.081 C 
ATOM      2  C   UNL     1      36.333 -18.850 -21.262  0.00  0.00    +0.007 C 
ENDROOT
BRANCH   1   3
ATOM      3  C   UNL     1      34.316 -20.424 -20.841  0.00  0.00    +0.007 C 
ATOM      4  C   UNL     1      32.915 -20.257 -20.223  0.00  0.00    +0.000 C 
BRANCH   3   5
ATOM      5  C   UNL     1      35.297 -20.972 -19.770  0.00  0.00    +0.000 C 
ATOM      6  C   UNL     1      34.725 -22.110 -18.931  0.00  0.00    +0.000 C 
ENDBRANCH   3   5
ENDBRANCH   1   3
BRANCH   1   7
ATOM      7  C   UNL     1      34.056 -17.854 -21.088  0.00  0.00    +0.213 C 
BRANCH   7   8
ATOM      8  O   UNL     1      34.936 -16.755 -20.893  0.00  0.00    -0.435 OA
BRANCH   8  11
ATOM      9  O   UNL     1      34.938 -14.527 -20.315  0.00  0.00    -0.227 OA
ATOM     10  N   UNL     1      32.987 -15.617 -20.856  0.00  0.00    -0.295 N 
ATOM     11  C   UNL     1      34.344 -15.544 -20.657  0.00  0.00    +0.398 C 
ATOM     12  H   UNL     1      32.575 -16.468 -21.131  0.00  0.00    +0.148 HD
ATOM     13  H   UNL     1      32.426 -14.819 -20.723  0.00  0.00    +0.148 HD
ENDBRANCH   8  11
ENDBRANCH   7   8
ENDBRANCH   1   7
BRANCH   1  14
ATOM     14  C   UNL     1      34.663 -19.270 -23.102  0.00  0.00    +0.213 C 
BRANCH  14  15
ATOM     15  O   UNL     1      35.565 -18.452 -23.841  0.00  0.00    -0.435 OA
BRANCH  15  18
ATOM     16  O   UNL     1      34.333 -17.590 -25.585  0.00  0.00    -0.227 OA
ATOM     17  N   UNL     1      35.277 -16.222 -23.996  0.00  0.00    -0.295 N 
ATOM     18  C   UNL     1      34.999 -17.440 -24.566  0.00  0.00    +0.398 C 
ATOM     19  H   UNL     1      35.819 -16.174 -23.175  0.00  0.00    +0.148 HD
ATOM     20  H   UNL     1      34.934 -15.396 -24.408  0.00  0.00    +0.148 HD
ENDBRANCH  15  18
ENDBRANCH  14  15
ENDBRANCH   1  14
TORSDOF 8
ENDMDL
MODEL 2
REMARK VINA RESULT:      -6.8      8.803     10.782
REMARK  Name = 6151
REMARK  8 active torsions:
REMARK  status: ('A' for Active; 'I' for Inactive)
REMARK    1  A    between atoms: C_1  and  C_3
REMARK    2  A    between atoms: C_1  and  C_7
REMARK    3  A    between atoms: C_1  and  C_14
REMARK    4  A    between atoms: C_3  and  C_5
REMARK    5  A    between atoms: C_7  and  O_8
REMARK    6  A    between atoms: O_8  and  C_11
REMARK    7  A    between atoms: C_14  and  O_15
REMARK    8  A    between atoms: O_15  and  C_18
REMARK                            x       y       z     vdW  Elec       q    Type
REMARK                         _______ _______ _______ _____ _____    ______ ____
ROOT
ATOM      1  C   UNL     1      36.293 -23.725 -14.865  0.00  0.00    +0.081 C 
ATOM      2  C   UNL     1      35.542 -25.066 -15.018  0.00  0.00    +0.007 C 
ENDROOT
BRANCH   1   3
ATOM      3  C   UNL     1      35.744 -22.624 -15.867  0.00  0.00    +0.007 C 
ATOM      4  C   UNL     1      34.507 -23.089 -16.658  0.00  0.00    +0.000 C 
BRANCH   3   5
ATOM      5  C   UNL     1      36.822 -22.093 -16.848  0.00  0.00    +0.000 C 
ATOM      6  C   UNL     1      36.287 -21.760 -18.236  0.00  0.00    +0.000 C 
ENDBRANCH   3   5
ENDBRANCH   1   3
BRANCH   1   7
ATOM      7  C   UNL     1      36.126 -23.277 -13.385  0.00  0.00    +0.213 C 
BRANCH   7   8
ATOM      8  O   UNL     1      35.445 -24.271 -12.631  0.00  0.00    -0.435 OA
BRANCH   8  11
ATOM      9  O   UNL     1      35.298 -25.103 -10.490  0.00  0.00    -0.227 OA
ATOM     10  N   UNL     1      37.124 -23.884 -11.173  0.00  0.00    -0.295 N 
ATOM     11  C   UNL     1      35.899 -24.476 -11.356  0.00  0.00    +0.398 C 
ATOM     12  H   UNL     1      37.550 -23.394 -11.913  0.00  0.00    +0.148 HD
ATOM     13  H   UNL     1      37.576 -23.946 -10.301  0.00  0.00    +0.148 HD
ENDBRANCH   8  11
ENDBRANCH   7   8
ENDBRANCH   1   7
BRANCH   1  14
ATOM     14  C   UNL     1      37.806 -23.969 -15.154  0.00  0.00    +0.213 C 
BRANCH  14  15
ATOM     15  O   UNL     1      38.554 -24.216 -13.968  0.00  0.00    -0.435 OA
BRANCH  15  18
ATOM     16  O   UNL     1      40.717 -24.993 -14.103  0.00  0.00    -0.227 OA
ATOM     17  N   UNL     1      38.927 -26.437 -14.080  0.00  0.00    -0.295 N 
ATOM     18  C   UNL     1      39.508 -25.193 -14.055  0.00  0.00    +0.398 C 
ATOM     19  H   UNL     1      37.948 -26.525 -14.038  0.00  0.00    +0.148 HD
ATOM     20  H   UNL     1      39.492 -27.242 -14.140  0.00  0.00    +0.148 HD
ENDBRANCH  15  18
ENDBRANCH  14  15
ENDBRANCH   1  14
TORSDOF 8
ENDMDL
MODEL 3
REMARK VINA RESULT:      -6.7      9.242     11.278
REMARK  Name = 6151
REMARK  8 active torsions:
REMARK  status: ('A' for Active; 'I' for Inactive)
REMARK    1  A    between atoms: C_1  and  C_3
REMARK    2  A    between atoms: C_1  and  C_7
REMARK    3  A    between atoms: C_1  and  C_14
REMARK    4  A    between atoms: C_3  and  C_5
REMARK    5  A    between atoms: C_7  and  O_8
REMARK    6  A    between atoms: O_8  and  C_11
REMARK    7  A    between atoms: C_14  and  O_15
REMARK    8  A    between atoms: O_15  and  C_18
REMARK                            x       y       z     vdW  Elec       q    Type
REMARK                         _______ _______ _______ _____ _____    ______ ____
ROOT
ATOM      1  C   UNL     1      35.724 -23.782 -14.784  0.00  0.00    +0.081 C 
ATOM      2  C   UNL     1      36.939 -23.212 -15.549  0.00  0.00    +0.007 C 
ENDROOT
BRANCH   1   3
ATOM      3  C   UNL     1      34.359 -23.155 -15.295  0.00  0.00    +0.007 C 
ATOM      4  C   UNL     1      33.117 -23.801 -14.652  0.00  0.00    +0.000 C 
BRANCH   3   5
ATOM      5  C   UNL     1      34.215 -23.170 -16.840  0.00  0.00    +0.000 C 
ATOM      6  C   UNL     1      32.774 -23.063 -17.329  0.00  0.00    +0.000 C 
ENDBRANCH   3   5
ENDBRANCH   1   3
BRANCH   1   7
ATOM      7  C   UNL     1      35.746 -25.324 -14.980  0.00  0.00    +0.213 C 
BRANCH   7   8
ATOM      8  O   UNL     1      37.016 -25.754 -15.453  0.00  0.00    -0.435 OA
BRANCH   8  11
ATOM      9  O   UNL     1      38.914 -26.853 -14.755  0.00  0.00    -0.227 OA
ATOM     10  N   UNL     1      36.949 -26.995 -13.570  0.00  0.00    -0.295 N 
ATOM     11  C   UNL     1      37.733 -26.558 -14.609  0.00  0.00    +0.398 C 
ATOM     12  H   UNL     1      36.006 -26.720 -13.514  0.00  0.00    +0.148 HD
ATOM     13  H   UNL     1      37.330 -27.586 -12.880  0.00  0.00    +0.148 HD
ENDBRANCH   8  11
ENDBRANCH   7   8
ENDBRANCH   1   7
BRANCH   1  14
ATOM     14  C   UNL     1      35.896 -23.460 -13.268  0.00  0.00    +0.213 C 
BRANCH  14  15
ATOM     15  O   UNL     1      35.670 -24.596 -12.441  0.00  0.00    -0.435 OA
BRANCH  15  18
ATOM     16  O   UNL     1      35.282 -24.996 -10.207  0.00  0.00    -0.227 OA
ATOM     17  N   UNL     1      36.880 -23.491 -10.892  0.00  0.00    -0.295 N 
ATOM     18  C   UNL     1      35.886 -24.415 -11.102  0.00  0.00    +0.398 C 
ATOM     19  H   UNL     1      37.324 -23.063 -11.659  0.00  0.00    +0.148 HD
ATOM     20  H   UNL     1      37.147 -23.256  -9.974  0.00  0.00    +0.148 HD
ENDBRANCH  15  18
ENDBRANCH  14  15
ENDBRANCH   1  14
TORSDOF 8
ENDMDL
MODEL 4
REMARK VINA RESULT:      -6.4      1.526      3.573
REMARK  Name = 6151
REMARK  8 active torsions:
REMARK  status: ('A' for Active; 'I' for Inactive)
REMARK    1  A    between atoms: C_1  and  C_3
REMARK    2  A    between atoms: C_1  and  C_7
REMARK    3  A    between atoms: C_1  and  C_14
REMARK    4  A    between atoms: C_3  and  C_5
REMARK    5  A    between atoms: C_7  and  O_8
REMARK    6  A    between atoms: O_8  and  C_11
REMARK    7  A    between atoms: C_14  and  O_15
REMARK    8  A    between atoms: O_15  and  C_18
REMARK                            x       y       z     vdW  Elec       q    Type
REMARK                         _______ _______ _______ _____ _____    ______ ____
ROOT
ATOM      1  C   UNL     1      34.840 -18.747 -21.468  0.00  0.00    +0.081 C 
ATOM      2  C   UNL     1      33.454 -19.259 -21.018  0.00  0.00    +0.007 C 
ENDROOT
BRANCH   1   3
ATOM      3  C   UNL     1      36.013 -19.404 -20.626  0.00  0.00    +0.007 C 
ATOM      4  C   UNL     1      37.400 -19.212 -21.268  0.00  0.00    +0.000 C 
BRANCH   3   5
ATOM      5  C   UNL     1      35.783 -20.908 -20.319  0.00  0.00    +0.000 C 
ATOM      6  C   UNL     1      36.443 -21.385 -19.029  0.00  0.00    +0.000 C 
ENDBRANCH   3   5
ENDBRANCH   1   3
BRANCH   1   7
ATOM      7  C   UNL     1      34.977 -19.075 -22.981  0.00  0.00    +0.213 C 
BRANCH   7   8
ATOM      8  O   UNL     1      35.368 -17.921 -23.714  0.00  0.00    -0.435 OA
BRANCH   8  11
ATOM      9  O   UNL     1      34.829 -16.713 -25.598  0.00  0.00    -0.227 OA
ATOM     10  N   UNL     1      33.973 -18.817 -25.245  0.00  0.00    -0.295 N 
ATOM     11  C   UNL     1      34.734 -17.725 -24.911  0.00  0.00    +0.398 C 
ATOM     12  H   UNL     1      33.941 -19.597 -24.646  0.00  0.00    +0.148 HD
ATOM     13  H   UNL     1      33.456 -18.820 -26.083  0.00  0.00    +0.148 HD
ENDBRANCH   8  11
ENDBRANCH   7   8
ENDBRANCH   1   7
BRANCH   1  14
ATOM     14  C   UNL     1      34.881 -17.200 -21.278  0.00  0.00    +0.213 C 
BRANCH  14  15
ATOM     15  O   UNL     1      33.582 -16.628 -21.177  0.00  0.00    -0.435 OA
BRANCH  15  18
ATOM     16  O   UNL     1      32.316 -14.863 -21.942  0.00  0.00    -0.227 OA
ATOM     17  N   UNL     1      34.476 -15.186 -22.661  0.00  0.00    -0.295 N 
ATOM     18  C   UNL     1      33.361 -15.504 -21.926  0.00  0.00    +0.398 C 
ATOM     19  H   UNL     1      35.284 -15.746 -22.600  0.00  0.00    +0.148 HD
ATOM     20  H   UNL     1      34.468 -14.397 -23.251  0.00  0.00    +0.148 HD
ENDBRANCH  15  18
ENDBRANCH  14  15
ENDBRANCH   1  14
TORSDOF 8
ENDMDL
MODEL 5
REMARK VINA RESULT:      -6.2      9.221     10.941
REMARK  Name = 6151
REMARK  8 active torsions:
REMARK  status: ('A' for Active; 'I' for Inactive)
REMARK    1  A    between atoms: C_1  and  C_3
REMARK    2  A    between atoms: C_1  and  C_7
REMARK    3  A    between atoms: C_1  and  C_14
REMARK    4  A    between atoms: C_3  and  C_5
REMARK    5  A    between atoms: C_7  and  O_8
REMARK    6  A    between atoms: O_8  and  C_11
REMARK    7  A    between atoms: C_14  and  O_15
REMARK    8  A    between atoms: O_15  and  C_18
REMARK                            x       y       z     vdW  Elec       q    Type
REMARK                         _______ _______ _______ _____ _____    ______ ____
ROOT
ATOM      1  C   UNL     1      35.541 -23.697 -14.829  0.00  0.00    +0.081 C 
ATOM      2  C   UNL     1      36.564 -23.018 -15.766  0.00  0.00    +0.007 C 
ENDROOT
BRANCH   1   3
ATOM      3  C   UNL     1      34.065 -23.180 -15.094  0.00  0.00    +0.007 C 
ATOM      4  C   UNL     1      33.023 -23.813 -14.153  0.00  0.00    +0.000 C 
BRANCH   3   5
ATOM      5  C   UNL     1      33.609 -23.349 -16.568  0.00  0.00    +0.000 C 
ATOM      6  C   UNL     1      32.103 -23.217 -16.770  0.00  0.00    +0.000 C 
ENDBRANCH   3   5
ENDBRANCH   1   3
BRANCH   1   7
ATOM      7  C   UNL     1      35.655 -25.230 -15.066  0.00  0.00    +0.213 C 
BRANCH   7   8
ATOM      8  O   UNL     1      36.974 -25.582 -15.460  0.00  0.00    -0.435 OA
BRANCH   8  11
ATOM      9  O   UNL     1      37.313 -27.092 -13.755  0.00  0.00    -0.227 OA
ATOM     10  N   UNL     1      39.029 -25.783 -14.548  0.00  0.00    -0.295 N 
ATOM     11  C   UNL     1      37.731 -26.229 -14.521  0.00  0.00    +0.398 C 
ATOM     12  H   UNL     1      39.297 -25.086 -15.189  0.00  0.00    +0.148 HD
ATOM     13  H   UNL     1      39.692 -26.159 -13.925  0.00  0.00    +0.148 HD
ENDBRANCH   8  11
ENDBRANCH   7   8
ENDBRANCH   1   7
BRANCH   1  14
ATOM     14  C   UNL     1      35.934 -23.381 -13.353  0.00  0.00    +0.213 C 
BRANCH  14  15
ATOM     15  O   UNL     1      37.320 -23.087 -13.210  0.00  0.00    -0.435 OA
BRANCH  15  18
ATOM     16  O   UNL     1      39.029 -23.131 -11.668  0.00  0.00    -0.227 OA
ATOM     17  N   UNL     1      36.893 -23.768 -11.104  0.00  0.00    -0.295 N 
ATOM     18  C   UNL     1      37.855 -23.311 -11.971  0.00  0.00    +0.398 C 
ATOM     19  H   UNL     1      35.967 -23.891 -11.414  0.00  0.00    +0.148 HD
ATOM     20  H   UNL     1      37.131 -23.975 -10.170  0.00  0.00    +0.148 HD
ENDBRANCH  15  18
ENDBRANCH  14  15
ENDBRANCH   1  14
TORSDOF 8
ENDMDL
MODEL 6
REMARK VINA RESULT:      -6.2      2.579      4.777
REMARK  Name = 6151
REMARK  8 active torsions:
REMARK  status: ('A' for Active; 'I' for Inactive)
REMARK    1  A    between atoms: C_1  and  C_3
REMARK    2  A    between atoms: C_1  and  C_7
REMARK    3  A    between atoms: C_1  and  C_14
REMARK    4  A    between atoms: C_3  and  C_5
REMARK    5  A    between atoms: C_7  and  O_8
REMARK    6  A    between atoms: O_8  and  C_11
REMARK    7  A    between atoms: C_14  and  O_15
REMARK    8  A    between atoms: O_15  and  C_18
REMARK                            x       y       z     vdW  Elec       q    Type
REMARK                         _______ _______ _______ _____ _____    ______ ____
ROOT
ATOM      1  C   UNL     1      35.018 -18.405 -21.722  0.00  0.00    +0.081 C 
ATOM      2  C   UNL     1      36.497 -18.817 -21.557  0.00  0.00    +0.007 C 
ENDROOT
BRANCH   1   3
ATOM      3  C   UNL     1      34.613 -18.260 -23.250  0.00  0.00    +0.007 C 
ATOM      4  C   UNL     1      34.984 -19.494 -24.094  0.00  0.00    +0.000 C 
BRANCH   3   5
ATOM      5  C   UNL     1      35.181 -16.980 -23.918  0.00  0.00    +0.000 C 
ATOM      6  C   UNL     1      34.174 -16.239 -24.791  0.00  0.00    +0.000 C 
ENDBRANCH   3   5
ENDBRANCH   1   3
BRANCH   1   7
ATOM      7  C   UNL     1      34.162 -19.491 -21.011  0.00  0.00    +0.213 C 
BRANCH   7   8
ATOM      8  O   UNL     1      34.948 -20.219 -20.076  0.00  0.00    -0.435 OA
BRANCH   8  11
ATOM      9  O   UNL     1      35.045 -22.414 -19.388  0.00  0.00    -0.227 OA
ATOM     10  N   UNL     1      33.051 -21.271 -19.453  0.00  0.00    -0.295 N 
ATOM     11  C   UNL     1      34.408 -21.391 -19.619  0.00  0.00    +0.398 C 
ATOM     12  H   UNL     1      32.602 -20.419 -19.659  0.00  0.00    +0.148 HD
ATOM     13  H   UNL     1      32.524 -22.038 -19.130  0.00  0.00    +0.148 HD
ENDBRANCH   8  11
ENDBRANCH   7   8
ENDBRANCH   1   7
BRANCH   1  14
ATOM     14  C   UNL     1      34.801 -17.038 -21.005  0.00  0.00    +0.213 C 
BRANCH  14  15
ATOM     15  O   UNL     1      33.434 -16.639 -20.996  0.00  0.00    -0.435 OA
BRANCH  15  18
ATOM     16  O   UNL     1      32.160 -14.876 -21.749  0.00  0.00    -0.227 OA
ATOM     17  N   UNL     1      34.272 -14.548 -20.904  0.00  0.00    -0.295 N 
ATOM     18  C   UNL     1      33.194 -15.319 -21.261  0.00  0.00    +0.398 C 
ATOM     19  H   UNL     1      35.073 -14.970 -20.516  0.00  0.00    +0.148 HD
ATOM     20  H   UNL     1      34.245 -13.572 -21.036  0.00  0.00    +0.148 HD
ENDBRANCH  15  18
ENDBRANCH  14  15
ENDBRANCH   1  14
TORSDOF 8
ENDMDL
MODEL 7
REMARK VINA RESULT:      -6.2      3.849      5.818
REMARK  Name = 6151
REMARK  8 active torsions:
REMARK  status: ('A' for Active; 'I' for Inactive)
REMARK    1  A    between atoms: C_1  and  C_3
REMARK    2  A    between atoms: C_1  and  C_7
REMARK    3  A    between atoms: C_1  and  C_14
REMARK    4  A    between atoms: C_3  and  C_5
REMARK    5  A    between atoms: C_7  and  O_8
REMARK    6  A    between atoms: O_8  and  C_11
REMARK    7  A    between atoms: C_14  and  O_15
REMARK    8  A    between atoms: O_15  and  C_18
REMARK                            x       y       z     vdW  Elec       q    Type
REMARK                         _______ _______ _______ _____ _____    ______ ____
ROOT
ATOM      1  C   UNL     1      33.252 -13.628 -23.331  0.00  0.00    +0.081 C 
ATOM      2  C   UNL     1      33.991 -12.275 -23.420  0.00  0.00    +0.007 C 
ENDROOT
BRANCH   1   3
ATOM      3  C   UNL     1      32.327 -13.710 -22.044  0.00  0.00    +0.007 C 
ATOM      4  C   UNL     1      31.824 -12.333 -21.571  0.00  0.00    +0.000 C 
BRANCH   3   5
ATOM      5  C   UNL     1      32.987 -14.461 -20.857  0.00  0.00    +0.000 C 
ATOM      6  C   UNL     1      32.314 -15.785 -20.511  0.00  0.00    +0.000 C 
ENDBRANCH   3   5
ENDBRANCH   1   3
BRANCH   1   7
ATOM      7  C   UNL     1      32.420 -13.779 -24.636  0.00  0.00    +0.213 C 
BRANCH   7   8
ATOM      8  O   UNL     1      33.111 -13.213 -25.741  0.00  0.00    -0.435 OA
BRANCH   8  11
ATOM      9  O   UNL     1      33.866 -13.720 -27.856  0.00  0.00    -0.227 OA
ATOM     10  N   UNL     1      32.503 -15.164 -26.698  0.00  0.00    -0.295 N 
ATOM     11  C   UNL     1      33.219 -14.003 -26.853  0.00  0.00    +0.398 C 
ATOM     12  H   UNL     1      32.004 -15.328 -25.865  0.00  0.00    +0.148 HD
ATOM     13  H   UNL     1      32.486 -15.833 -27.420  0.00  0.00    +0.148 HD
ENDBRANCH   8  11
ENDBRANCH   7   8
ENDBRANCH   1   7
BRANCH   1  14
ATOM     14  C   UNL     1      34.312 -14.769 -23.270  0.00  0.00    +0.213 C 
BRANCH  14  15
ATOM     15  O   UNL     1      33.869 -15.959 -23.914  0.00  0.00    -0.435 OA
BRANCH  15  18
ATOM     16  O   UNL     1      34.932 -16.830 -25.761  0.00  0.00    -0.227 OA
ATOM     17  N   UNL     1      35.689 -17.259 -23.633  0.00  0.00    -0.295 N 
ATOM     18  C   UNL     1      34.835 -16.693 -24.547  0.00  0.00    +0.398 C 
ATOM     19  H   UNL     1      35.552 -17.107 -22.670  0.00  0.00    +0.148 HD
ATOM     20  H   UNL     1      36.439 -17.818 -23.941  0.00  0.00    +0.148 HD
ENDBRANCH  15  18
ENDBRANCH  14  15
ENDBRANCH   1  14
TORSDOF 8
ENDMDL
MODEL 8
REMARK VINA RESULT:      -6.1      8.619     10.472
REMARK  Name = 6151
REMARK  8 active torsions:
REMARK  status: ('A' for Active; 'I' for Inactive)
REMARK    1  A    between atoms: C_1  and  C_3
REMARK    2  A    between atoms: C_1  and  C_7
REMARK    3  A    between atoms: C_1  and  C_14
REMARK    4  A    between atoms: C_3  and  C_5
REMARK    5  A    between atoms: C_7  and  O_8
REMARK    6  A    between atoms: O_8  and  C_11
REMARK    7  A    between atoms: C_14  and  O_15
REMARK    8  A    between atoms: O_15  and  C_18
REMARK                            x       y       z     vdW  Elec       q    Type
REMARK                         _______ _______ _______ _____ _____    ______ ____
ROOT
ATOM      1  C   UNL     1      35.144 -24.079 -14.601  0.00  0.00    +0.081 C 
ATOM      2  C   UNL     1      33.744 -24.011 -13.953  0.00  0.00    +0.007 C 
ENDROOT
BRANCH   1   3
ATOM      3  C   UNL     1      35.114 -23.613 -16.118  0.00  0.00    +0.007 C 
ATOM      4  C   UNL     1      36.080 -22.451 -16.414  0.00  0.00    +0.000 C 
BRANCH   3   5
ATOM      5  C   UNL     1      33.692 -23.252 -16.623  0.00  0.00    +0.000 C 
ATOM      6  C   UNL     1      33.636 -22.877 -18.100  0.00  0.00    +0.000 C 
ENDBRANCH   3   5
ENDBRANCH   1   3
BRANCH   1   7
ATOM      7  C   UNL     1      36.083 -23.177 -13.751  0.00  0.00    +0.213 C 
BRANCH   7   8
ATOM      8  O   UNL     1      36.812 -23.954 -12.811  0.00  0.00    -0.435 OA
BRANCH   8  11
ATOM      9  O   UNL     1      37.369 -22.692 -10.967  0.00  0.00    -0.227 OA
ATOM     10  N   UNL     1      35.741 -24.312 -10.857  0.00  0.00    -0.295 N 
ATOM     11  C   UNL     1      36.703 -23.573 -11.500  0.00  0.00    +0.398 C 
ATOM     12  H   UNL     1      35.243 -25.006 -11.346  0.00  0.00    +0.148 HD
ATOM     13  H   UNL     1      35.551 -24.150  -9.904  0.00  0.00    +0.148 HD
ENDBRANCH   8  11
ENDBRANCH   7   8
ENDBRANCH   1   7
BRANCH   1  14
ATOM     14  C   UNL     1      35.653 -25.551 -14.530  0.00  0.00    +0.213 C 
BRANCH  14  15
ATOM     15  O   UNL     1      36.633 -25.837 -15.523  0.00  0.00    -0.435 OA
BRANCH  15  18
ATOM     16  O   UNL     1      38.241 -27.194 -14.589  0.00  0.00    -0.227 OA
ATOM     17  N   UNL     1      38.712 -25.028 -15.199  0.00  0.00    -0.295 N 
ATOM     18  C   UNL     1      37.890 -26.119 -15.061  0.00  0.00    +0.398 C 
ATOM     19  H   UNL     1      38.363 -24.194 -15.587  0.00  0.00    +0.148 HD
ATOM     20  H   UNL     1      39.652 -25.081 -14.908  0.00  0.00    +0.148 HD
ENDBRANCH  15  18
ENDBRANCH  14  15
ENDBRANCH   1  14
TORSDOF 8
ENDMDL
MODEL 9
REMARK VINA RESULT:      -6.1      2.326      5.386
REMARK  Name = 6151
REMARK  8 active torsions:
REMARK  status: ('A' for Active; 'I' for Inactive)
REMARK    1  A    between atoms: C_1  and  C_3
REMARK    2  A    between atoms: C_1  and  C_7
REMARK    3  A    between atoms: C_1  and  C_14
REMARK    4  A    between atoms: C_3  and  C_5
REMARK    5  A    between atoms: C_7  and  O_8
REMARK    6  A    between atoms: O_8  and  C_11
REMARK    7  A    between atoms: C_14  and  O_15
REMARK    8  A    between atoms: O_15  and  C_18
REMARK                            x       y       z     vdW  Elec       q    Type
REMARK                         _______ _______ _______ _____ _____    ______ ____
ROOT
ATOM      1  C   UNL     1      34.152 -15.555 -21.916  0.00  0.00    +0.081 C 
ATOM      2  C   UNL     1      35.016 -14.805 -20.879  0.00  0.00    +0.007 C 
ENDROOT
BRANCH   1   3
ATOM      3  C   UNL     1      32.722 -14.888 -22.085  0.00  0.00    +0.007 C 
ATOM      4  C   UNL     1      32.569 -14.110 -23.406  0.00  0.00    +0.000 C 
BRANCH   3   5
ATOM      5  C   UNL     1      32.322 -13.978 -20.894  0.00  0.00    +0.000 C 
ATOM      6  C   UNL     1      31.867 -12.582 -21.306  0.00  0.00    +0.000 C 
ENDBRANCH   3   5
ENDBRANCH   1   3
BRANCH   1   7
ATOM      7  C   UNL     1      34.941 -15.548 -23.256  0.00  0.00    +0.213 C 
BRANCH   7   8
ATOM      8  O   UNL     1      35.039 -16.863 -23.789  0.00  0.00    -0.435 OA
BRANCH   8  11
ATOM      9  O   UNL     1      34.379 -16.168 -25.882  0.00  0.00    -0.227 OA
ATOM     10  N   UNL     1      34.138 -18.357 -25.220  0.00  0.00    -0.295 N 
ATOM     11  C   UNL     1      34.509 -17.048 -25.037  0.00  0.00    +0.398 C 
ATOM     12  H   UNL     1      34.270 -19.012 -24.497  0.00  0.00    +0.148 HD
ATOM     13  H   UNL     1      33.738 -18.641 -26.074  0.00  0.00    +0.148 HD
ENDBRANCH   8  11
ENDBRANCH   7   8
ENDBRANCH   1   7
BRANCH   1  14
ATOM     14  C   UNL     1      33.973 -17.029 -21.440  0.00  0.00    +0.213 C 
BRANCH  14  15
ATOM     15  O   UNL     1      35.112 -17.516 -20.737  0.00  0.00    -0.435 OA
BRANCH  15  18
ATOM     16  O   UNL     1      36.249 -19.468 -20.293  0.00  0.00    -0.227 OA
ATOM     17  N   UNL     1      34.678 -19.354 -21.968  0.00  0.00    -0.295 N 
ATOM     18  C   UNL     1      35.422 -18.833 -20.939  0.00  0.00    +0.398 C 
ATOM     19  H   UNL     1      34.031 -18.786 -22.445  0.00  0.00    +0.148 HD
ATOM     20  H   UNL     1      34.793 -20.296 -22.230  0.00  0.00    +0.148 HD
ENDBRANCH  15  18
ENDBRANCH  14  15
ENDBRANCH   1  14
TORSDOF 8
ENDMDL
