MODEL 1
REMARK VINA RESULT:      -4.6      0.000      0.000
REMARK  Name = 175496
REMARK  4 active torsions:
REMARK  status: ('A' for Active; 'I' for Inactive)
REMARK    1  A    between atoms: CA_1  and  N_2
REMARK    2  A    between atoms: CA_1  and  C_7
REMARK    3  A    between atoms: CA_1  and  C_10
REMARK    4  A    between atoms: C_7  and  O_8
REMARK                            x       y       z     vdW  Elec       q    Type
REMARK                         _______ _______ _______ _____ _____    ______ ____
ROOT
ATOM      1  CA  UNL     1      39.274 -24.964 -14.228  0.00  0.00    +0.103 C 
ENDROOT
BRANCH   1   2
ATOM      2  N   UNL     1      38.592 -24.458 -15.417  0.00  0.00    +0.396 N 
ATOM      3  H1  UNL     1      38.376 -25.234 -16.043  0.00  0.00    -0.087 HD
ATOM      4  H2  UNL     1      39.195 -23.791 -15.898  0.00  0.00    -0.087 HD
ATOM      5  H3  UNL     1      37.726 -23.994 -15.141  0.00  0.00    -0.087 HD
ENDBRANCH   1   2
BRANCH   1   7
ATOM      6  OXT UNL     1      41.038 -26.629 -13.946  0.00  0.00    -0.252 OA
ATOM      7  C   UNL     1      40.342 -25.940 -14.682  0.00  0.00    +0.305 C 
BRANCH   7   8
ATOM      8  O   UNL     1      40.452 -25.979 -16.037  0.00  0.00    -0.481 OA
ATOM      9  H   UNL     1      39.687 -25.896 -16.572  0.00  0.00    +0.295 HD
ENDBRANCH   7   8
ENDBRANCH   1   7
BRANCH   1  10
ATOM     10  C   UNL     1      38.318 -25.626 -13.331  0.00  0.00    -0.090 C 
ATOM     11  C   UNL     1      37.532 -26.164 -12.599  0.00  0.00    -0.016 C 
ENDBRANCH   1  10
TORSDOF 4
ENDMDL
MODEL 2
REMARK VINA RESULT:      -4.3     10.529     10.739
REMARK  Name = 175496
REMARK  4 active torsions:
REMARK  status: ('A' for Active; 'I' for Inactive)
REMARK    1  A    between atoms: CA_1  and  N_2
REMARK    2  A    between atoms: CA_1  and  C_7
REMARK    3  A    between atoms: CA_1  and  C_10
REMARK    4  A    between atoms: C_7  and  O_8
REMARK                            x       y       z     vdW  Elec       q    Type
REMARK                         _______ _______ _______ _____ _____    ______ ____
ROOT
ATOM      1  CA  UNL     1      35.432 -19.402 -21.184  0.00  0.00    +0.103 C 
ENDROOT
BRANCH   1   2
ATOM      2  N   UNL     1      36.359 -19.790 -20.123  0.00  0.00    +0.396 N 
ATOM      3  H1  UNL     1      36.597 -18.972 -19.562  0.00  0.00    -0.087 HD
ATOM      4  H2  UNL     1      37.207 -20.177 -20.537  0.00  0.00    -0.087 HD
ATOM      5  H3  UNL     1      35.920 -20.493 -19.529  0.00  0.00    -0.087 HD
ENDBRANCH   1   2
BRANCH   1   7
ATOM      6  OXT UNL     1      35.325 -17.047 -20.549  0.00  0.00    -0.252 OA
ATOM      7  C   UNL     1      35.559 -17.905 -21.391  0.00  0.00    +0.305 C 
BRANCH   7   8
ATOM      8  O   UNL     1      35.978 -17.600 -22.649  0.00  0.00    -0.481 OA
ATOM      9  H   UNL     1      36.640 -18.118 -23.061  0.00  0.00    +0.295 HD
ENDBRANCH   7   8
ENDBRANCH   1   7
BRANCH   1  10
ATOM     10  C   UNL     1      34.055 -19.756 -20.816  0.00  0.00    -0.090 C 
ATOM     11  C   UNL     1      32.931 -20.050 -20.512  0.00  0.00    -0.016 C 
ENDBRANCH   1  10
TORSDOF 4
ENDMDL
MODEL 3
REMARK VINA RESULT:      -4.3     10.553     11.201
REMARK  Name = 175496
REMARK  4 active torsions:
REMARK  status: ('A' for Active; 'I' for Inactive)
REMARK    1  A    between atoms: CA_1  and  N_2
REMARK    2  A    between atoms: CA_1  and  C_7
REMARK    3  A    between atoms: CA_1  and  C_10
REMARK    4  A    between atoms: C_7  and  O_8
REMARK                            x       y       z     vdW  Elec       q    Type
REMARK                         _______ _______ _______ _____ _____    ______ ____
ROOT
ATOM      1  CA  UNL     1      29.099 -23.271 -15.713  0.00  0.00    +0.103 C 
ENDROOT
BRANCH   1   2
ATOM      2  N   UNL     1      28.868 -24.610 -15.175  0.00  0.00    +0.396 N 
ATOM      3  H1  UNL     1      28.205 -25.107 -15.770  0.00  0.00    -0.087 HD
ATOM      4  H2  UNL     1      28.488 -24.537 -14.231  0.00  0.00    -0.087 HD
ATOM      5  H3  UNL     1      29.749 -25.122 -15.148  0.00  0.00    -0.087 HD
ENDBRANCH   1   2
BRANCH   1   7
ATOM      6  OXT UNL     1      27.695 -23.940 -17.595  0.00  0.00    -0.252 OA
ATOM      7  C   UNL     1      28.141 -23.060 -16.869  0.00  0.00    +0.305 C 
BRANCH   7   8
ATOM      8  O   UNL     1      27.812 -21.749 -17.024  0.00  0.00    -0.481 OA
ATOM      9  H   UNL     1      28.258 -21.092 -16.526  0.00  0.00    +0.295 HD
ENDBRANCH   7   8
ENDBRANCH   1   7
BRANCH   1  10
ATOM     10  C   UNL     1      30.489 -23.133 -16.164  0.00  0.00    -0.090 C 
ATOM     11  C   UNL     1      31.625 -23.022 -16.538  0.00  0.00    -0.016 C 
ENDBRANCH   1  10
TORSDOF 4
ENDMDL
MODEL 4
REMARK VINA RESULT:      -4.3      3.006      3.409
REMARK  Name = 175496
REMARK  4 active torsions:
REMARK  status: ('A' for Active; 'I' for Inactive)
REMARK    1  A    between atoms: CA_1  and  N_2
REMARK    2  A    between atoms: CA_1  and  C_7
REMARK    3  A    between atoms: CA_1  and  C_10
REMARK    4  A    between atoms: C_7  and  O_8
REMARK                            x       y       z     vdW  Elec       q    Type
REMARK                         _______ _______ _______ _____ _____    ______ ____
ROOT
ATOM      1  CA  UNL     1      36.294 -25.515 -14.828  0.00  0.00    +0.103 C 
ENDROOT
BRANCH   1   2
ATOM      2  N   UNL     1      36.079 -25.565 -13.382  0.00  0.00    +0.396 N 
ATOM      3  H1  UNL     1      36.794 -25.009 -12.913  0.00  0.00    -0.087 HD
ATOM      4  H2  UNL     1      36.137 -26.532 -13.063  0.00  0.00    -0.087 HD
ATOM      5  H3  UNL     1      35.157 -25.189 -13.162  0.00  0.00    -0.087 HD
ENDBRANCH   1   2
BRANCH   1   7
ATOM      6  OXT UNL     1      38.147 -27.087 -14.594  0.00  0.00    -0.252 OA
ATOM      7  C   UNL     1      37.165 -26.695 -15.212  0.00  0.00    +0.305 C 
BRANCH   7   8
ATOM      8  O   UNL     1      36.730 -27.298 -16.351  0.00  0.00    -0.481 OA
ATOM      9  H   UNL     1      35.954 -27.823 -16.335  0.00  0.00    +0.295 HD
ENDBRANCH   7   8
ENDBRANCH   1   7
BRANCH   1  10
ATOM     10  C   UNL     1      36.940 -24.252 -15.206  0.00  0.00    -0.090 C 
ATOM     11  C   UNL     1      37.465 -23.218 -15.519  0.00  0.00    -0.016 C 
ENDBRANCH   1  10
TORSDOF 4
ENDMDL
MODEL 5
REMARK VINA RESULT:      -4.3      8.043      8.625
REMARK  Name = 175496
REMARK  4 active torsions:
REMARK  status: ('A' for Active; 'I' for Inactive)
REMARK    1  A    between atoms: CA_1  and  N_2
REMARK    2  A    between atoms: CA_1  and  C_7
REMARK    3  A    between atoms: CA_1  and  C_10
REMARK    4  A    between atoms: C_7  and  O_8
REMARK                            x       y       z     vdW  Elec       q    Type
REMARK                         _______ _______ _______ _____ _____    ______ ____
ROOT
ATOM      1  CA  UNL     1      33.768 -22.035 -19.464  0.00  0.00    +0.103 C 
ENDROOT
BRANCH   1   2
ATOM      2  N   UNL     1      32.857 -22.485 -18.413  0.00  0.00    +0.396 N 
ATOM      3  H1  UNL     1      32.799 -23.503 -18.425  0.00  0.00    -0.087 HD
ATOM      4  H2  UNL     1      31.931 -22.089 -18.573  0.00  0.00    -0.087 HD
ATOM      5  H3  UNL     1      33.206 -22.175 -17.505  0.00  0.00    -0.087 HD
ENDBRANCH   1   2
BRANCH   1   7
ATOM      6  OXT UNL     1      35.939 -20.950 -19.196  0.00  0.00    -0.252 OA
ATOM      7  C   UNL     1      35.125 -21.791 -18.834  0.00  0.00    +0.305 C 
BRANCH   7   8
ATOM      8  O   UNL     1      35.356 -22.626 -17.785  0.00  0.00    -0.481 OA
ATOM      9  H   UNL     1      34.637 -23.016 -17.330  0.00  0.00    +0.295 HD
ENDBRANCH   7   8
ENDBRANCH   1   7
BRANCH   1  10
ATOM     10  C   UNL     1      33.261 -20.807 -20.089  0.00  0.00    -0.090 C 
ATOM     11  C   UNL     1      32.851 -19.799 -20.597  0.00  0.00    -0.016 C 
ENDBRANCH   1  10
TORSDOF 4
ENDMDL
MODEL 6
REMARK VINA RESULT:      -4.1     10.356     11.020
REMARK  Name = 175496
REMARK  4 active torsions:
REMARK  status: ('A' for Active; 'I' for Inactive)
REMARK    1  A    between atoms: CA_1  and  N_2
REMARK    2  A    between atoms: CA_1  and  C_7
REMARK    3  A    between atoms: CA_1  and  C_10
REMARK    4  A    between atoms: C_7  and  O_8
REMARK                            x       y       z     vdW  Elec       q    Type
REMARK                         _______ _______ _______ _____ _____    ______ ____
ROOT
ATOM      1  CA  UNL     1      41.366 -15.038 -17.028  0.00  0.00    +0.103 C 
ENDROOT
BRANCH   1   2
ATOM      2  N   UNL     1      42.012 -13.783 -16.646  0.00  0.00    +0.396 N 
ATOM      3  H1  UNL     1      41.303 -13.059 -16.525  0.00  0.00    -0.087 HD
ATOM      4  H2  UNL     1      42.666 -13.501 -17.375  0.00  0.00    -0.087 HD
ATOM      5  H3  UNL     1      42.516 -13.914 -15.769  0.00  0.00    -0.087 HD
ENDBRANCH   1   2
BRANCH   1   7
ATOM      6  OXT UNL     1      42.288 -16.635 -15.428  0.00  0.00    -0.252 OA
ATOM      7  C   UNL     1      41.352 -15.945 -15.813  0.00  0.00    +0.305 C 
BRANCH   7   8
ATOM      8  O   UNL     1      40.155 -15.913 -15.168  0.00  0.00    -0.481 OA
ATOM      9  H   UNL     1      39.361 -15.830 -15.659  0.00  0.00    +0.295 HD
ENDBRANCH   7   8
ENDBRANCH   1   7
BRANCH   1  10
ATOM     10  C   UNL     1      42.093 -15.671 -18.136  0.00  0.00    -0.090 C 
ATOM     11  C   UNL     1      42.690 -16.183 -19.043  0.00  0.00    -0.016 C 
ENDBRANCH   1  10
TORSDOF 4
ENDMDL
MODEL 7
REMARK VINA RESULT:      -4.1      2.612      2.798
REMARK  Name = 175496
REMARK  4 active torsions:
REMARK  status: ('A' for Active; 'I' for Inactive)
REMARK    1  A    between atoms: CA_1  and  N_2
REMARK    2  A    between atoms: CA_1  and  C_7
REMARK    3  A    between atoms: CA_1  and  C_10
REMARK    4  A    between atoms: C_7  and  O_8
REMARK                            x       y       z     vdW  Elec       q    Type
REMARK                         _______ _______ _______ _____ _____    ______ ____
ROOT
ATOM      1  CA  UNL     1      36.851 -25.299 -14.655  0.00  0.00    +0.103 C 
ENDROOT
BRANCH   1   2
ATOM      2  N   UNL     1      35.405 -25.445 -14.489  0.00  0.00    +0.396 N 
ATOM      3  H1  UNL     1      34.957 -25.458 -15.405  0.00  0.00    -0.087 HD
ATOM      4  H2  UNL     1      35.045 -24.662 -13.945  0.00  0.00    -0.087 HD
ATOM      5  H3  UNL     1      35.206 -26.319 -14.001  0.00  0.00    -0.087 HD
ENDBRANCH   1   2
BRANCH   1   7
ATOM      6  OXT UNL     1      38.348 -27.227 -14.602  0.00  0.00    -0.252 OA
ATOM      7  C   UNL     1      37.405 -26.634 -15.112  0.00  0.00    +0.305 C 
BRANCH   7   8
ATOM      8  O   UNL     1      36.725 -27.129 -16.181  0.00  0.00    -0.481 OA
ATOM      9  H   UNL     1      36.948 -27.969 -16.530  0.00  0.00    +0.295 HD
ENDBRANCH   7   8
ENDBRANCH   1   7
BRANCH   1  10
ATOM     10  C   UNL     1      37.472 -24.889 -13.390  0.00  0.00    -0.090 C 
ATOM     11  C   UNL     1      37.979 -24.557 -12.352  0.00  0.00    -0.016 C 
ENDBRANCH   1  10
TORSDOF 4
ENDMDL
MODEL 8
REMARK VINA RESULT:      -4.1     10.887     11.603
REMARK  Name = 175496
REMARK  4 active torsions:
REMARK  status: ('A' for Active; 'I' for Inactive)
REMARK    1  A    between atoms: CA_1  and  N_2
REMARK    2  A    between atoms: CA_1  and  C_7
REMARK    3  A    between atoms: CA_1  and  C_10
REMARK    4  A    between atoms: C_7  and  O_8
REMARK                            x       y       z     vdW  Elec       q    Type
REMARK                         _______ _______ _______ _____ _____    ______ ____
ROOT
ATOM      1  CA  UNL     1      41.078 -14.203 -15.591  0.00  0.00    +0.103 C 
ENDROOT
BRANCH   1   2
ATOM      2  N   UNL     1      40.890 -13.713 -14.226  0.00  0.00    +0.396 N 
ATOM      3  H1  UNL     1      40.326 -12.864 -14.244  0.00  0.00    -0.087 HD
ATOM      4  H2  UNL     1      41.798 -13.510 -13.810  0.00  0.00    -0.087 HD
ATOM      5  H3  UNL     1      40.414 -14.425 -13.673  0.00  0.00    -0.087 HD
ENDBRANCH   1   2
BRANCH   1   7
ATOM      6  OXT UNL     1      42.287 -16.324 -15.622  0.00  0.00    -0.252 OA
ATOM      7  C   UNL     1      41.231 -15.710 -15.530  0.00  0.00    +0.305 C 
BRANCH   7   8
ATOM      8  O   UNL     1      40.035 -16.335 -15.353  0.00  0.00    -0.481 OA
ATOM      9  H   UNL     1      39.715 -16.927 -16.005  0.00  0.00    +0.295 HD
ENDBRANCH   7   8
ENDBRANCH   1   7
BRANCH   1  10
ATOM     10  C   UNL     1      42.266 -13.589 -16.196  0.00  0.00    -0.090 C 
ATOM     11  C   UNL     1      43.241 -13.086 -16.686  0.00  0.00    -0.016 C 
ENDBRANCH   1  10
TORSDOF 4
ENDMDL
MODEL 9
REMARK VINA RESULT:      -4.1      7.695      8.293
REMARK  Name = 175496
REMARK  4 active torsions:
REMARK  status: ('A' for Active; 'I' for Inactive)
REMARK    1  A    between atoms: CA_1  and  N_2
REMARK    2  A    between atoms: CA_1  and  C_7
REMARK    3  A    between atoms: CA_1  and  C_10
REMARK    4  A    between atoms: C_7  and  O_8
REMARK                            x       y       z     vdW  Elec       q    Type
REMARK                         _______ _______ _______ _____ _____    ______ ____
ROOT
ATOM      1  CA  UNL     1      33.790 -22.104 -19.393  0.00  0.00    +0.103 C 
ENDROOT
BRANCH   1   2
ATOM      2  N   UNL     1      32.903 -20.954 -19.562  0.00  0.00    +0.396 N 
ATOM      3  H1  UNL     1      33.305 -20.142 -19.092  0.00  0.00    -0.087 HD
ATOM      4  H2  UNL     1      31.992 -21.165 -19.156  0.00  0.00    -0.087 HD
ATOM      5  H3  UNL     1      32.794 -20.752 -20.555  0.00  0.00    -0.087 HD
ENDBRANCH   1   2
BRANCH   1   7
ATOM      6  OXT UNL     1      34.122 -23.516 -17.429  0.00  0.00    -0.252 OA
ATOM      7  C   UNL     1      33.386 -22.823 -18.120  0.00  0.00    +0.305 C 
BRANCH   7   8
ATOM      8  O   UNL     1      32.079 -22.610 -17.809  0.00  0.00    -0.481 OA
ATOM      9  H   UNL     1      31.405 -22.996 -18.332  0.00  0.00    +0.295 HD
ENDBRANCH   7   8
ENDBRANCH   1   7
BRANCH   1  10
ATOM     10  C   UNL     1      35.189 -21.665 -19.315  0.00  0.00    -0.090 C 
ATOM     11  C   UNL     1      36.335 -21.311 -19.251  0.00  0.00    -0.016 C 
ENDBRANCH   1  10
TORSDOF 4
ENDMDL
