MODEL 1
REMARK VINA RESULT:      -5.4      0.000      0.000
REMARK  Name = 487
REMARK  4 active torsions:
REMARK  status: ('A' for Active; 'I' for Inactive)
REMARK    1  A    between atoms: C_1  and  C_4
REMARK    2  A    between atoms: C_1  and  C_8
REMARK    3  A    between atoms: C_4  and  O_5
REMARK    4  A    between atoms: C_8  and  O_9
REMARK                            x       y       z     vdW  Elec       q    Type
REMARK                         _______ _______ _______ _____ _____    ______ ____
ROOT
ATOM      1  C   UNL     1      38.826 -25.503 -14.399  0.00  0.00    +0.197 C 
ATOM      2  C   UNL     1      38.849 -24.961 -12.973  0.00  0.00    +0.024 C 
ENDROOT
BRANCH   1   4
ATOM      3  O   UNL     1      37.179 -27.144 -13.672  0.00  0.00    -0.250 OA
ATOM      4  C   UNL     1      37.724 -26.531 -14.581  0.00  0.00    +0.324 C 
BRANCH   4   5
ATOM      5  O   UNL     1      37.407 -26.725 -15.887  0.00  0.00    -0.480 OA
ATOM      6  H   UNL     1      37.409 -26.001 -16.482  0.00  0.00    +0.295 HD
ENDBRANCH   4   5
ENDBRANCH   1   4
BRANCH   1   8
ATOM      7  O   UNL     1      41.023 -26.413 -13.963  0.00  0.00    -0.250 OA
ATOM      8  C   UNL     1      40.207 -25.998 -14.778  0.00  0.00    +0.324 C 
BRANCH   8   9
ATOM      9  O   UNL     1      40.456 -25.953 -16.110  0.00  0.00    -0.480 OA
ATOM     10  H   UNL     1      39.749 -25.855 -16.717  0.00  0.00    +0.295 HD
ENDBRANCH   8   9
ENDBRANCH   1   8
TORSDOF 4
ENDMDL
MODEL 2
REMARK VINA RESULT:      -5.3      1.106      3.069
REMARK  Name = 487
REMARK  4 active torsions:
REMARK  status: ('A' for Active; 'I' for Inactive)
REMARK    1  A    between atoms: C_1  and  C_4
REMARK    2  A    between atoms: C_1  and  C_8
REMARK    3  A    between atoms: C_4  and  O_5
REMARK    4  A    between atoms: C_8  and  O_9
REMARK                            x       y       z     vdW  Elec       q    Type
REMARK                         _______ _______ _______ _____ _____    ______ ____
ROOT
ATOM      1  C   UNL     1      38.843 -25.857 -14.184  0.00  0.00    +0.197 C 
ATOM      2  C   UNL     1      38.597 -25.135 -12.864  0.00  0.00    +0.024 C 
ENDROOT
BRANCH   1   4
ATOM      3  O   UNL     1      40.961 -24.660 -14.304  0.00  0.00    -0.250 OA
ATOM      4  C   UNL     1      40.145 -25.409 -14.824  0.00  0.00    +0.324 C 
BRANCH   4   5
ATOM      5  O   UNL     1      40.309 -25.918 -16.073  0.00  0.00    -0.480 OA
ATOM      6  H   UNL     1      40.269 -26.844 -16.211  0.00  0.00    +0.295 HD
ENDBRANCH   4   5
ENDBRANCH   1   4
BRANCH   1   8
ATOM      7  O   UNL     1      36.919 -24.713 -15.098  0.00  0.00    -0.250 OA
ATOM      8  C   UNL     1      37.628 -25.712 -15.079  0.00  0.00    +0.324 C 
BRANCH   8   9
ATOM      9  O   UNL     1      37.402 -26.789 -15.871  0.00  0.00    -0.480 OA
ATOM     10  H   UNL     1      37.938 -27.554 -15.788  0.00  0.00    +0.295 HD
ENDBRANCH   8   9
ENDBRANCH   1   8
TORSDOF 4
ENDMDL
MODEL 3
REMARK VINA RESULT:      -5.0      3.708      4.560
REMARK  Name = 487
REMARK  4 active torsions:
REMARK  status: ('A' for Active; 'I' for Inactive)
REMARK    1  A    between atoms: C_1  and  C_4
REMARK    2  A    between atoms: C_1  and  C_8
REMARK    3  A    between atoms: C_4  and  O_5
REMARK    4  A    between atoms: C_8  and  O_9
REMARK                            x       y       z     vdW  Elec       q    Type
REMARK                         _______ _______ _______ _____ _____    ______ ____
ROOT
ATOM      1  C   UNL     1      37.139 -24.437 -11.728  0.00  0.00    +0.197 C 
ATOM      2  C   UNL     1      37.469 -25.693 -12.528  0.00  0.00    +0.024 C 
ENDROOT
BRANCH   1   4
ATOM      3  O   UNL     1      35.247 -25.157 -10.374  0.00  0.00    -0.250 OA
ATOM      4  C   UNL     1      35.695 -24.442 -11.261  0.00  0.00    +0.324 C 
BRANCH   4   5
ATOM      5  O   UNL     1      34.922 -23.569 -11.958  0.00  0.00    -0.480 OA
ATOM      6  H   UNL     1      35.299 -23.056 -12.646  0.00  0.00    +0.295 HD
ENDBRANCH   4   5
ENDBRANCH   1   4
BRANCH   1   8
ATOM      7  O   UNL     1      37.564 -23.180 -13.750  0.00  0.00    -0.250 OA
ATOM      8  C   UNL     1      37.531 -23.208 -12.525  0.00  0.00    +0.324 C 
BRANCH   8   9
ATOM      9  O   UNL     1      37.830 -22.131 -11.756  0.00  0.00    -0.480 OA
ATOM     10  H   UNL     1      38.479 -21.519 -12.040  0.00  0.00    +0.295 HD
ENDBRANCH   8   9
ENDBRANCH   1   8
TORSDOF 4
ENDMDL
MODEL 4
REMARK VINA RESULT:      -5.0      1.736      2.273
REMARK  Name = 487
REMARK  4 active torsions:
REMARK  status: ('A' for Active; 'I' for Inactive)
REMARK    1  A    between atoms: C_1  and  C_4
REMARK    2  A    between atoms: C_1  and  C_8
REMARK    3  A    between atoms: C_4  and  O_5
REMARK    4  A    between atoms: C_8  and  O_9
REMARK                            x       y       z     vdW  Elec       q    Type
REMARK                         _______ _______ _______ _____ _____    ______ ____
ROOT
ATOM      1  C   UNL     1      38.628 -25.256 -14.382  0.00  0.00    +0.197 C 
ATOM      2  C   UNL     1      37.864 -24.153 -15.107  0.00  0.00    +0.024 C 
ENDROOT
BRANCH   1   4
ATOM      3  O   UNL     1      37.938 -26.015 -12.173  0.00  0.00    -0.250 OA
ATOM      4  C   UNL     1      38.449 -25.155 -12.878  0.00  0.00    +0.324 C 
BRANCH   4   5
ATOM      5  O   UNL     1      38.905 -23.976 -12.381  0.00  0.00    -0.480 OA
ATOM      6  H   UNL     1      38.725 -23.742 -11.492  0.00  0.00    +0.295 HD
ENDBRANCH   4   5
ENDBRANCH   1   4
BRANCH   1   8
ATOM      7  O   UNL     1      40.980 -24.722 -14.213  0.00  0.00    -0.250 OA
ATOM      8  C   UNL     1      40.073 -25.259 -14.838  0.00  0.00    +0.324 C 
BRANCH   8   9
ATOM      9  O   UNL     1      40.277 -25.926 -16.002  0.00  0.00    -0.480 OA
ATOM     10  H   UNL     1      41.031 -25.736 -16.525  0.00  0.00    +0.295 HD
ENDBRANCH   8   9
ENDBRANCH   1   8
TORSDOF 4
ENDMDL
MODEL 5
REMARK VINA RESULT:      -4.9      1.437      3.248
REMARK  Name = 487
REMARK  4 active torsions:
REMARK  status: ('A' for Active; 'I' for Inactive)
REMARK    1  A    between atoms: C_1  and  C_4
REMARK    2  A    between atoms: C_1  and  C_8
REMARK    3  A    between atoms: C_4  and  O_5
REMARK    4  A    between atoms: C_8  and  O_9
REMARK                            x       y       z     vdW  Elec       q    Type
REMARK                         _______ _______ _______ _____ _____    ______ ____
ROOT
ATOM      1  C   UNL     1      38.355 -25.127 -13.544  0.00  0.00    +0.197 C 
ATOM      2  C   UNL     1      37.621 -24.213 -14.520  0.00  0.00    +0.024 C 
ENDROOT
BRANCH   1   4
ATOM      3  O   UNL     1      39.716 -26.809 -14.663  0.00  0.00    -0.250 OA
ATOM      4  C   UNL     1      39.619 -25.695 -14.165  0.00  0.00    +0.324 C 
BRANCH   4   5
ATOM      5  O   UNL     1      40.665 -24.831 -14.092  0.00  0.00    -0.480 OA
ATOM      6  H   UNL     1      40.711 -24.209 -13.393  0.00  0.00    +0.295 HD
ENDBRANCH   4   5
ENDBRANCH   1   4
BRANCH   1   8
ATOM      7  O   UNL     1      37.104 -26.276 -11.824  0.00  0.00    -0.250 OA
ATOM      8  C   UNL     1      37.400 -26.174 -13.009  0.00  0.00    +0.324 C 
BRANCH   8   9
ATOM      9  O   UNL     1      36.887 -26.986 -13.967  0.00  0.00    -0.480 OA
ATOM     10  H   UNL     1      35.985 -27.238 -13.934  0.00  0.00    +0.295 HD
ENDBRANCH   8   9
ENDBRANCH   1   8
TORSDOF 4
ENDMDL
MODEL 6
REMARK VINA RESULT:      -4.9      3.591      5.169
REMARK  Name = 487
REMARK  4 active torsions:
REMARK  status: ('A' for Active; 'I' for Inactive)
REMARK    1  A    between atoms: C_1  and  C_4
REMARK    2  A    between atoms: C_1  and  C_8
REMARK    3  A    between atoms: C_4  and  O_5
REMARK    4  A    between atoms: C_8  and  O_9
REMARK                            x       y       z     vdW  Elec       q    Type
REMARK                         _______ _______ _______ _____ _____    ______ ____
ROOT
ATOM      1  C   UNL     1      36.764 -24.568 -12.423  0.00  0.00    +0.197 C 
ATOM      2  C   UNL     1      37.288 -26.000 -12.460  0.00  0.00    +0.024 C 
ENDROOT
BRANCH   1   4
ATOM      3  O   UNL     1      37.644 -22.614 -11.263  0.00  0.00    -0.250 OA
ATOM      4  C   UNL     1      37.839 -23.598 -11.964  0.00  0.00    +0.324 C 
BRANCH   4   5
ATOM      5  O   UNL     1      39.069 -23.928 -12.439  0.00  0.00    -0.480 OA
ATOM      6  H   UNL     1      39.183 -24.124 -13.348  0.00  0.00    +0.295 HD
ENDBRANCH   4   5
ENDBRANCH   1   4
BRANCH   1   8
ATOM      7  O   UNL     1      35.275 -25.234 -10.637  0.00  0.00    -0.250 OA
ATOM      8  C   UNL     1      35.489 -24.513 -11.606  0.00  0.00    +0.324 C 
BRANCH   8   9
ATOM      9  O   UNL     1      34.604 -23.580 -12.036  0.00  0.00    -0.480 OA
ATOM     10  H   UNL     1      33.685 -23.765 -12.025  0.00  0.00    +0.295 HD
ENDBRANCH   8   9
ENDBRANCH   1   8
TORSDOF 4
ENDMDL
MODEL 7
REMARK VINA RESULT:      -4.9      1.816      3.029
REMARK  Name = 487
REMARK  4 active torsions:
REMARK  status: ('A' for Active; 'I' for Inactive)
REMARK    1  A    between atoms: C_1  and  C_4
REMARK    2  A    between atoms: C_1  and  C_8
REMARK    3  A    between atoms: C_4  and  O_5
REMARK    4  A    between atoms: C_8  and  O_9
REMARK                            x       y       z     vdW  Elec       q    Type
REMARK                         _______ _______ _______ _____ _____    ______ ____
ROOT
ATOM      1  C   UNL     1      38.186 -25.218 -13.726  0.00  0.00    +0.197 C 
ATOM      2  C   UNL     1      39.703 -25.384 -13.756  0.00  0.00    +0.024 C 
ENDROOT
BRANCH   1   4
ATOM      3  O   UNL     1      37.901 -24.602 -11.386  0.00  0.00    -0.250 OA
ATOM      4  C   UNL     1      37.644 -25.358 -12.314  0.00  0.00    +0.324 C 
BRANCH   4   5
ATOM      5  O   UNL     1      36.841 -26.444 -12.174  0.00  0.00    -0.480 OA
ATOM      6  H   UNL     1      36.783 -26.879 -11.346  0.00  0.00    +0.295 HD
ENDBRANCH   4   5
ENDBRANCH   1   4
BRANCH   1   8
ATOM      7  O   UNL     1      36.559 -25.870 -15.391  0.00  0.00    -0.250 OA
ATOM      8  C   UNL     1      37.551 -26.157 -14.732  0.00  0.00    +0.324 C 
BRANCH   8   9
ATOM      9  O   UNL     1      38.192 -27.347 -14.848  0.00  0.00    -0.480 OA
ATOM     10  H   UNL     1      39.124 -27.370 -14.943  0.00  0.00    +0.295 HD
ENDBRANCH   8   9
ENDBRANCH   1   8
TORSDOF 4
ENDMDL
MODEL 8
REMARK VINA RESULT:      -4.9     11.046     11.798
REMARK  Name = 487
REMARK  4 active torsions:
REMARK  status: ('A' for Active; 'I' for Inactive)
REMARK    1  A    between atoms: C_1  and  C_4
REMARK    2  A    between atoms: C_1  and  C_8
REMARK    3  A    between atoms: C_4  and  O_5
REMARK    4  A    between atoms: C_8  and  O_9
REMARK                            x       y       z     vdW  Elec       q    Type
REMARK                         _______ _______ _______ _____ _____    ______ ____
ROOT
ATOM      1  C   UNL     1      41.060 -15.029 -16.564  0.00  0.00    +0.197 C 
ATOM      2  C   UNL     1      41.243 -14.246 -17.860  0.00  0.00    +0.024 C 
ENDROOT
BRANCH   1   4
ATOM      3  O   UNL     1      40.724 -14.298 -14.265  0.00  0.00    -0.250 OA
ATOM      4  C   UNL     1      41.270 -14.142 -15.349  0.00  0.00    +0.324 C 
BRANCH   4   5
ATOM      5  O   UNL     1      42.129 -13.120 -15.597  0.00  0.00    -0.480 OA
ATOM      6  H   UNL     1      42.714 -13.167 -16.328  0.00  0.00    +0.295 HD
ENDBRANCH   4   5
ENDBRANCH   1   4
BRANCH   1   8
ATOM      7  O   UNL     1      41.523 -17.377 -16.908  0.00  0.00    -0.250 OA
ATOM      8  C   UNL     1      41.933 -16.267 -16.589  0.00  0.00    +0.324 C 
BRANCH   8   9
ATOM      9  O   UNL     1      43.222 -16.033 -16.236  0.00  0.00    -0.480 OA
ATOM     10  H   UNL     1      43.594 -16.476 -15.499  0.00  0.00    +0.295 HD
ENDBRANCH   8   9
ENDBRANCH   1   8
TORSDOF 4
ENDMDL
MODEL 9
REMARK VINA RESULT:      -4.9     10.593     11.428
REMARK  Name = 487
REMARK  4 active torsions:
REMARK  status: ('A' for Active; 'I' for Inactive)
REMARK    1  A    between atoms: C_1  and  C_4
REMARK    2  A    between atoms: C_1  and  C_8
REMARK    3  A    between atoms: C_4  and  O_5
REMARK    4  A    between atoms: C_8  and  O_9
REMARK                            x       y       z     vdW  Elec       q    Type
REMARK                         _______ _______ _______ _____ _____    ______ ____
ROOT
ATOM      1  C   UNL     1      42.227 -15.264 -17.507  0.00  0.00    +0.197 C 
ATOM      2  C   UNL     1      41.187 -14.266 -18.006  0.00  0.00    +0.024 C 
ENDROOT
BRANCH   1   4
ATOM      3  O   UNL     1      42.095 -16.307 -19.705  0.00  0.00    -0.250 OA
ATOM      4  C   UNL     1      42.603 -16.258 -18.592  0.00  0.00    +0.324 C 
BRANCH   4   5
ATOM      5  O   UNL     1      43.569 -17.124 -18.188  0.00  0.00    -0.480 OA
ATOM      6  H   UNL     1      43.800 -17.177 -17.282  0.00  0.00    +0.295 HD
ENDBRANCH   4   5
ENDBRANCH   1   4
BRANCH   1   8
ATOM      7  O   UNL     1      42.412 -16.697 -15.568  0.00  0.00    -0.250 OA
ATOM      8  C   UNL     1      41.744 -15.902 -16.220  0.00  0.00    +0.324 C 
BRANCH   8   9
ATOM      9  O   UNL     1      40.504 -15.502 -15.844  0.00  0.00    -0.480 OA
ATOM     10  H   UNL     1      40.397 -14.718 -15.342  0.00  0.00    +0.295 HD
ENDBRANCH   8   9
ENDBRANCH   1   8
TORSDOF 4
ENDMDL
