MODEL 1
REMARK VINA RESULT:       3.3      0.000      0.000
REMARK  Name = 24768527
REMARK  2 active torsions:
REMARK  status: ('A' for Active; 'I' for Inactive)
REMARK    1  A    between atoms: C_11  and  N_26
REMARK    2  A    between atoms: N_30  and  S_32
REMARK                            x       y       z     vdW  Elec       q    Type
REMARK                         _______ _______ _______ _____ _____    ______ ____
ROOT
ATOM      1  O   UNL     1      33.916 -11.783 -23.634  0.00  0.00    -0.445 OA
ATOM      2  O   UNL     1      33.766 -13.470 -25.187  0.00  0.00    -0.252 OA
ATOM      3  N   UNL     1      33.381  -6.841 -22.936  0.00  0.00    -0.394 NA
ATOM      4  C   UNL     1      32.109  -8.134 -19.719  0.00  0.00    +0.001 C 
ATOM      5  C   UNL     1      32.600  -9.422 -19.021  0.00  0.00    +0.005 C 
ATOM      6  C   UNL     1      33.251  -7.102 -19.895  0.00  0.00    +0.007 C 
ATOM      7  C   UNL     1      31.560 -10.550 -18.901  0.00  0.00    +0.026 C 
ATOM      8  C   UNL     1      34.396  -7.532 -20.822  0.00  0.00    +0.055 C 
ATOM      9  C   UNL     1      30.970  -7.470 -18.933  0.00  0.00    +0.000 C 
ATOM     10  C   UNL     1      31.280 -11.251 -20.207  0.00  0.00    -0.023 C 
ATOM     11  C   UNL     1      33.988 -14.006 -22.806  0.00  0.00    +0.047 C 
ATOM     12  C   UNL     1      32.590 -14.260 -22.190  0.00  0.00    +0.017 C 
ATOM     13  C   UNL     1      31.794 -13.036 -21.795  0.00  0.00    -0.024 C 
ATOM     14  C   UNL     1      33.942  -7.849 -22.225  0.00  0.00    +0.092 C 
ATOM     15  C   UNL     1      32.022 -12.385 -20.574  0.00  0.00    -0.009 C 
ATOM     16  C   UNL     1      30.290 -10.778 -21.075  0.00  0.00    -0.004 C 
ATOM     17  C   UNL     1      35.013 -13.493 -21.783  0.00  0.00    -0.011 C 
ATOM     18  C   UNL     1      34.104  -9.134 -22.740  0.00  0.00    +0.080 C 
ATOM     19  C   UNL     1      33.892 -13.088 -24.030  0.00  0.00    +0.298 C 
ATOM     20  C   UNL     1      30.804 -12.536 -22.651  0.00  0.00    -0.004 C 
ATOM     21  C   UNL     1      33.645  -9.417 -24.031  0.00  0.00    +0.010 C 
ATOM     22  C   UNL     1      30.056 -11.415 -22.294  0.00  0.00    -0.001 C 
ATOM     23  C   UNL     1      33.798 -10.780 -24.655  0.00  0.00    +0.231 C 
ATOM     24  C   UNL     1      32.963  -7.132 -24.186  0.00  0.00    +0.200 C 
ATOM     25  C   UNL     1      33.071  -8.382 -24.773  0.00  0.00    +0.045 C 
ATOM     26  N   UNL     1      32.376  -6.055 -24.917  0.00  0.00    -0.166 N 
ATOM     27  C   UNL     1      33.219  -4.851 -25.166  0.00  0.00    +0.141 C 
ENDROOT
BRANCH  11  28
ATOM     28  N   UNL     1      34.486 -15.300 -23.307  0.00  0.00    +0.390 N 
ATOM     29  H   UNL     1      35.411 -15.483 -22.915  0.00  0.00    -0.088 HD
ATOM     30  H   UNL     1      34.549 -15.269 -24.325  0.00  0.00    -0.088 HD
ATOM     31  H   UNL     1      33.846 -16.042 -23.028  0.00  0.00    -0.088 HD
ENDBRANCH  11  28
BRANCH  26  32
ATOM     32  S   UNL     1      30.674  -5.814 -24.746  0.00  0.00    +0.061 S 
ATOM     33  O   UNL     1      29.970  -7.000 -25.195  0.00  0.00    -0.154 OA
ATOM     34  O   UNL     1      30.305  -4.509 -25.262  0.00  0.00    -0.154 OA
ATOM     35  C   UNL     1      30.504  -5.753 -22.974  0.00  0.00    +0.200 C 
ENDBRANCH  26  32
TORSDOF 2
ENDMDL
