MODEL 1
REMARK VINA RESULT:      -9.2      0.000      0.000
REMARK  Name = 25134267
REMARK  8 active torsions:
REMARK  status: ('A' for Active; 'I' for Inactive)
REMARK    1  A    between atoms: C_3  and  C_10
REMARK    2  A    between atoms: C_7  and  C_17
REMARK    3  A    between atoms: C_17  and  C_18
REMARK    4  A    between atoms: C_17  and  C_22
REMARK    5  A    between atoms: C_18  and  C_19
REMARK    6  A    between atoms: C_19  and  C_20
REMARK    7  A    between atoms: C_22  and  N_24
REMARK    8  A    between atoms: N_24  and  O_26
REMARK                            x       y       z     vdW  Elec       q    Type
REMARK                         _______ _______ _______ _____ _____    ______ ____
ROOT
ATOM      1  O   UNL     1      31.165  -9.820 -22.877  0.00  0.00    -0.275 OA
ATOM      2  N   UNL     1      33.291  -9.738 -23.790  0.00  0.00    -0.272 N 
ATOM      3  C   UNL     1      33.220 -11.026 -24.489  0.00  0.00    +0.165 C 
ATOM      4  C   UNL     1      34.421 -10.993 -25.444  0.00  0.00    +0.032 C 
ATOM      5  C   UNL     1      34.556  -9.059 -24.054  0.00  0.00    +0.094 C 
ATOM      6  C   UNL     1      35.431 -10.107 -24.726  0.00  0.00    +0.024 C 
ATOM      7  C   UNL     1      32.219  -9.216 -23.081  0.00  0.00    +0.227 C 
ENDROOT
BRANCH   3  10
ATOM      8  O   UNL     1      34.157 -13.197 -23.875  0.00  0.00    -0.427 OA
ATOM      9  N   UNL     1      32.495 -12.472 -22.515  0.00  0.00    -0.371 NA
ATOM     10  C   UNL     1      33.243 -12.233 -23.570  0.00  0.00    +0.275 C 
ATOM     11  C   UNL     1      33.961 -14.141 -22.909  0.00  0.00    +0.173 C 
ATOM     12  C   UNL     1      32.944 -13.694 -22.079  0.00  0.00    +0.151 C 
ATOM     13  C   UNL     1      34.639 -15.344 -22.753  0.00  0.00    +0.040 C 
ATOM     14  C   UNL     1      32.552 -14.494 -20.996  0.00  0.00    +0.088 C 
ATOM     15  C   UNL     1      34.235 -16.131 -21.668  0.00  0.00    -0.001 C 
ATOM     16  C   UNL     1      33.213 -15.716 -20.807  0.00  0.00    -0.018 C 
ENDBRANCH   3  10
BRANCH   7  17
ATOM     17  C   UNL     1      32.414  -7.822 -22.541  0.00  0.00    +0.099 C 
BRANCH  17  18
ATOM     18  C   UNL     1      32.993  -7.862 -21.119  0.00  0.00    +0.011 C 
BRANCH  18  19
ATOM     19  C   UNL     1      31.947  -8.282 -20.078  0.00  0.00    +0.001 C 
BRANCH  19  20
ATOM     20  C   UNL     1      32.244  -9.639 -19.435  0.00  0.00    +0.000 C 
ATOM     21  C   UNL     1      31.070 -10.604 -19.482  0.00  0.00    +0.000 C 
ENDBRANCH  19  20
ENDBRANCH  18  19
ENDBRANCH  17  18
BRANCH  17  22
ATOM     22  C   UNL     1      31.086  -7.062 -22.615  0.00  0.00    +0.133 C 
BRANCH  22  24
ATOM     23  O   UNL     1      31.903  -5.303 -24.758  0.00  0.00    -0.263 OA
ATOM     24  N   UNL     1      31.238  -5.632 -22.563  0.00  0.00    -0.164 N 
ATOM     25  C   UNL     1      31.631  -4.887 -23.636  0.00  0.00    +0.327 C 
BRANCH  24  26
ATOM     26  O   UNL     1      30.945  -5.072 -21.310  0.00  0.00    -0.291 OA
ATOM     27  H   UNL     1      30.016  -5.241 -21.090  0.00  0.00    +0.242 HD
ENDBRANCH  24  26
ENDBRANCH  22  24
ENDBRANCH  17  22
ENDBRANCH   7  17
TORSDOF 8
ENDMDL
MODEL 2
REMARK VINA RESULT:      -8.9     11.484     15.986
REMARK  Name = 25134267
REMARK  8 active torsions:
REMARK  status: ('A' for Active; 'I' for Inactive)
REMARK    1  A    between atoms: C_3  and  C_10
REMARK    2  A    between atoms: C_7  and  C_17
REMARK    3  A    between atoms: C_17  and  C_18
REMARK    4  A    between atoms: C_17  and  C_22
REMARK    5  A    between atoms: C_18  and  C_19
REMARK    6  A    between atoms: C_19  and  C_20
REMARK    7  A    between atoms: C_22  and  N_24
REMARK    8  A    between atoms: N_24  and  O_26
REMARK                            x       y       z     vdW  Elec       q    Type
REMARK                         _______ _______ _______ _____ _____    ______ ____
ROOT
ATOM      1  O   UNL     1      35.371 -24.960 -16.128  0.00  0.00    -0.275 OA
ATOM      2  N   UNL     1      33.488 -23.845 -15.374  0.00  0.00    -0.272 N 
ATOM      3  C   UNL     1      32.765 -23.858 -16.651  0.00  0.00    +0.165 C 
ATOM      4  C   UNL     1      31.333 -23.463 -16.268  0.00  0.00    +0.032 C 
ATOM      5  C   UNL     1      32.686 -23.235 -14.316  0.00  0.00    +0.094 C 
ATOM      6  C   UNL     1      31.516 -22.583 -15.037  0.00  0.00    +0.024 C 
ATOM      7  C   UNL     1      34.722 -24.457 -15.210  0.00  0.00    +0.227 C 
ENDROOT
BRANCH   3  10
ATOM      8  O   UNL     1      32.470 -22.151 -18.373  0.00  0.00    -0.427 OA
ATOM      9  N   UNL     1      34.615 -22.815 -18.066  0.00  0.00    -0.371 NA
ATOM     10  C   UNL     1      33.356 -22.944 -17.708  0.00  0.00    +0.275 C 
ATOM     11  C   UNL     1      33.256 -21.451 -19.242  0.00  0.00    +0.173 C 
ATOM     12  C   UNL     1      34.568 -21.860 -19.051  0.00  0.00    +0.151 C 
ATOM     13  C   UNL     1      32.851 -20.494 -20.165  0.00  0.00    +0.040 C 
ATOM     14  C   UNL     1      35.577 -21.281 -19.834  0.00  0.00    +0.088 C 
ATOM     15  C   UNL     1      33.871 -19.927 -20.937  0.00  0.00    -0.001 C 
ATOM     16  C   UNL     1      35.207 -20.312 -20.776  0.00  0.00    -0.018 C 
ENDBRANCH   3  10
BRANCH   7  17
ATOM     17  C   UNL     1      35.260 -24.469 -13.801  0.00  0.00    +0.099 C 
BRANCH  17  18
ATOM     18  C   UNL     1      36.039 -23.180 -13.502  0.00  0.00    +0.011 C 
BRANCH  18  19
ATOM     19  C   UNL     1      37.205 -22.968 -14.477  0.00  0.00    +0.001 C 
BRANCH  19  20
ATOM     20  C   UNL     1      36.915 -21.912 -15.546  0.00  0.00    +0.000 C 
ATOM     21  C   UNL     1      37.715 -22.107 -16.825  0.00  0.00    +0.000 C 
ENDBRANCH  19  20
ENDBRANCH  18  19
ENDBRANCH  17  18
BRANCH  17  22
ATOM     22  C   UNL     1      36.105 -25.730 -13.596  0.00  0.00    +0.133 C 
BRANCH  22  24
ATOM     23  O   UNL     1      38.971 -26.001 -13.335  0.00  0.00    -0.263 OA
ATOM     24  N   UNL     1      36.880 -25.710 -12.383  0.00  0.00    -0.164 N 
ATOM     25  C   UNL     1      38.237 -25.847 -12.365  0.00  0.00    +0.327 C 
BRANCH  24  26
ATOM     26  O   UNL     1      36.114 -25.537 -11.219  0.00  0.00    -0.291 OA
ATOM     27  H   UNL     1      35.291 -25.075 -11.440  0.00  0.00    +0.242 HD
ENDBRANCH  24  26
ENDBRANCH  22  24
ENDBRANCH  17  22
ENDBRANCH   7  17
TORSDOF 8
ENDMDL
MODEL 3
REMARK VINA RESULT:      -8.8     11.217     15.942
REMARK  Name = 25134267
REMARK  8 active torsions:
REMARK  status: ('A' for Active; 'I' for Inactive)
REMARK    1  A    between atoms: C_3  and  C_10
REMARK    2  A    between atoms: C_7  and  C_17
REMARK    3  A    between atoms: C_17  and  C_18
REMARK    4  A    between atoms: C_17  and  C_22
REMARK    5  A    between atoms: C_18  and  C_19
REMARK    6  A    between atoms: C_19  and  C_20
REMARK    7  A    between atoms: C_22  and  N_24
REMARK    8  A    between atoms: N_24  and  O_26
REMARK                            x       y       z     vdW  Elec       q    Type
REMARK                         _______ _______ _______ _____ _____    ______ ____
ROOT
ATOM      1  O   UNL     1      36.294 -24.142 -16.326  0.00  0.00    -0.275 OA
ATOM      2  N   UNL     1      34.200 -23.457 -15.617  0.00  0.00    -0.272 N 
ATOM      3  C   UNL     1      33.511 -23.683 -16.893  0.00  0.00    +0.165 C 
ATOM      4  C   UNL     1      32.024 -23.610 -16.527  0.00  0.00    +0.032 C 
ATOM      5  C   UNL     1      33.271 -23.007 -14.584  0.00  0.00    +0.094 C 
ATOM      6  C   UNL     1      31.990 -22.665 -15.331  0.00  0.00    +0.024 C 
ATOM      7  C   UNL     1      35.539 -23.765 -15.428  0.00  0.00    +0.227 C 
ENDROOT
BRANCH   3  10
ATOM      8  O   UNL     1      32.852 -22.064 -18.600  0.00  0.00    -0.427 OA
ATOM      9  N   UNL     1      35.089 -22.375 -18.414  0.00  0.00    -0.371 NA
ATOM     10  C   UNL     1      33.889 -22.698 -17.984  0.00  0.00    +0.275 C 
ATOM     11  C   UNL     1      33.466 -21.258 -19.514  0.00  0.00    +0.173 C 
ATOM     12  C   UNL     1      34.835 -21.451 -19.397  0.00  0.00    +0.151 C 
ATOM     13  C   UNL     1      32.863 -20.389 -20.415  0.00  0.00    +0.040 C 
ATOM     14  C   UNL     1      35.695 -20.728 -20.237  0.00  0.00    +0.088 C 
ATOM     15  C   UNL     1      33.735 -19.676 -21.245  0.00  0.00    -0.001 C 
ATOM     16  C   UNL     1      35.122 -19.840 -21.160  0.00  0.00    -0.018 C 
ENDBRANCH   3  10
BRANCH   7  17
ATOM     17  C   UNL     1      36.052 -23.603 -14.020  0.00  0.00    +0.099 C 
BRANCH  17  18
ATOM     18  C   UNL     1      37.514 -23.132 -14.022  0.00  0.00    +0.011 C 
BRANCH  18  19
ATOM     19  C   UNL     1      38.480 -24.240 -13.582  0.00  0.00    +0.001 C 
BRANCH  19  20
ATOM     20  C   UNL     1      39.131 -24.976 -14.755  0.00  0.00    +0.000 C 
ATOM     21  C   UNL     1      40.406 -25.714 -14.377  0.00  0.00    +0.000 C 
ENDBRANCH  19  20
ENDBRANCH  18  19
ENDBRANCH  17  18
BRANCH  17  22
ATOM     22  C   UNL     1      35.857 -24.917 -13.258  0.00  0.00    +0.133 C 
BRANCH  22  24
ATOM     23  O   UNL     1      36.755 -24.071 -10.643  0.00  0.00    -0.263 OA
ATOM     24  N   UNL     1      35.066 -24.777 -12.064  0.00  0.00    -0.164 N 
ATOM     25  C   UNL     1      35.587 -24.368 -10.870  0.00  0.00    +0.327 C 
BRANCH  24  26
ATOM     26  O   UNL     1      33.711 -25.098 -12.236  0.00  0.00    -0.291 OA
ATOM     27  H   UNL     1      33.489 -25.866 -11.688  0.00  0.00    +0.242 HD
ENDBRANCH  24  26
ENDBRANCH  22  24
ENDBRANCH  17  22
ENDBRANCH   7  17
TORSDOF 8
ENDMDL
MODEL 4
REMARK VINA RESULT:      -8.6      2.350      7.846
REMARK  Name = 25134267
REMARK  8 active torsions:
REMARK  status: ('A' for Active; 'I' for Inactive)
REMARK    1  A    between atoms: C_3  and  C_10
REMARK    2  A    between atoms: C_7  and  C_17
REMARK    3  A    between atoms: C_17  and  C_18
REMARK    4  A    between atoms: C_17  and  C_22
REMARK    5  A    between atoms: C_18  and  C_19
REMARK    6  A    between atoms: C_19  and  C_20
REMARK    7  A    between atoms: C_22  and  N_24
REMARK    8  A    between atoms: N_24  and  O_26
REMARK                            x       y       z     vdW  Elec       q    Type
REMARK                         _______ _______ _______ _____ _____    ______ ____
ROOT
ATOM      1  O   UNL     1      32.801 -13.413 -24.604  0.00  0.00    -0.275 OA
ATOM      2  N   UNL     1      32.413 -13.069 -22.348  0.00  0.00    -0.272 N 
ATOM      3  C   UNL     1      31.563 -11.882 -22.506  0.00  0.00    +0.165 C 
ATOM      4  C   UNL     1      30.918 -11.705 -21.126  0.00  0.00    +0.032 C 
ATOM      5  C   UNL     1      32.528 -13.456 -20.945  0.00  0.00    +0.094 C 
ATOM      6  C   UNL     1      31.950 -12.284 -20.166  0.00  0.00    +0.024 C 
ATOM      7  C   UNL     1      32.918 -13.773 -23.432  0.00  0.00    +0.227 C 
ENDROOT
BRANCH   3  10
ATOM      8  O   UNL     1      31.562  -9.507 -23.080  0.00  0.00    -0.427 OA
ATOM      9  N   UNL     1      33.584 -10.517 -23.258  0.00  0.00    -0.371 NA
ATOM     10  C   UNL     1      32.308 -10.642 -22.962  0.00  0.00    +0.275 C 
ATOM     11  C   UNL     1      32.465  -8.572 -23.495  0.00  0.00    +0.173 C 
ATOM     12  C   UNL     1      33.700  -9.193 -23.603  0.00  0.00    +0.151 C 
ATOM     13  C   UNL     1      32.226  -7.230 -23.770  0.00  0.00    +0.040 C 
ATOM     14  C   UNL     1      34.805  -8.435 -24.017  0.00  0.00    +0.088 C 
ATOM     15  C   UNL     1      33.339  -6.489 -24.181  0.00  0.00    -0.001 C 
ATOM     16  C   UNL     1      34.603  -7.077 -24.304  0.00  0.00    -0.018 C 
ENDBRANCH   3  10
BRANCH   7  17
ATOM     17  C   UNL     1      33.654 -15.044 -23.094  0.00  0.00    +0.099 C 
BRANCH  17  18
ATOM     18  C   UNL     1      34.379 -14.915 -21.746  0.00  0.00    +0.011 C 
BRANCH  18  19
ATOM     19  C   UNL     1      34.868 -16.270 -21.219  0.00  0.00    +0.001 C 
BRANCH  19  20
ATOM     20  C   UNL     1      33.762 -17.325 -21.142  0.00  0.00    +0.000 C 
ATOM     21  C   UNL     1      34.286 -18.750 -21.063  0.00  0.00    +0.000 C 
ENDBRANCH  19  20
ENDBRANCH  18  19
ENDBRANCH  17  18
BRANCH  17  22
ATOM     22  C   UNL     1      34.605 -15.396 -24.243  0.00  0.00    +0.133 C 
BRANCH  22  24
ATOM     23  O   UNL     1      35.241 -18.216 -24.220  0.00  0.00    -0.263 OA
ATOM     24  N   UNL     1      34.093 -16.415 -25.120  0.00  0.00    -0.164 N 
ATOM     25  C   UNL     1      34.457 -17.727 -25.028  0.00  0.00    +0.327 C 
BRANCH  24  26
ATOM     26  O   UNL     1      33.186 -15.940 -26.080  0.00  0.00    -0.291 OA
ATOM     27  H   UNL     1      33.663 -15.720 -26.894  0.00  0.00    +0.242 HD
ENDBRANCH  24  26
ENDBRANCH  22  24
ENDBRANCH  17  22
ENDBRANCH   7  17
TORSDOF 8
ENDMDL
MODEL 5
REMARK VINA RESULT:      -8.4      2.631      7.422
REMARK  Name = 25134267
REMARK  8 active torsions:
REMARK  status: ('A' for Active; 'I' for Inactive)
REMARK    1  A    between atoms: C_3  and  C_10
REMARK    2  A    between atoms: C_7  and  C_17
REMARK    3  A    between atoms: C_17  and  C_18
REMARK    4  A    between atoms: C_17  and  C_22
REMARK    5  A    between atoms: C_18  and  C_19
REMARK    6  A    between atoms: C_19  and  C_20
REMARK    7  A    between atoms: C_22  and  N_24
REMARK    8  A    between atoms: N_24  and  O_26
REMARK                            x       y       z     vdW  Elec       q    Type
REMARK                         _______ _______ _______ _____ _____    ______ ____
ROOT
ATOM      1  O   UNL     1      35.054 -13.759 -22.548  0.00  0.00    -0.275 OA
ATOM      2  N   UNL     1      33.758 -13.837 -24.464  0.00  0.00    -0.272 N 
ATOM      3  C   UNL     1      34.217 -12.561 -25.026  0.00  0.00    +0.165 C 
ATOM      4  C   UNL     1      33.723 -12.599 -26.478  0.00  0.00    +0.032 C 
ATOM      5  C   UNL     1      32.825 -14.508 -25.365  0.00  0.00    +0.094 C 
ATOM      6  C   UNL     1      32.470 -13.463 -26.413  0.00  0.00    +0.024 C 
ATOM      7  C   UNL     1      34.267 -14.357 -23.284  0.00  0.00    +0.227 C 
ENDROOT
BRANCH   3  10
ATOM      8  O   UNL     1      34.489 -10.218 -24.389  0.00  0.00    -0.427 OA
ATOM      9  N   UNL     1      32.646 -11.218 -23.529  0.00  0.00    -0.371 NA
ATOM     10  C   UNL     1      33.722 -11.339 -24.276  0.00  0.00    +0.275 C 
ATOM     11  C   UNL     1      33.824  -9.297 -23.633  0.00  0.00    +0.173 C 
ATOM     12  C   UNL     1      32.697  -9.913 -23.108  0.00  0.00    +0.151 C 
ATOM     13  C   UNL     1      34.181  -7.973 -23.406  0.00  0.00    +0.040 C 
ATOM     14  C   UNL     1      31.839  -9.167 -22.286  0.00  0.00    +0.088 C 
ATOM     15  C   UNL     1      33.315  -7.244 -22.584  0.00  0.00    -0.001 C 
ATOM     16  C   UNL     1      32.167  -7.827 -22.034  0.00  0.00    -0.018 C 
ENDBRANCH   3  10
BRANCH   7  17
ATOM     17  C   UNL     1      33.788 -15.740 -22.923  0.00  0.00    +0.099 C 
BRANCH  17  18
ATOM     18  C   UNL     1      33.131 -15.746 -21.535  0.00  0.00    +0.011 C 
BRANCH  18  19
ATOM     19  C   UNL     1      32.152 -14.578 -21.351  0.00  0.00    +0.001 C 
BRANCH  19  20
ATOM     20  C   UNL     1      32.518 -13.661 -20.182  0.00  0.00    +0.000 C 
ATOM     21  C   UNL     1      31.844 -12.299 -20.245  0.00  0.00    +0.000 C 
ENDBRANCH  19  20
ENDBRANCH  18  19
ENDBRANCH  17  18
BRANCH  17  22
ATOM     22  C   UNL     1      34.959 -16.722 -23.025  0.00  0.00    +0.133 C 
BRANCH  22  24
ATOM     23  O   UNL     1      34.772 -17.141 -25.879  0.00  0.00    -0.263 OA
ATOM     24  N   UNL     1      34.628 -17.943 -23.710  0.00  0.00    -0.164 N 
ATOM     25  C   UNL     1      34.565 -18.039 -25.070  0.00  0.00    +0.327 C 
BRANCH  24  26
ATOM     26  O   UNL     1      34.375 -19.027 -22.855  0.00  0.00    -0.291 OA
ATOM     27  H   UNL     1      35.194 -19.530 -22.721  0.00  0.00    +0.242 HD
ENDBRANCH  24  26
ENDBRANCH  22  24
ENDBRANCH  17  22
ENDBRANCH   7  17
TORSDOF 8
ENDMDL
MODEL 6
REMARK VINA RESULT:      -8.3     14.032     17.252
REMARK  Name = 25134267
REMARK  8 active torsions:
REMARK  status: ('A' for Active; 'I' for Inactive)
REMARK    1  A    between atoms: C_3  and  C_10
REMARK    2  A    between atoms: C_7  and  C_17
REMARK    3  A    between atoms: C_17  and  C_18
REMARK    4  A    between atoms: C_17  and  C_22
REMARK    5  A    between atoms: C_18  and  C_19
REMARK    6  A    between atoms: C_19  and  C_20
REMARK    7  A    between atoms: C_22  and  N_24
REMARK    8  A    between atoms: N_24  and  O_26
REMARK                            x       y       z     vdW  Elec       q    Type
REMARK                         _______ _______ _______ _____ _____    ______ ____
ROOT
ATOM      1  O   UNL     1      36.375 -25.053 -15.753  0.00  0.00    -0.275 OA
ATOM      2  N   UNL     1      36.477 -24.081 -13.655  0.00  0.00    -0.272 N 
ATOM      3  C   UNL     1      35.335 -24.803 -13.083  0.00  0.00    +0.165 C 
ATOM      4  C   UNL     1      35.455 -24.546 -11.575  0.00  0.00    +0.032 C 
ATOM      5  C   UNL     1      37.110 -23.216 -12.663  0.00  0.00    +0.094 C 
ATOM      6  C   UNL     1      36.139 -23.186 -11.492  0.00  0.00    +0.024 C 
ATOM      7  C   UNL     1      36.938 -24.315 -14.943  0.00  0.00    +0.227 C 
ENDROOT
BRANCH   3  10
ATOM      8  O   UNL     1      32.903 -25.025 -13.134  0.00  0.00    -0.427 OA
ATOM      9  N   UNL     1      33.734 -23.460 -14.547  0.00  0.00    -0.371 NA
ATOM     10  C   UNL     1      33.990 -24.376 -13.639  0.00  0.00    +0.275 C 
ATOM     11  C   UNL     1      31.854 -24.456 -13.796  0.00  0.00    +0.173 C 
ATOM     12  C   UNL     1      32.366 -23.499 -14.660  0.00  0.00    +0.151 C 
ATOM     13  C   UNL     1      30.503 -24.755 -13.656  0.00  0.00    +0.040 C 
ATOM     14  C   UNL     1      31.479 -22.766 -15.461  0.00  0.00    +0.088 C 
ATOM     15  C   UNL     1      29.633 -24.014 -14.463  0.00  0.00    -0.001 C 
ATOM     16  C   UNL     1      30.108 -23.040 -15.348  0.00  0.00    -0.018 C 
ENDBRANCH   3  10
BRANCH   7  17
ATOM     17  C   UNL     1      38.203 -23.590 -15.323  0.00  0.00    +0.099 C 
BRANCH  17  18
ATOM     18  C   UNL     1      37.924 -22.529 -16.397  0.00  0.00    +0.011 C 
BRANCH  18  19
ATOM     19  C   UNL     1      36.477 -22.020 -16.347  0.00  0.00    +0.001 C 
BRANCH  19  20
ATOM     20  C   UNL     1      35.745 -22.144 -17.685  0.00  0.00    +0.000 C 
ATOM     21  C   UNL     1      36.428 -21.401 -18.822  0.00  0.00    +0.000 C 
ENDBRANCH  19  20
ENDBRANCH  18  19
ENDBRANCH  17  18
BRANCH  17  22
ATOM     22  C   UNL     1      39.257 -24.611 -15.763  0.00  0.00    +0.133 C 
BRANCH  22  24
ATOM     23  O   UNL     1      38.596 -27.157 -14.563  0.00  0.00    -0.263 OA
ATOM     24  N   UNL     1      39.923 -25.260 -14.665  0.00  0.00    -0.164 N 
ATOM     25  C   UNL     1      39.532 -26.470 -14.168  0.00  0.00    +0.327 C 
BRANCH  24  26
ATOM     26  O   UNL     1      41.011 -24.539 -14.150  0.00  0.00    -0.291 OA
ATOM     27  H   UNL     1      41.270 -23.851 -14.782  0.00  0.00    +0.242 HD
ENDBRANCH  24  26
ENDBRANCH  22  24
ENDBRANCH  17  22
ENDBRANCH   7  17
TORSDOF 8
ENDMDL
MODEL 7
REMARK VINA RESULT:      -8.2      2.732      8.011
REMARK  Name = 25134267
REMARK  8 active torsions:
REMARK  status: ('A' for Active; 'I' for Inactive)
REMARK    1  A    between atoms: C_3  and  C_10
REMARK    2  A    between atoms: C_7  and  C_17
REMARK    3  A    between atoms: C_17  and  C_18
REMARK    4  A    between atoms: C_17  and  C_22
REMARK    5  A    between atoms: C_18  and  C_19
REMARK    6  A    between atoms: C_19  and  C_20
REMARK    7  A    between atoms: C_22  and  N_24
REMARK    8  A    between atoms: N_24  and  O_26
REMARK                            x       y       z     vdW  Elec       q    Type
REMARK                         _______ _______ _______ _____ _____    ______ ____
ROOT
ATOM      1  O   UNL     1      34.914 -13.838 -22.638  0.00  0.00    -0.275 OA
ATOM      2  N   UNL     1      33.758 -13.642 -24.633  0.00  0.00    -0.272 N 
ATOM      3  C   UNL     1      34.223 -12.288 -24.961  0.00  0.00    +0.165 C 
ATOM      4  C   UNL     1      33.833 -12.112 -26.434  0.00  0.00    +0.032 C 
ATOM      5  C   UNL     1      32.908 -14.181 -25.691  0.00  0.00    +0.094 C 
ATOM      6  C   UNL     1      32.601 -12.994 -26.591  0.00  0.00    +0.024 C 
ATOM      7  C   UNL     1      34.197 -14.329 -23.511  0.00  0.00    +0.227 C 
ENDROOT
BRANCH   3  10
ATOM      8  O   UNL     1      34.227  -9.974 -24.177  0.00  0.00    -0.427 OA
ATOM      9  N   UNL     1      32.653 -11.290 -23.214  0.00  0.00    -0.371 NA
ATOM     10  C   UNL     1      33.645 -11.202 -24.073  0.00  0.00    +0.275 C 
ATOM     11  C   UNL     1      33.527  -9.211 -23.289  0.00  0.00    +0.173 C 
ATOM     12  C   UNL     1      32.565 -10.020 -22.701  0.00  0.00    +0.151 C 
ATOM     13  C   UNL     1      33.715  -7.865 -22.999  0.00  0.00    +0.040 C 
ATOM     14  C   UNL     1      31.706  -9.463 -21.742  0.00  0.00    +0.088 C 
ATOM     15  C   UNL     1      32.850  -7.326 -22.040  0.00  0.00    -0.001 C 
ATOM     16  C   UNL     1      31.866  -8.107 -21.423  0.00  0.00    -0.018 C 
ENDBRANCH   3  10
BRANCH   7  17
ATOM     17  C   UNL     1      33.729 -15.757 -23.399  0.00  0.00    +0.099 C 
BRANCH  17  18
ATOM     18  C   UNL     1      33.408 -16.115 -21.940  0.00  0.00    +0.011 C 
BRANCH  18  19
ATOM     19  C   UNL     1      34.353 -17.191 -21.386  0.00  0.00    +0.001 C 
BRANCH  19  20
ATOM     20  C   UNL     1      33.639 -18.496 -21.028  0.00  0.00    +0.000 C 
ATOM     21  C   UNL     1      34.589 -19.645 -20.729  0.00  0.00    +0.000 C 
ENDBRANCH  19  20
ENDBRANCH  18  19
ENDBRANCH  17  18
BRANCH  17  22
ATOM     22  C   UNL     1      34.783 -16.682 -24.014  0.00  0.00    +0.133 C 
BRANCH  22  24
ATOM     23  O   UNL     1      35.064 -19.559 -24.001  0.00  0.00    -0.263 OA
ATOM     24  N   UNL     1      34.241 -17.619 -24.963  0.00  0.00    -0.164 N 
ATOM     25  C   UNL     1      34.431 -18.967 -24.869  0.00  0.00    +0.327 C 
BRANCH  24  26
ATOM     26  O   UNL     1      33.500 -17.023 -25.995  0.00  0.00    -0.291 OA
ATOM     27  H   UNL     1      33.977 -17.120 -26.833  0.00  0.00    +0.242 HD
ENDBRANCH  24  26
ENDBRANCH  22  24
ENDBRANCH  17  22
ENDBRANCH   7  17
TORSDOF 8
ENDMDL
MODEL 8
REMARK VINA RESULT:      -8.2     11.837     16.318
REMARK  Name = 25134267
REMARK  8 active torsions:
REMARK  status: ('A' for Active; 'I' for Inactive)
REMARK    1  A    between atoms: C_3  and  C_10
REMARK    2  A    between atoms: C_7  and  C_17
REMARK    3  A    between atoms: C_17  and  C_18
REMARK    4  A    between atoms: C_17  and  C_22
REMARK    5  A    between atoms: C_18  and  C_19
REMARK    6  A    between atoms: C_19  and  C_20
REMARK    7  A    between atoms: C_22  and  N_24
REMARK    8  A    between atoms: N_24  and  O_26
REMARK                            x       y       z     vdW  Elec       q    Type
REMARK                         _______ _______ _______ _____ _____    ______ ____
ROOT
ATOM      1  O   UNL     1      35.294 -25.273 -16.397  0.00  0.00    -0.275 OA
ATOM      2  N   UNL     1      33.620 -24.103 -15.309  0.00  0.00    -0.272 N 
ATOM      3  C   UNL     1      32.729 -23.972 -16.468  0.00  0.00    +0.165 C 
ATOM      4  C   UNL     1      31.396 -23.519 -15.859  0.00  0.00    +0.032 C 
ATOM      5  C   UNL     1      33.017 -23.528 -14.109  0.00  0.00    +0.094 C 
ATOM      6  C   UNL     1      31.810 -22.749 -14.611  0.00  0.00    +0.024 C 
ATOM      7  C   UNL     1      34.817 -24.802 -15.364  0.00  0.00    +0.227 C 
ENDROOT
BRANCH   3  10
ATOM      8  O   UNL     1      34.589 -22.910 -17.643  0.00  0.00    -0.427 OA
ATOM      9  N   UNL     1      32.536 -22.279 -18.368  0.00  0.00    -0.371 NA
ATOM     10  C   UNL     1      33.235 -23.018 -17.534  0.00  0.00    +0.275 C 
ATOM     11  C   UNL     1      34.758 -22.007 -18.652  0.00  0.00    +0.173 C 
ATOM     12  C   UNL     1      33.500 -21.624 -19.094  0.00  0.00    +0.151 C 
ATOM     13  C   UNL     1      35.958 -21.534 -19.171  0.00  0.00    +0.040 C 
ATOM     14  C   UNL     1      33.404 -20.693 -20.138  0.00  0.00    +0.088 C 
ATOM     15  C   UNL     1      35.843 -20.606 -20.212  0.00  0.00    -0.001 C 
ATOM     16  C   UNL     1      34.593 -20.193 -20.687  0.00  0.00    -0.018 C 
ENDBRANCH   3  10
BRANCH   7  17
ATOM     17  C   UNL     1      35.540 -24.958 -14.050  0.00  0.00    +0.099 C 
BRANCH  17  18
ATOM     18  C   UNL     1      35.901 -23.586 -13.460  0.00  0.00    +0.011 C 
BRANCH  18  19
ATOM     19  C   UNL     1      35.565 -23.491 -11.966  0.00  0.00    +0.001 C 
BRANCH  19  20
ATOM     20  C   UNL     1      36.770 -23.127 -11.096  0.00  0.00    +0.000 C 
ATOM     21  C   UNL     1      37.934 -22.547 -11.884  0.00  0.00    +0.000 C 
ENDBRANCH  19  20
ENDBRANCH  18  19
ENDBRANCH  17  18
BRANCH  17  22
ATOM     22  C   UNL     1      36.765 -25.853 -14.252  0.00  0.00    +0.133 C 
BRANCH  22  24
ATOM     23  O   UNL     1      39.513 -25.053 -13.843  0.00  0.00    -0.263 OA
ATOM     24  N   UNL     1      37.558 -26.020 -13.062  0.00  0.00    -0.164 N 
ATOM     25  C   UNL     1      38.855 -25.605 -12.969  0.00  0.00    +0.327 C 
BRANCH  24  26
ATOM     26  O   UNL     1      36.878 -26.647 -12.007  0.00  0.00    -0.291 OA
ATOM     27  H   UNL     1      36.002 -26.931 -12.310  0.00  0.00    +0.242 HD
ENDBRANCH  24  26
ENDBRANCH  22  24
ENDBRANCH  17  22
ENDBRANCH   7  17
TORSDOF 8
ENDMDL
MODEL 9
REMARK VINA RESULT:      -8.1      6.505     10.529
REMARK  Name = 25134267
REMARK  8 active torsions:
REMARK  status: ('A' for Active; 'I' for Inactive)
REMARK    1  A    between atoms: C_3  and  C_10
REMARK    2  A    between atoms: C_7  and  C_17
REMARK    3  A    between atoms: C_17  and  C_18
REMARK    4  A    between atoms: C_17  and  C_22
REMARK    5  A    between atoms: C_18  and  C_19
REMARK    6  A    between atoms: C_19  and  C_20
REMARK    7  A    between atoms: C_22  and  N_24
REMARK    8  A    between atoms: N_24  and  O_26
REMARK                            x       y       z     vdW  Elec       q    Type
REMARK                         _______ _______ _______ _____ _____    ______ ____
ROOT
ATOM      1  O   UNL     1      32.917 -20.165 -21.400  0.00  0.00    -0.275 OA
ATOM      2  N   UNL     1      35.113 -20.201 -20.670  0.00  0.00    -0.272 N 
ATOM      3  C   UNL     1      35.169 -21.640 -20.386  0.00  0.00    +0.165 C 
ATOM      4  C   UNL     1      36.667 -21.923 -20.214  0.00  0.00    +0.032 C 
ATOM      5  C   UNL     1      36.405 -19.562 -20.431  0.00  0.00    +0.094 C 
ATOM      6  C   UNL     1      37.228 -20.606 -19.692  0.00  0.00    +0.024 C 
ATOM      7  C   UNL     1      33.992 -19.592 -21.214  0.00  0.00    +0.227 C 
ENDROOT
BRANCH   3  10
ATOM      8  O   UNL     1      35.070 -22.500 -18.102  0.00  0.00    -0.427 OA
ATOM      9  N   UNL     1      33.049 -22.070 -19.033  0.00  0.00    -0.371 NA
ATOM     10  C   UNL     1      34.356 -22.065 -19.178  0.00  0.00    +0.275 C 
ATOM     11  C   UNL     1      34.109 -22.810 -17.184  0.00  0.00    +0.173 C 
ATOM     12  C   UNL     1      32.874 -22.546 -17.757  0.00  0.00    +0.151 C 
ATOM     13  C   UNL     1      34.296 -23.305 -15.898  0.00  0.00    +0.040 C 
ATOM     14  C   UNL     1      31.714 -22.785 -17.006  0.00  0.00    +0.088 C 
ATOM     15  C   UNL     1      33.129 -23.538 -15.163  0.00  0.00    -0.001 C 
ATOM     16  C   UNL     1      31.863 -23.284 -15.704  0.00  0.00    -0.018 C 
ENDBRANCH   3  10
BRANCH   7  17
ATOM     17  C   UNL     1      34.151 -18.137 -21.572  0.00  0.00    +0.099 C 
BRANCH  17  18
ATOM     18  C   UNL     1      33.202 -17.262 -20.741  0.00  0.00    +0.011 C 
BRANCH  18  19
ATOM     19  C   UNL     1      33.625 -15.787 -20.738  0.00  0.00    +0.001 C 
BRANCH  19  20
ATOM     20  C   UNL     1      32.571 -14.853 -21.338  0.00  0.00    +0.000 C 
ATOM     21  C   UNL     1      32.926 -14.349 -22.727  0.00  0.00    +0.000 C 
ENDBRANCH  19  20
ENDBRANCH  18  19
ENDBRANCH  17  18
BRANCH  17  22
ATOM     22  C   UNL     1      33.944 -17.963 -23.080  0.00  0.00    +0.133 C 
BRANCH  22  24
ATOM     23  O   UNL     1      33.938 -16.898 -25.767  0.00  0.00    -0.263 OA
ATOM     24  N   UNL     1      34.976 -17.187 -23.716  0.00  0.00    -0.164 N 
ATOM     25  C   UNL     1      34.877 -16.728 -24.997  0.00  0.00    +0.327 C 
BRANCH  24  26
ATOM     26  O   UNL     1      36.092 -16.944 -22.901  0.00  0.00    -0.291 OA
ATOM     27  H   UNL     1      35.804 -16.838 -21.982  0.00  0.00    +0.242 HD
ENDBRANCH  24  26
ENDBRANCH  22  24
ENDBRANCH  17  22
ENDBRANCH   7  17
TORSDOF 8
ENDMDL
