MODEL 1
REMARK VINA RESULT:      -7.4      0.000      0.000
REMARK  Name = 179344
REMARK  2 active torsions:
REMARK  status: ('A' for Active; 'I' for Inactive)
REMARK    1  A    between atoms: C_4  and  O_21
REMARK    2  A    between atoms: O_21  and  C_23
REMARK                            x       y       z     vdW  Elec       q    Type
REMARK                         _______ _______ _______ _____ _____    ______ ____
ROOT
ATOM      1  O   UNL     1      36.449 -21.814 -16.772  0.00  0.00    -0.252 OA
ATOM      2  N   UNL     1      35.945 -23.693 -15.445  0.00  0.00    -0.223 N 
ATOM      3  N   UNL     1      38.166 -23.049 -15.971  0.00  0.00    -0.313 N 
ATOM      4  C   UNL     1      35.457 -24.145 -12.609  0.00  0.00    +0.197 C 
ATOM      5  C   UNL     1      33.988 -24.085 -13.011  0.00  0.00    +0.076 C 
ATOM      6  C   UNL     1      36.197 -25.136 -13.460  0.00  0.00    +0.032 C 
ATOM      7  C   UNL     1      33.624 -23.771 -14.449  0.00  0.00    -0.004 C 
ATOM      8  C   UNL     1      36.410 -24.893 -14.824  0.00  0.00    +0.059 C 
ATOM      9  C   UNL     1      34.511 -23.552 -15.527  0.00  0.00    +0.056 C 
ATOM     10  C   UNL     1      36.682 -26.323 -12.889  0.00  0.00    +0.000 C 
ATOM     11  C   UNL     1      32.232 -23.646 -14.677  0.00  0.00    -0.003 C 
ATOM     12  C   UNL     1      37.112 -25.838 -15.594  0.00  0.00    +0.015 C 
ATOM     13  C   UNL     1      33.957 -23.212 -16.783  0.00  0.00    +0.015 C 
ATOM     14  C   UNL     1      37.375 -27.254 -13.662  0.00  0.00    -0.000 C 
ATOM     15  C   UNL     1      36.812 -22.805 -16.131  0.00  0.00    +0.308 C 
ATOM     16  C   UNL     1      37.591 -27.012 -15.014  0.00  0.00    +0.001 C 
ATOM     17  C   UNL     1      31.715 -23.307 -15.923  0.00  0.00    -0.000 C 
ATOM     18  C   UNL     1      32.582 -23.087 -16.979  0.00  0.00    +0.001 C 
ATOM     19  H   UNL     1      38.826 -22.472 -16.418  0.00  0.00    +0.147 HD
ATOM     20  H   UNL     1      38.468 -23.799 -15.410  0.00  0.00    +0.147 HD
ENDROOT
BRANCH   4  21
ATOM     21  O   UNL     1      36.067 -22.858 -12.679  0.00  0.00    -0.447 OA
BRANCH  21  23
ATOM     22  O   UNL     1      38.150 -22.052 -12.091  0.00  0.00    -0.250 OA
ATOM     23  C   UNL     1      37.121 -22.664 -11.837  0.00  0.00    +0.318 C 
ATOM     24  C   UNL     1      36.839 -23.322 -10.521  0.00  0.00    +0.121 C 
ENDBRANCH  21  23
ENDBRANCH   4  21
TORSDOF 2
ENDMDL
MODEL 2
REMARK VINA RESULT:      -6.0     16.393     18.405
REMARK  Name = 179344
REMARK  2 active torsions:
REMARK  status: ('A' for Active; 'I' for Inactive)
REMARK    1  A    between atoms: C_4  and  O_21
REMARK    2  A    between atoms: O_21  and  C_23
REMARK                            x       y       z     vdW  Elec       q    Type
REMARK                         _______ _______ _______ _____ _____    ______ ____
ROOT
ATOM      1  O   UNL     1      31.895 -11.787 -22.673  0.00  0.00    -0.252 OA
ATOM      2  N   UNL     1      32.287  -9.573 -23.373  0.00  0.00    -0.223 N 
ATOM      3  N   UNL     1      30.437 -10.185 -22.021  0.00  0.00    -0.313 N 
ATOM      4  C   UNL     1      33.841  -7.331 -22.349  0.00  0.00    +0.197 C 
ATOM      5  C   UNL     1      34.884  -7.792 -23.361  0.00  0.00    +0.076 C 
ATOM      6  C   UNL     1      32.508  -7.142 -23.014  0.00  0.00    +0.032 C 
ATOM      7  C   UNL     1      34.627  -9.049 -24.172  0.00  0.00    -0.004 C 
ATOM      8  C   UNL     1      31.787  -8.240 -23.502  0.00  0.00    +0.059 C 
ATOM      9  C   UNL     1      33.475  -9.867 -24.137  0.00  0.00    +0.056 C 
ATOM     10  C   UNL     1      31.973  -5.852 -23.153  0.00  0.00    +0.000 C 
ATOM     11  C   UNL     1      35.707  -9.429 -25.003  0.00  0.00    -0.003 C 
ATOM     12  C   UNL     1      30.538  -8.032 -24.115  0.00  0.00    +0.015 C 
ATOM     13  C   UNL     1      33.467 -11.034 -24.936  0.00  0.00    +0.015 C 
ATOM     14  C   UNL     1      30.735  -5.656 -23.764  0.00  0.00    -0.000 C 
ATOM     15  C   UNL     1      31.558 -10.600 -22.721  0.00  0.00    +0.308 C 
ATOM     16  C   UNL     1      30.017  -6.745 -24.245  0.00  0.00    +0.001 C 
ATOM     17  C   UNL     1      35.673 -10.584 -25.777  0.00  0.00    -0.000 C 
ATOM     18  C   UNL     1      34.549 -11.390 -25.741  0.00  0.00    +0.001 C 
ATOM     19  H   UNL     1      29.883 -10.844 -21.544  0.00  0.00    +0.147 HD
ATOM     20  H   UNL     1      30.195  -9.231 -22.000  0.00  0.00    +0.147 HD
ENDROOT
BRANCH   4  21
ATOM     21  O   UNL     1      33.741  -8.240 -21.257  0.00  0.00    -0.447 OA
BRANCH  21  23
ATOM     22  O   UNL     1      33.078  -6.674 -19.694  0.00  0.00    -0.250 OA
ATOM     23  C   UNL     1      33.024  -7.792 -20.187  0.00  0.00    +0.318 C 
ATOM     24  C   UNL     1      32.136  -8.889 -19.684  0.00  0.00    +0.121 C 
ENDBRANCH  21  23
ENDBRANCH   4  21
TORSDOF 2
ENDMDL
MODEL 3
REMARK VINA RESULT:      -6.0      2.365      3.816
REMARK  Name = 179344
REMARK  2 active torsions:
REMARK  status: ('A' for Active; 'I' for Inactive)
REMARK    1  A    between atoms: C_4  and  O_21
REMARK    2  A    between atoms: O_21  and  C_23
REMARK                            x       y       z     vdW  Elec       q    Type
REMARK                         _______ _______ _______ _____ _____    ______ ____
ROOT
ATOM      1  O   UNL     1      35.768 -26.929 -16.114  0.00  0.00    -0.252 OA
ATOM      2  N   UNL     1      36.169 -24.969 -14.871  0.00  0.00    -0.223 N 
ATOM      3  N   UNL     1      36.594 -27.141 -14.019  0.00  0.00    -0.313 N 
ATOM      4  C   UNL     1      38.398 -23.112 -14.612  0.00  0.00    +0.197 C 
ATOM      5  C   UNL     1      37.610 -22.269 -15.609  0.00  0.00    +0.076 C 
ATOM      6  C   UNL     1      37.534 -23.491 -13.444  0.00  0.00    +0.032 C 
ATOM      7  C   UNL     1      36.321 -22.819 -16.190  0.00  0.00    -0.004 C 
ATOM      8  C   UNL     1      36.464 -24.383 -13.602  0.00  0.00    +0.059 C 
ATOM      9  C   UNL     1      35.704 -24.054 -15.885  0.00  0.00    +0.056 C 
ATOM     10  C   UNL     1      37.795 -22.949 -12.176  0.00  0.00    +0.000 C 
ATOM     11  C   UNL     1      35.734 -21.990 -17.176  0.00  0.00    -0.003 C 
ATOM     12  C   UNL     1      35.677 -24.724 -12.488  0.00  0.00    +0.015 C 
ATOM     13  C   UNL     1      34.529 -24.399 -16.591  0.00  0.00    +0.015 C 
ATOM     14  C   UNL     1      37.007 -23.291 -11.078  0.00  0.00    -0.000 C 
ATOM     15  C   UNL     1      36.119 -26.373 -15.070  0.00  0.00    +0.308 C 
ATOM     16  C   UNL     1      35.948 -24.179 -11.233  0.00  0.00    +0.001 C 
ATOM     17  C   UNL     1      34.578 -22.357 -17.858  0.00  0.00    -0.000 C 
ATOM     18  C   UNL     1      33.975 -23.568 -17.565  0.00  0.00    +0.001 C 
ATOM     19  H   UNL     1      36.590 -28.123 -14.087  0.00  0.00    +0.147 HD
ATOM     20  H   UNL     1      36.937 -26.706 -13.206  0.00  0.00    +0.147 HD
ENDROOT
BRANCH   4  21
ATOM     21  O   UNL     1      38.951 -24.268 -15.233  0.00  0.00    -0.447 OA
BRANCH  21  23
ATOM     22  O   UNL     1      41.219 -24.323 -14.794  0.00  0.00    -0.250 OA
ATOM     23  C   UNL     1      40.084 -24.758 -14.654  0.00  0.00    +0.318 C 
ATOM     24  C   UNL     1      39.738 -25.937 -13.796  0.00  0.00    +0.121 C 
ENDBRANCH  21  23
ENDBRANCH   4  21
TORSDOF 2
ENDMDL
MODEL 4
REMARK VINA RESULT:      -5.8     12.932     15.366
REMARK  Name = 179344
REMARK  2 active torsions:
REMARK  status: ('A' for Active; 'I' for Inactive)
REMARK    1  A    between atoms: C_4  and  O_21
REMARK    2  A    between atoms: O_21  and  C_23
REMARK                            x       y       z     vdW  Elec       q    Type
REMARK                         _______ _______ _______ _____ _____    ______ ____
ROOT
ATOM      1  O   UNL     1      35.158  -9.667 -23.645  0.00  0.00    -0.252 OA
ATOM      2  N   UNL     1      33.687 -11.409 -24.238  0.00  0.00    -0.223 N 
ATOM      3  N   UNL     1      35.765 -11.053 -25.327  0.00  0.00    -0.313 N 
ATOM      4  C   UNL     1      33.252 -14.141 -23.328  0.00  0.00    +0.197 C 
ATOM      5  C   UNL     1      32.125 -13.524 -22.508  0.00  0.00    +0.076 C 
ATOM      6  C   UNL     1      33.128 -13.751 -24.772  0.00  0.00    +0.032 C 
ATOM      7  C   UNL     1      31.928 -12.020 -22.530  0.00  0.00    -0.004 C 
ATOM      8  C   UNL     1      33.337 -12.426 -25.179  0.00  0.00    +0.059 C 
ATOM      9  C   UNL     1      32.665 -11.073 -23.277  0.00  0.00    +0.056 C 
ATOM     10  C   UNL     1      32.797 -14.720 -25.732  0.00  0.00    +0.000 C 
ATOM     11  C   UNL     1      30.917 -11.558 -21.654  0.00  0.00    -0.003 C 
ATOM     12  C   UNL     1      33.220 -12.093 -26.540  0.00  0.00    +0.015 C 
ATOM     13  C   UNL     1      32.353  -9.705 -23.104  0.00  0.00    +0.015 C 
ATOM     14  C   UNL     1      32.681 -14.379 -27.079  0.00  0.00    -0.000 C 
ATOM     15  C   UNL     1      34.862 -10.625 -24.366  0.00  0.00    +0.308 C 
ATOM     16  C   UNL     1      32.892 -13.065 -27.484  0.00  0.00    +0.001 C 
ATOM     17  C   UNL     1      30.633 -10.205 -21.501  0.00  0.00    -0.000 C 
ATOM     18  C   UNL     1      31.356  -9.275 -22.227  0.00  0.00    +0.001 C 
ATOM     19  H   UNL     1      36.603 -10.557 -25.470  0.00  0.00    +0.147 HD
ATOM     20  H   UNL     1      35.568 -11.854 -25.864  0.00  0.00    +0.147 HD
ENDROOT
BRANCH   4  21
ATOM     21  O   UNL     1      34.529 -13.778 -22.810  0.00  0.00    -0.447 OA
BRANCH  21  23
ATOM     22  O   UNL     1      35.303 -14.117 -20.660  0.00  0.00    -0.250 OA
ATOM     23  C   UNL     1      34.971 -14.531 -21.763  0.00  0.00    +0.318 C 
ATOM     24  C   UNL     1      34.995 -15.975 -22.159  0.00  0.00    +0.121 C 
ENDBRANCH  21  23
ENDBRANCH   4  21
TORSDOF 2
ENDMDL
MODEL 5
REMARK VINA RESULT:      -5.6      2.509      4.763
REMARK  Name = 179344
REMARK  2 active torsions:
REMARK  status: ('A' for Active; 'I' for Inactive)
REMARK    1  A    between atoms: C_4  and  O_21
REMARK    2  A    between atoms: O_21  and  C_23
REMARK                            x       y       z     vdW  Elec       q    Type
REMARK                         _______ _______ _______ _____ _____    ______ ____
ROOT
ATOM      1  O   UNL     1      34.103 -23.813 -19.261  0.00  0.00    -0.252 OA
ATOM      2  N   UNL     1      34.227 -23.385 -16.949  0.00  0.00    -0.223 N 
ATOM      3  N   UNL     1      32.448 -24.604 -17.937  0.00  0.00    -0.313 N 
ATOM      4  C   UNL     1      35.476 -24.705 -14.672  0.00  0.00    +0.197 C 
ATOM      5  C   UNL     1      36.582 -23.676 -14.880  0.00  0.00    +0.076 C 
ATOM      6  C   UNL     1      34.140 -24.028 -14.569  0.00  0.00    +0.032 C 
ATOM      7  C   UNL     1      36.494 -22.719 -16.054  0.00  0.00    -0.004 C 
ATOM      8  C   UNL     1      33.567 -23.396 -15.681  0.00  0.00    +0.059 C 
ATOM      9  C   UNL     1      35.453 -22.626 -17.005  0.00  0.00    +0.056 C 
ATOM     10  C   UNL     1      33.451 -24.024 -13.347  0.00  0.00    +0.000 C 
ATOM     11  C   UNL     1      37.625 -21.880 -16.199  0.00  0.00    -0.003 C 
ATOM     12  C   UNL     1      32.311 -22.777 -15.555  0.00  0.00    +0.015 C 
ATOM     13  C   UNL     1      35.600 -21.697 -18.061  0.00  0.00    +0.015 C 
ATOM     14  C   UNL     1      32.206 -23.406 -13.231  0.00  0.00    -0.000 C 
ATOM     15  C   UNL     1      33.622 -23.893 -18.127  0.00  0.00    +0.308 C 
ATOM     16  C   UNL     1      31.636 -22.782 -14.335  0.00  0.00    +0.001 C 
ATOM     17  C   UNL     1      37.745 -20.976 -17.250  0.00  0.00    -0.000 C 
ATOM     18  C   UNL     1      36.730 -20.887 -18.185  0.00  0.00    +0.001 C 
ATOM     19  H   UNL     1      31.974 -24.986 -18.711  0.00  0.00    +0.147 HD
ATOM     20  H   UNL     1      32.090 -24.728 -17.029  0.00  0.00    +0.147 HD
ENDROOT
BRANCH   4  21
ATOM     21  O   UNL     1      35.475 -25.681 -15.709  0.00  0.00    -0.447 OA
BRANCH  21  23
ATOM     22  O   UNL     1      36.730 -27.481 -16.430  0.00  0.00    -0.250 OA
ATOM     23  C   UNL     1      36.382 -26.688 -15.566  0.00  0.00    +0.318 C 
ATOM     24  C   UNL     1      36.911 -26.690 -14.164  0.00  0.00    +0.121 C 
ENDBRANCH  21  23
ENDBRANCH   4  21
TORSDOF 2
ENDMDL
MODEL 6
REMARK VINA RESULT:      -5.2     12.991     15.535
REMARK  Name = 179344
REMARK  2 active torsions:
REMARK  status: ('A' for Active; 'I' for Inactive)
REMARK    1  A    between atoms: C_4  and  O_21
REMARK    2  A    between atoms: O_21  and  C_23
REMARK                            x       y       z     vdW  Elec       q    Type
REMARK                         _______ _______ _______ _____ _____    ______ ____
ROOT
ATOM      1  O   UNL     1      31.729 -14.901 -26.722  0.00  0.00    -0.252 OA
ATOM      2  N   UNL     1      33.381 -13.643 -25.612  0.00  0.00    -0.223 N 
ATOM      3  N   UNL     1      31.880 -12.692 -27.183  0.00  0.00    -0.313 N 
ATOM      4  C   UNL     1      33.533 -12.222 -23.074  0.00  0.00    +0.197 C 
ATOM      5  C   UNL     1      34.226 -13.488 -22.583  0.00  0.00    +0.076 C 
ATOM      6  C   UNL     1      34.195 -11.706 -24.318  0.00  0.00    +0.032 C 
ATOM      7  C   UNL     1      34.357 -14.673 -23.521  0.00  0.00    -0.004 C 
ATOM      8  C   UNL     1      34.110 -12.416 -25.524  0.00  0.00    +0.059 C 
ATOM      9  C   UNL     1      33.934 -14.748 -24.868  0.00  0.00    +0.056 C 
ATOM     10  C   UNL     1      34.912 -10.500 -24.281  0.00  0.00    +0.000 C 
ATOM     11  C   UNL     1      34.928 -15.821 -22.922  0.00  0.00    -0.003 C 
ATOM     12  C   UNL     1      34.735 -11.905 -26.675  0.00  0.00    +0.015 C 
ATOM     13  C   UNL     1      34.100 -15.977 -25.547  0.00  0.00    +0.015 C 
ATOM     14  C   UNL     1      35.531 -10.002 -25.427  0.00  0.00    -0.000 C 
ATOM     15  C   UNL     1      32.319 -13.834 -26.533  0.00  0.00    +0.308 C 
ATOM     16  C   UNL     1      35.443 -10.704 -26.624  0.00  0.00    +0.001 C 
ATOM     17  C   UNL     1      35.077 -17.019 -23.614  0.00  0.00    -0.000 C 
ATOM     18  C   UNL     1      34.659 -17.098 -24.930  0.00  0.00    +0.001 C 
ATOM     19  H   UNL     1      31.146 -12.749 -27.836  0.00  0.00    +0.147 HD
ATOM     20  H   UNL     1      32.302 -11.823 -26.992  0.00  0.00    +0.147 HD
ENDROOT
BRANCH   4  21
ATOM     21  O   UNL     1      32.142 -12.443 -23.291  0.00  0.00    -0.447 OA
BRANCH  21  23
ATOM     22  O   UNL     1      30.513 -10.935 -22.651  0.00  0.00    -0.250 OA
ATOM     23  C   UNL     1      31.307 -11.832 -22.403  0.00  0.00    +0.318 C 
ATOM     24  C   UNL     1      31.501 -12.427 -21.042  0.00  0.00    +0.121 C 
ENDBRANCH  21  23
ENDBRANCH   4  21
TORSDOF 2
ENDMDL
MODEL 7
REMARK VINA RESULT:      -4.8      7.012      9.954
REMARK  Name = 179344
REMARK  2 active torsions:
REMARK  status: ('A' for Active; 'I' for Inactive)
REMARK    1  A    between atoms: C_4  and  O_21
REMARK    2  A    between atoms: O_21  and  C_23
REMARK                            x       y       z     vdW  Elec       q    Type
REMARK                         _______ _______ _______ _____ _____    ______ ____
ROOT
ATOM      1  O   UNL     1      32.157 -20.179 -19.714  0.00  0.00    -0.252 OA
ATOM      2  N   UNL     1      33.849 -19.563 -21.232  0.00  0.00    -0.223 N 
ATOM      3  N   UNL     1      31.576 -18.950 -21.523  0.00  0.00    -0.313 N 
ATOM      4  C   UNL     1      35.732 -17.350 -21.435  0.00  0.00    +0.197 C 
ATOM      5  C   UNL     1      36.713 -18.331 -20.802  0.00  0.00    +0.076 C 
ATOM      6  C   UNL     1      35.083 -17.960 -22.644  0.00  0.00    +0.032 C 
ATOM      7  C   UNL     1      36.223 -19.703 -20.379  0.00  0.00    -0.004 C 
ATOM      8  C   UNL     1      34.186 -19.029 -22.515  0.00  0.00    +0.059 C 
ATOM      9  C   UNL     1      34.922 -20.231 -20.536  0.00  0.00    +0.056 C 
ATOM     10  C   UNL     1      35.376 -17.460 -23.922  0.00  0.00    +0.000 C 
ATOM     11  C   UNL     1      37.200 -20.484 -19.716  0.00  0.00    -0.003 C 
ATOM     12  C   UNL     1      33.589 -19.575 -23.665  0.00  0.00    +0.015 C 
ATOM     13  C   UNL     1      34.662 -21.519 -20.013  0.00  0.00    +0.015 C 
ATOM     14  C   UNL     1      34.780 -18.010 -25.057  0.00  0.00    -0.000 C 
ATOM     15  C   UNL     1      32.512 -19.634 -20.764  0.00  0.00    +0.308 C 
ATOM     16  C   UNL     1      33.887 -19.067 -24.929  0.00  0.00    +0.001 C 
ATOM     17  C   UNL     1      36.915 -21.748 -19.208  0.00  0.00    -0.000 C 
ATOM     18  C   UNL     1      35.641 -22.265 -19.356  0.00  0.00    +0.001 C 
ATOM     19  H   UNL     1      30.628 -18.955 -21.257  0.00  0.00    +0.147 HD
ATOM     20  H   UNL     1      31.859 -18.459 -22.327  0.00  0.00    +0.147 HD
ENDROOT
BRANCH   4  21
ATOM     21  O   UNL     1      34.753 -16.917 -20.495  0.00  0.00    -0.447 OA
BRANCH  21  23
ATOM     22  O   UNL     1      35.042 -14.625 -20.533  0.00  0.00    -0.250 OA
ATOM     23  C   UNL     1      34.342 -15.624 -20.632  0.00  0.00    +0.318 C 
ATOM     24  C   UNL     1      32.875 -15.594 -20.930  0.00  0.00    +0.121 C 
ENDBRANCH  21  23
ENDBRANCH   4  21
TORSDOF 2
ENDMDL
MODEL 8
REMARK VINA RESULT:      -4.7      1.677      4.559
REMARK  Name = 179344
REMARK  2 active torsions:
REMARK  status: ('A' for Active; 'I' for Inactive)
REMARK    1  A    between atoms: C_4  and  O_21
REMARK    2  A    between atoms: O_21  and  C_23
REMARK                            x       y       z     vdW  Elec       q    Type
REMARK                         _______ _______ _______ _____ _____    ______ ____
ROOT
ATOM      1  O   UNL     1      33.540 -24.922 -13.987  0.00  0.00    -0.252 OA
ATOM      2  N   UNL     1      35.320 -24.051 -15.260  0.00  0.00    -0.223 N 
ATOM      3  N   UNL     1      33.249 -22.923 -15.006  0.00  0.00    -0.313 N 
ATOM      4  C   UNL     1      37.663 -22.418 -14.682  0.00  0.00    +0.197 C 
ATOM      5  C   UNL     1      38.394 -23.756 -14.649  0.00  0.00    +0.076 C 
ATOM      6  C   UNL     1      36.884 -22.275 -15.957  0.00  0.00    +0.032 C 
ATOM      7  C   UNL     1      37.603 -25.039 -14.816  0.00  0.00    -0.004 C 
ATOM      8  C   UNL     1      35.764 -23.079 -16.210  0.00  0.00    +0.059 C 
ATOM      9  C   UNL     1      36.214 -25.163 -15.045  0.00  0.00    +0.056 C 
ATOM     10  C   UNL     1      37.277 -21.326 -16.913  0.00  0.00    +0.000 C 
ATOM     11  C   UNL     1      38.376 -26.216 -14.669  0.00  0.00    -0.003 C 
ATOM     12  C   UNL     1      35.051 -22.917 -17.410  0.00  0.00    +0.015 C 
ATOM     13  C   UNL     1      35.666 -26.465 -15.110  0.00  0.00    +0.015 C 
ATOM     14  C   UNL     1      36.564 -21.174 -18.102  0.00  0.00    -0.000 C 
ATOM     15  C   UNL     1      34.006 -24.050 -14.727  0.00  0.00    +0.308 C 
ATOM     16  C   UNL     1      35.451 -21.969 -18.351  0.00  0.00    +0.001 C 
ATOM     17  C   UNL     1      37.810 -27.485 -14.734  0.00  0.00    -0.000 C 
ATOM     18  C   UNL     1      36.450 -27.609 -14.953  0.00  0.00    +0.001 C 
ATOM     19  H   UNL     1      32.327 -22.854 -14.667  0.00  0.00    +0.147 HD
ATOM     20  H   UNL     1      33.633 -22.192 -15.541  0.00  0.00    +0.147 HD
ENDROOT
BRANCH   4  21
ATOM     21  O   UNL     1      36.815 -22.263 -13.547  0.00  0.00    -0.447 OA
BRANCH  21  23
ATOM     22  O   UNL     1      38.430 -22.356 -11.897  0.00  0.00    -0.250 OA
ATOM     23  C   UNL     1      37.344 -22.679 -12.361  0.00  0.00    +0.318 C 
ATOM     24  C   UNL     1      36.387 -23.611 -11.685  0.00  0.00    +0.121 C 
ENDBRANCH  21  23
ENDBRANCH   4  21
TORSDOF 2
ENDMDL
MODEL 9
REMARK VINA RESULT:      -4.7     17.410     19.691
REMARK  Name = 179344
REMARK  2 active torsions:
REMARK  status: ('A' for Active; 'I' for Inactive)
REMARK    1  A    between atoms: C_4  and  O_21
REMARK    2  A    between atoms: O_21  and  C_23
REMARK                            x       y       z     vdW  Elec       q    Type
REMARK                         _______ _______ _______ _____ _____    ______ ____
ROOT
ATOM      1  O   UNL     1      30.128  -6.999 -25.573  0.00  0.00    -0.252 OA
ATOM      2  N   UNL     1      31.860  -6.863 -23.983  0.00  0.00    -0.223 N 
ATOM      3  N   UNL     1      29.698  -7.686 -23.461  0.00  0.00    -0.313 N 
ATOM      4  C   UNL     1      34.046  -8.605 -23.161  0.00  0.00    +0.197 C 
ATOM      5  C   UNL     1      34.884  -7.732 -24.089  0.00  0.00    +0.076 C 
ATOM      6  C   UNL     1      33.289  -7.756 -22.181  0.00  0.00    +0.032 C 
ATOM      7  C   UNL     1      34.205  -6.644 -24.899  0.00  0.00    -0.004 C 
ATOM      8  C   UNL     1      32.246  -6.923 -22.608  0.00  0.00    +0.059 C 
ATOM      9  C   UNL     1      32.837  -6.291 -24.878  0.00  0.00    +0.056 C 
ATOM     10  C   UNL     1      33.625  -7.792 -20.819  0.00  0.00    +0.000 C 
ATOM     11  C   UNL     1      35.069  -5.969 -25.795  0.00  0.00    -0.003 C 
ATOM     12  C   UNL     1      31.550  -6.145 -21.666  0.00  0.00    +0.015 C 
ATOM     13  C   UNL     1      32.400  -5.278 -25.763  0.00  0.00    +0.015 C 
ATOM     14  C   UNL     1      32.931  -7.015 -19.892  0.00  0.00    -0.000 C 
ATOM     15  C   UNL     1      30.538  -7.137 -24.417  0.00  0.00    +0.308 C 
ATOM     16  C   UNL     1      31.894  -6.191 -20.315  0.00  0.00    +0.001 C 
ATOM     17  C   UNL     1      34.611  -4.978 -26.657  0.00  0.00    -0.000 C 
ATOM     18  C   UNL     1      33.271  -4.634 -26.643  0.00  0.00    +0.001 C 
ATOM     19  H   UNL     1      28.766  -7.902 -23.692  0.00  0.00    +0.147 HD
ATOM     20  H   UNL     1      30.033  -7.860 -22.552  0.00  0.00    +0.147 HD
ENDROOT
BRANCH   4  21
ATOM     21  O   UNL     1      33.161  -9.445 -23.898  0.00  0.00    -0.447 OA
BRANCH  21  23
ATOM     22  O   UNL     1      32.188 -10.951 -22.442  0.00  0.00    -0.250 OA
ATOM     23  C   UNL     1      32.947 -10.680 -23.363  0.00  0.00    +0.318 C 
ATOM     24  C   UNL     1      33.792 -11.689 -24.079  0.00  0.00    +0.121 C 
ENDBRANCH  21  23
ENDBRANCH   4  21
TORSDOF 2
ENDMDL
