MODEL 1
REMARK VINA RESULT:     -10.1      0.000      0.000
REMARK  Name = 9927355
REMARK  5 active torsions:
REMARK  status: ('A' for Active; 'I' for Inactive)
REMARK    1  A    between atoms: C_7  and  C_14
REMARK    2  A    between atoms: C_11  and  C_24
REMARK    3  A    between atoms: C_12  and  O_22
REMARK    4  A    between atoms: C_19  and  O_20
REMARK    5  A    between atoms: C_24  and  O_25
REMARK                            x       y       z     vdW  Elec       q    Type
REMARK                         _______ _______ _______ _____ _____    ______ ____
ROOT
ATOM      1  O   UNL     1      33.237 -13.964 -24.095  0.00  0.00    -0.475 OA
ATOM      2  C   UNL     1      33.797 -13.742 -21.713  0.00  0.00    +0.049 C 
ATOM      3  C   UNL     1      34.637 -15.028 -21.730  0.00  0.00    +0.029 C 
ATOM      4  C   UNL     1      32.417 -14.181 -21.188  0.00  0.00    +0.004 C 
ATOM      5  C   UNL     1      34.136 -15.750 -20.476  0.00  0.00    +0.005 C 
ATOM      6  C   UNL     1      32.633 -15.509 -20.465  0.00  0.00    +0.000 C 
ATOM      7  C   UNL     1      33.795 -13.091 -23.101  0.00  0.00    +0.188 C 
ATOM      8  C   UNL     1      34.454 -15.793 -23.021  0.00  0.00    +0.014 C 
ATOM      9  C   UNL     1      33.778 -15.224 -24.111  0.00  0.00    +0.133 C 
ATOM     10  C   UNL     1      34.993 -17.081 -23.165  0.00  0.00    +0.035 C 
ATOM     11  C   UNL     1      33.588 -15.952 -25.289  0.00  0.00    +0.044 C 
ATOM     12  C   UNL     1      34.818 -17.800 -24.348  0.00  0.00    +0.133 C 
ATOM     13  C   UNL     1      34.110 -17.239 -25.407  0.00  0.00    +0.038 C 
ENDROOT
BRANCH   7  14
ATOM     14  C   UNL     1      33.067 -11.760 -23.103  0.00  0.00    +0.017 C 
ATOM     15  C   UNL     1      33.545 -10.707 -23.882  0.00  0.00    +0.002 C 
ATOM     16  C   UNL     1      31.922 -11.591 -22.325  0.00  0.00    +0.002 C 
ATOM     17  C   UNL     1      32.876  -9.482 -23.882  0.00  0.00    +0.036 C 
ATOM     18  C   UNL     1      31.254 -10.366 -22.326  0.00  0.00    +0.036 C 
ATOM     19  C   UNL     1      31.732  -9.312 -23.105  0.00  0.00    +0.134 C 
BRANCH  19  20
ATOM     20  O   UNL     1      31.079  -8.118 -23.107  0.00  0.00    -0.506 OA
ATOM     21  H   UNL     1      30.247  -8.038 -22.682  0.00  0.00    +0.292 HD
ENDBRANCH  19  20
ENDBRANCH   7  14
BRANCH  12  22
ATOM     22  O   UNL     1      35.340 -19.051 -24.466  0.00  0.00    -0.506 OA
ATOM     23  H   UNL     1      36.212 -19.167 -24.788  0.00  0.00    +0.292 HD
ENDBRANCH  12  22
BRANCH  11  24
ATOM     24  C   UNL     1      32.841 -15.369 -26.445  0.00  0.00    +0.172 C 
BRANCH  24  25
ATOM     25  O   UNL     1      33.740 -14.621 -27.254  0.00  0.00    -0.346 OA
ATOM     26  C   UNL     1      33.371 -13.250 -27.312  0.00  0.00    +0.175 C 
ENDBRANCH  24  25
ENDBRANCH  11  24
TORSDOF 5
ENDMDL
MODEL 2
REMARK VINA RESULT:      -9.4      1.843      6.629
REMARK  Name = 9927355
REMARK  5 active torsions:
REMARK  status: ('A' for Active; 'I' for Inactive)
REMARK    1  A    between atoms: C_7  and  C_14
REMARK    2  A    between atoms: C_11  and  C_24
REMARK    3  A    between atoms: C_12  and  O_22
REMARK    4  A    between atoms: C_19  and  O_20
REMARK    5  A    between atoms: C_24  and  O_25
REMARK                            x       y       z     vdW  Elec       q    Type
REMARK                         _______ _______ _______ _____ _____    ______ ____
ROOT
ATOM      1  O   UNL     1      33.630 -11.491 -23.501  0.00  0.00    -0.475 OA
ATOM      2  C   UNL     1      31.783 -12.569 -22.289  0.00  0.00    +0.049 C 
ATOM      3  C   UNL     1      31.007 -11.247 -22.179  0.00  0.00    +0.029 C 
ATOM      4  C   UNL     1      32.532 -12.697 -20.948  0.00  0.00    +0.004 C 
ATOM      5  C   UNL     1      30.594 -11.245 -20.705  0.00  0.00    +0.005 C 
ATOM      6  C   UNL     1      31.809 -11.783 -19.961  0.00  0.00    +0.000 C 
ATOM      7  C   UNL     1      32.671 -12.560 -23.538  0.00  0.00    +0.188 C 
ATOM      8  C   UNL     1      31.853 -10.070 -22.606  0.00  0.00    +0.014 C 
ATOM      9  C   UNL     1      33.094 -10.258 -23.234  0.00  0.00    +0.133 C 
ATOM     10  C   UNL     1      31.393  -8.758 -22.412  0.00  0.00    +0.035 C 
ATOM     11  C   UNL     1      33.882  -9.161 -23.596  0.00  0.00    +0.044 C 
ATOM     12  C   UNL     1      32.172  -7.664 -22.791  0.00  0.00    +0.133 C 
ATOM     13  C   UNL     1      33.420  -7.866 -23.376  0.00  0.00    +0.038 C 
ENDROOT
BRANCH   7  14
ATOM     14  C   UNL     1      33.374 -13.889 -23.745  0.00  0.00    +0.017 C 
ATOM     15  C   UNL     1      34.220 -14.390 -22.756  0.00  0.00    +0.002 C 
ATOM     16  C   UNL     1      33.174 -14.606 -24.924  0.00  0.00    +0.002 C 
ATOM     17  C   UNL     1      34.867 -15.611 -22.947  0.00  0.00    +0.036 C 
ATOM     18  C   UNL     1      33.821 -15.827 -25.114  0.00  0.00    +0.036 C 
ATOM     19  C   UNL     1      34.668 -16.329 -24.125  0.00  0.00    +0.134 C 
BRANCH  19  20
ATOM     20  O   UNL     1      35.298 -17.522 -24.310  0.00  0.00    -0.506 OA
ATOM     21  H   UNL     1      35.903 -17.626 -25.019  0.00  0.00    +0.292 HD
ENDBRANCH  19  20
ENDBRANCH   7  14
BRANCH  12  22
ATOM     22  O   UNL     1      31.713  -6.399 -22.587  0.00  0.00    -0.506 OA
ATOM     23  H   UNL     1      32.261  -5.763 -22.172  0.00  0.00    +0.292 HD
ENDBRANCH  12  22
BRANCH  11  24
ATOM     24  C   UNL     1      35.219  -9.350 -24.236  0.00  0.00    +0.172 C 
BRANCH  24  25
ATOM     25  O   UNL     1      35.071  -9.319 -25.650  0.00  0.00    -0.346 OA
ATOM     26  C   UNL     1      35.616 -10.483 -26.256  0.00  0.00    +0.175 C 
ENDBRANCH  24  25
ENDBRANCH  11  24
TORSDOF 5
ENDMDL
MODEL 3
REMARK VINA RESULT:      -9.4      8.755     11.951
REMARK  Name = 9927355
REMARK  5 active torsions:
REMARK  status: ('A' for Active; 'I' for Inactive)
REMARK    1  A    between atoms: C_7  and  C_14
REMARK    2  A    between atoms: C_11  and  C_24
REMARK    3  A    between atoms: C_12  and  O_22
REMARK    4  A    between atoms: C_19  and  O_20
REMARK    5  A    between atoms: C_24  and  O_25
REMARK                            x       y       z     vdW  Elec       q    Type
REMARK                         _______ _______ _______ _____ _____    ______ ____
ROOT
ATOM      1  O   UNL     1      32.599 -22.497 -16.969  0.00  0.00    -0.475 OA
ATOM      2  C   UNL     1      34.903 -23.318 -16.724  0.00  0.00    +0.049 C 
ATOM      3  C   UNL     1      34.481 -24.363 -15.680  0.00  0.00    +0.029 C 
ATOM      4  C   UNL     1      35.406 -22.119 -15.897  0.00  0.00    +0.004 C 
ATOM      5  C   UNL     1      35.540 -24.168 -14.591  0.00  0.00    +0.005 C 
ATOM      6  C   UNL     1      35.738 -22.660 -14.509  0.00  0.00    +0.000 C 
ATOM      7  C   UNL     1      33.737 -23.017 -17.673  0.00  0.00    +0.188 C 
ATOM      8  C   UNL     1      33.055 -24.151 -15.226  0.00  0.00    +0.014 C 
ATOM      9  C   UNL     1      32.210 -23.246 -15.888  0.00  0.00    +0.133 C 
ATOM     10  C   UNL     1      32.536 -24.885 -14.149  0.00  0.00    +0.035 C 
ATOM     11  C   UNL     1      30.903 -23.035 -15.441  0.00  0.00    +0.044 C 
ATOM     12  C   UNL     1      31.224 -24.686 -13.715  0.00  0.00    +0.133 C 
ATOM     13  C   UNL     1      30.411 -23.756 -14.356  0.00  0.00    +0.038 C 
ENDROOT
BRANCH   7  14
ATOM     14  C   UNL     1      34.143 -22.071 -18.788  0.00  0.00    +0.017 C 
ATOM     15  C   UNL     1      35.477 -21.998 -19.188  0.00  0.00    +0.002 C 
ATOM     16  C   UNL     1      33.182 -21.274 -19.409  0.00  0.00    +0.002 C 
ATOM     17  C   UNL     1      35.850 -21.126 -20.212  0.00  0.00    +0.036 C 
ATOM     18  C   UNL     1      33.555 -20.403 -20.433  0.00  0.00    +0.036 C 
ATOM     19  C   UNL     1      34.890 -20.330 -20.834  0.00  0.00    +0.134 C 
BRANCH  19  20
ATOM     20  O   UNL     1      35.254 -19.481 -21.833  0.00  0.00    -0.506 OA
ATOM     21  H   UNL     1      34.613 -19.176 -22.445  0.00  0.00    +0.292 HD
ENDBRANCH  19  20
ENDBRANCH   7  14
BRANCH  12  22
ATOM     22  O   UNL     1      30.741 -25.402 -12.662  0.00  0.00    -0.506 OA
ATOM     23  H   UNL     1      29.908 -25.826 -12.727  0.00  0.00    +0.292 HD
ENDBRANCH  12  22
BRANCH  11  24
ATOM     24  C   UNL     1      30.005 -22.051 -16.119  0.00  0.00    +0.172 C 
BRANCH  24  25
ATOM     25  O   UNL     1      29.312 -22.700 -17.177  0.00  0.00    -0.346 OA
ATOM     26  C   UNL     1      27.911 -22.730 -16.941  0.00  0.00    +0.175 C 
ENDBRANCH  24  25
ENDBRANCH  11  24
TORSDOF 5
ENDMDL
MODEL 4
REMARK VINA RESULT:      -9.2      2.022      6.575
REMARK  Name = 9927355
REMARK  5 active torsions:
REMARK  status: ('A' for Active; 'I' for Inactive)
REMARK    1  A    between atoms: C_7  and  C_14
REMARK    2  A    between atoms: C_11  and  C_24
REMARK    3  A    between atoms: C_12  and  O_22
REMARK    4  A    between atoms: C_19  and  O_20
REMARK    5  A    between atoms: C_24  and  O_25
REMARK                            x       y       z     vdW  Elec       q    Type
REMARK                         _______ _______ _______ _____ _____    ______ ____
ROOT
ATOM      1  O   UNL     1      33.423 -11.851 -22.976  0.00  0.00    -0.475 OA
ATOM      2  C   UNL     1      31.605 -12.541 -21.474  0.00  0.00    +0.049 C 
ATOM      3  C   UNL     1      30.816 -11.250 -21.740  0.00  0.00    +0.029 C 
ATOM      4  C   UNL     1      32.373 -12.269 -20.166  0.00  0.00    +0.004 C 
ATOM      5  C   UNL     1      30.423 -10.822 -20.323  0.00  0.00    +0.005 C 
ATOM      6  C   UNL     1      31.654 -11.113 -19.475  0.00  0.00    +0.000 C 
ATOM      7  C   UNL     1      32.476 -12.890 -22.686  0.00  0.00    +0.188 C 
ATOM      8  C   UNL     1      31.644 -10.242 -22.504  0.00  0.00    +0.014 C 
ATOM      9  C   UNL     1      32.878 -10.596 -23.070  0.00  0.00    +0.133 C 
ATOM     10  C   UNL     1      31.172  -8.934 -22.692  0.00  0.00    +0.035 C 
ATOM     11  C   UNL     1      33.648  -9.648 -23.748  0.00  0.00    +0.044 C 
ATOM     12  C   UNL     1      31.934  -7.992 -23.385  0.00  0.00    +0.133 C 
ATOM     13  C   UNL     1      33.175  -8.347 -23.906  0.00  0.00    +0.038 C 
ENDROOT
BRANCH   7  14
ATOM     14  C   UNL     1      33.190 -14.217 -22.509  0.00  0.00    +0.017 C 
ATOM     15  C   UNL     1      32.795 -15.090 -21.496  0.00  0.00    +0.002 C 
ATOM     16  C   UNL     1      34.240 -14.562 -23.359  0.00  0.00    +0.002 C 
ATOM     17  C   UNL     1      33.453 -16.310 -21.332  0.00  0.00    +0.036 C 
ATOM     18  C   UNL     1      34.897 -15.781 -23.195  0.00  0.00    +0.036 C 
ATOM     19  C   UNL     1      34.503 -16.655 -22.182  0.00  0.00    +0.134 C 
BRANCH  19  20
ATOM     20  O   UNL     1      35.143 -17.846 -22.023  0.00  0.00    -0.506 OA
ATOM     21  H   UNL     1      35.454 -18.314 -22.773  0.00  0.00    +0.292 HD
ENDBRANCH  19  20
ENDBRANCH   7  14
BRANCH  12  22
ATOM     22  O   UNL     1      31.464  -6.725 -23.550  0.00  0.00    -0.506 OA
ATOM     23  H   UNL     1      31.877  -6.011 -23.106  0.00  0.00    +0.292 HD
ENDBRANCH  12  22
BRANCH  11  24
ATOM     24  C   UNL     1      34.979 -10.005 -24.327  0.00  0.00    +0.172 C 
BRANCH  24  25
ATOM     25  O   UNL     1      34.785 -10.775 -25.507  0.00  0.00    -0.346 OA
ATOM     26  C   UNL     1      35.723 -10.427 -26.516  0.00  0.00    +0.175 C 
ENDBRANCH  24  25
ENDBRANCH  11  24
TORSDOF 5
ENDMDL
MODEL 5
REMARK VINA RESULT:      -9.2      1.749      6.973
REMARK  Name = 9927355
REMARK  5 active torsions:
REMARK  status: ('A' for Active; 'I' for Inactive)
REMARK    1  A    between atoms: C_7  and  C_14
REMARK    2  A    between atoms: C_11  and  C_24
REMARK    3  A    between atoms: C_12  and  O_22
REMARK    4  A    between atoms: C_19  and  O_20
REMARK    5  A    between atoms: C_24  and  O_25
REMARK                            x       y       z     vdW  Elec       q    Type
REMARK                         _______ _______ _______ _____ _____    ______ ____
ROOT
ATOM      1  O   UNL     1      32.880 -13.192 -22.399  0.00  0.00    -0.475 OA
ATOM      2  C   UNL     1      34.170 -13.617 -24.448  0.00  0.00    +0.049 C 
ATOM      3  C   UNL     1      34.163 -12.129 -24.829  0.00  0.00    +0.029 C 
ATOM      4  C   UNL     1      33.000 -14.231 -25.241  0.00  0.00    +0.004 C 
ATOM      5  C   UNL     1      33.770 -12.183 -26.309  0.00  0.00    +0.005 C 
ATOM      6  C   UNL     1      32.701 -13.265 -26.386  0.00  0.00    +0.000 C 
ATOM      7  C   UNL     1      34.083 -13.773 -22.925  0.00  0.00    +0.188 C 
ATOM      8  C   UNL     1      33.225 -11.334 -23.950  0.00  0.00    +0.014 C 
ATOM      9  C   UNL     1      32.649 -11.903 -22.804  0.00  0.00    +0.133 C 
ATOM     10  C   UNL     1      32.938  -9.993 -24.248  0.00  0.00    +0.035 C 
ATOM     11  C   UNL     1      31.759 -11.168 -22.015  0.00  0.00    +0.044 C 
ATOM     12  C   UNL     1      32.063  -9.255 -23.450  0.00  0.00    +0.133 C 
ATOM     13  C   UNL     1      31.468  -9.845 -22.338  0.00  0.00    +0.038 C 
ENDROOT
BRANCH   7  14
ATOM     14  C   UNL     1      34.196 -15.225 -22.497  0.00  0.00    +0.017 C 
ATOM     15  C   UNL     1      35.033 -16.094 -23.196  0.00  0.00    +0.002 C 
ATOM     16  C   UNL     1      33.463 -15.688 -21.405  0.00  0.00    +0.002 C 
ATOM     17  C   UNL     1      35.136 -17.428 -22.803  0.00  0.00    +0.036 C 
ATOM     18  C   UNL     1      33.566 -17.022 -21.012  0.00  0.00    +0.036 C 
ATOM     19  C   UNL     1      34.403 -17.892 -21.711  0.00  0.00    +0.134 C 
BRANCH  19  20
ATOM     20  O   UNL     1      34.505 -19.194 -21.327  0.00  0.00    -0.506 OA
ATOM     21  H   UNL     1      35.182 -19.455 -20.733  0.00  0.00    +0.292 HD
ENDBRANCH  19  20
ENDBRANCH   7  14
BRANCH  12  22
ATOM     22  O   UNL     1      31.790  -7.958 -23.760  0.00  0.00    -0.506 OA
ATOM     23  H   UNL     1      32.485  -7.379 -24.005  0.00  0.00    +0.292 HD
ENDBRANCH  12  22
BRANCH  11  24
ATOM     24  C   UNL     1      31.115 -11.774 -20.810  0.00  0.00    +0.172 C 
BRANCH  24  25
ATOM     25  O   UNL     1      30.649 -10.737 -19.956  0.00  0.00    -0.346 OA
ATOM     26  C   UNL     1      31.408 -10.669 -18.757  0.00  0.00    +0.175 C 
ENDBRANCH  24  25
ENDBRANCH  11  24
TORSDOF 5
ENDMDL
MODEL 6
REMARK VINA RESULT:      -9.2      2.843      5.787
REMARK  Name = 9927355
REMARK  5 active torsions:
REMARK  status: ('A' for Active; 'I' for Inactive)
REMARK    1  A    between atoms: C_7  and  C_14
REMARK    2  A    between atoms: C_11  and  C_24
REMARK    3  A    between atoms: C_12  and  O_22
REMARK    4  A    between atoms: C_19  and  O_20
REMARK    5  A    between atoms: C_24  and  O_25
REMARK                            x       y       z     vdW  Elec       q    Type
REMARK                         _______ _______ _______ _____ _____    ______ ____
ROOT
ATOM      1  O   UNL     1      31.806  -9.666 -22.451  0.00  0.00    -0.475 OA
ATOM      2  C   UNL     1      33.103  -9.027 -24.438  0.00  0.00    +0.049 C 
ATOM      3  C   UNL     1      33.330 -10.494 -24.833  0.00  0.00    +0.029 C 
ATOM      4  C   UNL     1      34.377  -8.626 -23.668  0.00  0.00    +0.004 C 
ATOM      5  C   UNL     1      34.831 -10.510 -25.141  0.00  0.00    +0.005 C 
ATOM      6  C   UNL     1      35.456  -9.631 -24.067  0.00  0.00    +0.000 C 
ATOM      7  C   UNL     1      31.792  -8.886 -23.656  0.00  0.00    +0.188 C 
ATOM      8  C   UNL     1      32.895 -11.438 -23.736  0.00  0.00    +0.014 C 
ATOM      9  C   UNL     1      32.169 -10.977 -22.628  0.00  0.00    +0.133 C 
ATOM     10  C   UNL     1      33.182 -12.809 -23.824  0.00  0.00    +0.035 C 
ATOM     11  C   UNL     1      31.798 -11.854 -21.604  0.00  0.00    +0.044 C 
ATOM     12  C   UNL     1      32.796 -13.687 -22.810  0.00  0.00    +0.133 C 
ATOM     13  C   UNL     1      32.110 -13.208 -21.697  0.00  0.00    +0.038 C 
ENDROOT
BRANCH   7  14
ATOM     14  C   UNL     1      31.474  -7.436 -23.339  0.00  0.00    +0.017 C 
ATOM     15  C   UNL     1      31.270  -6.526 -24.376  0.00  0.00    +0.002 C 
ATOM     16  C   UNL     1      31.385  -7.017 -22.012  0.00  0.00    +0.002 C 
ATOM     17  C   UNL     1      30.979  -5.193 -24.085  0.00  0.00    +0.036 C 
ATOM     18  C   UNL     1      31.093  -5.684 -21.722  0.00  0.00    +0.036 C 
ATOM     19  C   UNL     1      30.890  -4.772 -22.759  0.00  0.00    +0.134 C 
BRANCH  19  20
ATOM     20  O   UNL     1      30.604  -3.472 -22.475  0.00  0.00    -0.506 OA
ATOM     21  H   UNL     1      29.949  -3.019 -22.970  0.00  0.00    +0.292 HD
ENDBRANCH  19  20
ENDBRANCH   7  14
BRANCH  12  22
ATOM     22  O   UNL     1      33.091 -15.012 -22.910  0.00  0.00    -0.506 OA
ATOM     23  H   UNL     1      33.755 -15.386 -22.365  0.00  0.00    +0.292 HD
ENDBRANCH  12  22
BRANCH  11  24
ATOM     24  C   UNL     1      31.051 -11.367 -20.404  0.00  0.00    +0.172 C 
BRANCH  24  25
ATOM     25  O   UNL     1      31.966 -11.163 -19.335  0.00  0.00    -0.346 OA
ATOM     26  C   UNL     1      32.126  -9.781 -19.044  0.00  0.00    +0.175 C 
ENDBRANCH  24  25
ENDBRANCH  11  24
TORSDOF 5
ENDMDL
MODEL 7
REMARK VINA RESULT:      -9.1      3.107      7.569
REMARK  Name = 9927355
REMARK  5 active torsions:
REMARK  status: ('A' for Active; 'I' for Inactive)
REMARK    1  A    between atoms: C_7  and  C_14
REMARK    2  A    between atoms: C_11  and  C_24
REMARK    3  A    between atoms: C_12  and  O_22
REMARK    4  A    between atoms: C_19  and  O_20
REMARK    5  A    between atoms: C_24  and  O_25
REMARK                            x       y       z     vdW  Elec       q    Type
REMARK                         _______ _______ _______ _____ _____    ______ ____
ROOT
ATOM      1  O   UNL     1      33.943 -17.165 -21.595  0.00  0.00    -0.475 OA
ATOM      2  C   UNL     1      35.241 -18.326 -23.329  0.00  0.00    +0.049 C 
ATOM      3  C   UNL     1      35.408 -17.037 -24.148  0.00  0.00    +0.029 C 
ATOM      4  C   UNL     1      34.036 -19.044 -23.969  0.00  0.00    +0.004 C 
ATOM      5  C   UNL     1      35.058 -17.513 -25.562  0.00  0.00    +0.005 C 
ATOM      6  C   UNL     1      33.880 -18.459 -25.371  0.00  0.00    +0.000 C 
ATOM      7  C   UNL     1      35.090 -17.992 -21.841  0.00  0.00    +0.188 C 
ATOM      8  C   UNL     1      34.536 -15.923 -23.616  0.00  0.00    +0.014 C 
ATOM      9  C   UNL     1      33.866 -16.050 -22.390  0.00  0.00    +0.133 C 
ATOM     10  C   UNL     1      34.406 -14.721 -24.329  0.00  0.00    +0.035 C 
ATOM     11  C   UNL     1      33.038 -15.026 -21.922  0.00  0.00    +0.044 C 
ATOM     12  C   UNL     1      33.593 -13.692 -23.852  0.00  0.00    +0.133 C 
ATOM     13  C   UNL     1      32.903 -13.847 -22.653  0.00  0.00    +0.038 C 
ENDROOT
BRANCH   7  14
ATOM     14  C   UNL     1      35.031 -19.241 -20.982  0.00  0.00    +0.017 C 
ATOM     15  C   UNL     1      36.211 -19.834 -20.534  0.00  0.00    +0.002 C 
ATOM     16  C   UNL     1      33.797 -19.795 -20.642  0.00  0.00    +0.002 C 
ATOM     17  C   UNL     1      36.157 -20.984 -19.746  0.00  0.00    +0.036 C 
ATOM     18  C   UNL     1      33.744 -20.944 -19.853  0.00  0.00    +0.036 C 
ATOM     19  C   UNL     1      34.924 -21.538 -19.405  0.00  0.00    +0.134 C 
BRANCH  19  20
ATOM     20  O   UNL     1      34.872 -22.659 -18.634  0.00  0.00    -0.506 OA
ATOM     21  H   UNL     1      34.981 -22.594 -17.706  0.00  0.00    +0.292 HD
ENDBRANCH  19  20
ENDBRANCH   7  14
BRANCH  12  22
ATOM     22  O   UNL     1      33.473 -12.536 -24.561  0.00  0.00    -0.506 OA
ATOM     23  H   UNL     1      32.695 -12.369 -25.057  0.00  0.00    +0.292 HD
ENDBRANCH  12  22
BRANCH  11  24
ATOM     24  C   UNL     1      32.294 -15.162 -20.632  0.00  0.00    +0.172 C 
BRANCH  24  25
ATOM     25  O   UNL     1      32.612 -14.062 -19.790  0.00  0.00    -0.346 OA
ATOM     26  C   UNL     1      31.936 -12.881 -20.199  0.00  0.00    +0.175 C 
ENDBRANCH  24  25
ENDBRANCH  11  24
TORSDOF 5
ENDMDL
MODEL 8
REMARK VINA RESULT:      -9.0      1.873      3.919
REMARK  Name = 9927355
REMARK  5 active torsions:
REMARK  status: ('A' for Active; 'I' for Inactive)
REMARK    1  A    between atoms: C_7  and  C_14
REMARK    2  A    between atoms: C_11  and  C_24
REMARK    3  A    between atoms: C_12  and  O_22
REMARK    4  A    between atoms: C_19  and  O_20
REMARK    5  A    between atoms: C_24  and  O_25
REMARK                            x       y       z     vdW  Elec       q    Type
REMARK                         _______ _______ _______ _____ _____    ______ ____
ROOT
ATOM      1  O   UNL     1      33.387 -13.947 -22.458  0.00  0.00    -0.475 OA
ATOM      2  C   UNL     1      32.531 -12.520 -24.266  0.00  0.00    +0.049 C 
ATOM      3  C   UNL     1      32.647 -13.656 -25.295  0.00  0.00    +0.029 C 
ATOM      4  C   UNL     1      33.824 -11.700 -24.440  0.00  0.00    +0.004 C 
ATOM      5  C   UNL     1      33.330 -12.950 -26.470  0.00  0.00    +0.005 C 
ATOM      6  C   UNL     1      34.370 -12.043 -25.825  0.00  0.00    +0.000 C 
ATOM      7  C   UNL     1      32.304 -13.096 -22.864  0.00  0.00    +0.188 C 
ATOM      8  C   UNL     1      33.403 -14.838 -24.734  0.00  0.00    +0.014 C 
ATOM      9  C   UNL     1      33.722 -14.914 -23.370  0.00  0.00    +0.133 C 
ATOM     10  C   UNL     1      33.772 -15.904 -25.569  0.00  0.00    +0.035 C 
ATOM     11  C   UNL     1      34.449 -15.998 -22.868  0.00  0.00    +0.044 C 
ATOM     12  C   UNL     1      34.482 -16.994 -25.063  0.00  0.00    +0.133 C 
ATOM     13  C   UNL     1      34.827 -17.037 -23.715  0.00  0.00    +0.038 C 
ENDROOT
BRANCH   7  14
ATOM     14  C   UNL     1      32.076 -12.007 -21.833  0.00  0.00    +0.017 C 
ATOM     15  C   UNL     1      31.994 -10.674 -22.235  0.00  0.00    +0.002 C 
ATOM     16  C   UNL     1      31.949 -12.340 -20.484  0.00  0.00    +0.002 C 
ATOM     17  C   UNL     1      31.786  -9.673 -21.286  0.00  0.00    +0.036 C 
ATOM     18  C   UNL     1      31.740 -11.338 -19.537  0.00  0.00    +0.036 C 
ATOM     19  C   UNL     1      31.659 -10.004 -19.938  0.00  0.00    +0.134 C 
BRANCH  19  20
ATOM     20  O   UNL     1      31.454  -9.027 -19.013  0.00  0.00    -0.506 OA
ATOM     21  H   UNL     1      30.782  -9.127 -18.367  0.00  0.00    +0.292 HD
ENDBRANCH  19  20
ENDBRANCH   7  14
BRANCH  12  22
ATOM     22  O   UNL     1      34.839 -18.015 -25.889  0.00  0.00    -0.506 OA
ATOM     23  H   UNL     1      35.080 -17.837 -26.778  0.00  0.00    +0.292 HD
ENDBRANCH  12  22
BRANCH  11  24
ATOM     24  C   UNL     1      34.822 -16.074 -21.423  0.00  0.00    +0.172 C 
BRANCH  24  25
ATOM     25  O   UNL     1      35.220 -17.402 -21.111  0.00  0.00    -0.346 OA
ATOM     26  C   UNL     1      34.101 -18.272 -21.011  0.00  0.00    +0.175 C 
ENDBRANCH  24  25
ENDBRANCH  11  24
TORSDOF 5
ENDMDL
MODEL 9
REMARK VINA RESULT:      -8.7      2.366      5.182
REMARK  Name = 9927355
REMARK  5 active torsions:
REMARK  status: ('A' for Active; 'I' for Inactive)
REMARK    1  A    between atoms: C_7  and  C_14
REMARK    2  A    between atoms: C_11  and  C_24
REMARK    3  A    between atoms: C_12  and  O_22
REMARK    4  A    between atoms: C_19  and  O_20
REMARK    5  A    between atoms: C_24  and  O_25
REMARK                            x       y       z     vdW  Elec       q    Type
REMARK                         _______ _______ _______ _____ _____    ______ ____
ROOT
ATOM      1  O   UNL     1      32.287 -10.502 -22.368  0.00  0.00    -0.475 OA
ATOM      2  C   UNL     1      33.148  -9.674 -24.515  0.00  0.00    +0.049 C 
ATOM      3  C   UNL     1      33.364 -11.100 -25.044  0.00  0.00    +0.029 C 
ATOM      4  C   UNL     1      34.525  -9.243 -23.974  0.00  0.00    +0.004 C 
ATOM      5  C   UNL     1      34.776 -11.009 -25.630  0.00  0.00    +0.005 C 
ATOM      6  C   UNL     1      35.554 -10.157 -24.635  0.00  0.00    +0.000 C 
ATOM      7  C   UNL     1      32.006  -9.656 -23.493  0.00  0.00    +0.188 C 
ATOM      8  C   UNL     1      33.192 -12.130 -23.952  0.00  0.00    +0.014 C 
ATOM      9  C   UNL     1      32.670 -11.777 -22.698  0.00  0.00    +0.133 C 
ATOM     10  C   UNL     1      33.521 -13.474 -24.186  0.00  0.00    +0.035 C 
ATOM     11  C   UNL     1      32.544 -12.732 -21.685  0.00  0.00    +0.044 C 
ATOM     12  C   UNL     1      33.378 -14.430 -23.179  0.00  0.00    +0.133 C 
ATOM     13  C   UNL     1      32.897 -14.058 -21.927  0.00  0.00    +0.038 C 
ENDROOT
BRANCH   7  14
ATOM     14  C   UNL     1      31.685  -8.249 -23.024  0.00  0.00    +0.017 C 
ATOM     15  C   UNL     1      31.110  -7.335 -23.907  0.00  0.00    +0.002 C 
ATOM     16  C   UNL     1      31.968  -7.870 -21.712  0.00  0.00    +0.002 C 
ATOM     17  C   UNL     1      30.817  -6.041 -23.476  0.00  0.00    +0.036 C 
ATOM     18  C   UNL     1      31.675  -6.576 -21.282  0.00  0.00    +0.036 C 
ATOM     19  C   UNL     1      31.099  -5.662 -22.164  0.00  0.00    +0.134 C 
BRANCH  19  20
ATOM     20  O   UNL     1      30.811  -4.399 -21.745  0.00  0.00    -0.506 OA
ATOM     21  H   UNL     1      31.258  -3.667 -22.123  0.00  0.00    +0.292 HD
ENDBRANCH  19  20
ENDBRANCH   7  14
BRANCH  12  22
ATOM     22  O   UNL     1      33.711 -15.727 -23.422  0.00  0.00    -0.506 OA
ATOM     23  H   UNL     1      33.570 -16.096 -24.272  0.00  0.00    +0.292 HD
ENDBRANCH  12  22
BRANCH  11  24
ATOM     24  C   UNL     1      32.019 -12.361 -20.336  0.00  0.00    +0.172 C 
BRANCH  24  25
ATOM     25  O   UNL     1      30.880 -11.524 -20.490  0.00  0.00    -0.346 OA
ATOM     26  C   UNL     1      30.747 -10.621 -19.401  0.00  0.00    +0.175 C 
ENDBRANCH  24  25
ENDBRANCH  11  24
TORSDOF 5
ENDMDL
