MODEL 1
REMARK VINA RESULT:      -6.6      0.000      0.000
REMARK  Name = 3518
REMARK  4 active torsions:
REMARK  status: ('A' for Active; 'I' for Inactive)
REMARK    1  A    between atoms: C_1  and  N_2
REMARK    2  A    between atoms: C_1  and  C_11
REMARK    3  A    between atoms: C_11  and  N_12
REMARK    4  A    between atoms: N_12  and  C_15
REMARK                            x       y       z     vdW  Elec       q    Type
REMARK                         _______ _______ _______ _____ _____    ______ ____
ROOT
ATOM      1  C   UNL     1      36.202 -19.193 -20.935  0.00  0.00    -0.051 C 
ENDROOT
BRANCH   1   2
ATOM      2  N   UNL     1      35.416 -18.345 -21.831  0.00  0.00    +0.388 N 
ATOM      3  C   UNL     1      34.520 -19.144 -22.675  0.00  0.00    -0.077 C 
ATOM      4  C   UNL     1      34.724 -17.302 -21.067  0.00  0.00    -0.077 C 
ATOM      5  C   UNL     1      34.779 -18.878 -24.162  0.00  0.00    -0.023 C 
ATOM      6  C   UNL     1      33.886 -16.318 -21.893  0.00  0.00    -0.023 C 
ATOM      7  C   UNL     1      34.454 -17.471 -24.677  0.00  0.00    -0.002 C 
ATOM      8  C   UNL     1      34.648 -15.544 -22.969  0.00  0.00    -0.002 C 
ATOM      9  C   UNL     1      35.317 -16.358 -24.081  0.00  0.00    -0.000 C 
ATOM     10  H   UNL     1      36.045 -17.869 -22.478  0.00  0.00    -0.080 HD
ENDBRANCH   1   2
BRANCH   1  11
ATOM     11  C   UNL     1      35.617 -20.597 -20.883  0.00  0.00    +0.106 C 
BRANCH  11  12
ATOM     12  N   UNL     1      34.944 -20.785 -19.597  0.00  0.00    -0.242 NA
BRANCH  12  15
ATOM     13  N   UNL     1      32.695 -20.371 -19.969  0.00  0.00    -0.370 N 
ATOM     14  N   UNL     1      33.272 -22.495 -19.376  0.00  0.00    -0.370 N 
ATOM     15  C   UNL     1      33.723 -21.220 -19.636  0.00  0.00    +0.188 C 
ATOM     16  H   UNL     1      32.884 -19.428 -20.180  0.00  0.00    +0.159 HD
ATOM     17  H   UNL     1      31.769 -20.706 -19.999  0.00  0.00    +0.159 HD
ATOM     18  H   UNL     1      33.909 -23.202 -19.125  0.00  0.00    +0.159 HD
ATOM     19  H   UNL     1      32.311 -22.699 -19.442  0.00  0.00    +0.159 HD
ENDBRANCH  12  15
ENDBRANCH  11  12
ENDBRANCH   1  11
TORSDOF 4
ENDMDL
MODEL 2
REMARK VINA RESULT:      -6.5      1.225      2.574
REMARK  Name = 3518
REMARK  4 active torsions:
REMARK  status: ('A' for Active; 'I' for Inactive)
REMARK    1  A    between atoms: C_1  and  N_2
REMARK    2  A    between atoms: C_1  and  C_11
REMARK    3  A    between atoms: C_11  and  N_12
REMARK    4  A    between atoms: N_12  and  C_15
REMARK                            x       y       z     vdW  Elec       q    Type
REMARK                         _______ _______ _______ _____ _____    ______ ____
ROOT
ATOM      1  C   UNL     1      34.178 -19.341 -21.868  0.00  0.00    -0.051 C 
ENDROOT
BRANCH   1   2
ATOM      2  N   UNL     1      34.386 -17.934 -22.210  0.00  0.00    +0.388 N 
ATOM      3  C   UNL     1      35.316 -17.287 -21.278  0.00  0.00    -0.077 C 
ATOM      4  C   UNL     1      34.784 -17.806 -23.616  0.00  0.00    -0.077 C 
ATOM      5  C   UNL     1      34.671 -16.067 -20.612  0.00  0.00    -0.023 C 
ATOM      6  C   UNL     1      35.002 -16.373 -24.118  0.00  0.00    -0.023 C 
ATOM      7  C   UNL     1      34.333 -14.881 -21.524  0.00  0.00    -0.002 C 
ATOM      8  C   UNL     1      33.798 -15.439 -23.989  0.00  0.00    -0.002 C 
ATOM      9  C   UNL     1      33.263 -15.172 -22.578  0.00  0.00    -0.000 C 
ATOM     10  H   UNL     1      33.504 -17.431 -22.107  0.00  0.00    -0.080 HD
ENDBRANCH   1   2
BRANCH   1  11
ATOM     11  C   UNL     1      33.266 -19.462 -20.655  0.00  0.00    +0.106 C 
BRANCH  11  12
ATOM     12  N   UNL     1      32.880 -20.865 -20.489  0.00  0.00    -0.242 NA
BRANCH  12  15
ATOM     13  N   UNL     1      32.727 -22.238 -18.630  0.00  0.00    -0.370 N 
ATOM     14  N   UNL     1      34.819 -21.624 -19.293  0.00  0.00    -0.370 N 
ATOM     15  C   UNL     1      33.468 -21.524 -19.541  0.00  0.00    +0.188 C 
ATOM     16  H   UNL     1      31.744 -22.250 -18.696  0.00  0.00    +0.159 HD
ATOM     17  H   UNL     1      33.178 -22.738 -17.911  0.00  0.00    +0.159 HD
ATOM     18  H   UNL     1      35.462 -21.158 -19.874  0.00  0.00    +0.159 HD
ATOM     19  H   UNL     1      35.141 -22.161 -18.534  0.00  0.00    +0.159 HD
ENDBRANCH  12  15
ENDBRANCH  11  12
ENDBRANCH   1  11
TORSDOF 4
ENDMDL
MODEL 3
REMARK VINA RESULT:      -6.5      3.357      5.991
REMARK  Name = 3518
REMARK  4 active torsions:
REMARK  status: ('A' for Active; 'I' for Inactive)
REMARK    1  A    between atoms: C_1  and  N_2
REMARK    2  A    between atoms: C_1  and  C_11
REMARK    3  A    between atoms: C_11  and  N_12
REMARK    4  A    between atoms: N_12  and  C_15
REMARK                            x       y       z     vdW  Elec       q    Type
REMARK                         _______ _______ _______ _____ _____    ______ ____
ROOT
ATOM      1  C   UNL     1      33.368 -15.061 -22.621  0.00  0.00    -0.051 C 
ENDROOT
BRANCH   1   2
ATOM      2  N   UNL     1      34.134 -16.306 -22.562  0.00  0.00    +0.388 N 
ATOM      3  C   UNL     1      35.093 -16.399 -23.668  0.00  0.00    -0.077 C 
ATOM      4  C   UNL     1      34.749 -16.462 -21.240  0.00  0.00    -0.077 C 
ATOM      5  C   UNL     1      34.862 -17.669 -24.494  0.00  0.00    -0.023 C 
ATOM      6  C   UNL     1      35.557 -17.748 -21.029  0.00  0.00    -0.023 C 
ATOM      7  C   UNL     1      35.127 -19.006 -23.793  0.00  0.00    -0.002 C 
ATOM      8  C   UNL     1      34.785 -19.053 -21.233  0.00  0.00    -0.002 C 
ATOM      9  C   UNL     1      34.191 -19.309 -22.622  0.00  0.00    -0.000 C 
ATOM     10  H   UNL     1      33.499 -17.095 -22.686  0.00  0.00    -0.080 HD
ENDBRANCH   1   2
BRANCH   1  11
ATOM     11  C   UNL     1      33.916 -14.153 -23.714  0.00  0.00    +0.106 C 
BRANCH  11  12
ATOM     12  N   UNL     1      32.817 -13.755 -24.596  0.00  0.00    -0.242 NA
BRANCH  12  15
ATOM     13  N   UNL     1      33.326 -13.197 -26.786  0.00  0.00    -0.370 N 
ATOM     14  N   UNL     1      32.643 -15.336 -26.395  0.00  0.00    -0.370 N 
ATOM     15  C   UNL     1      32.912 -14.105 -25.840  0.00  0.00    +0.188 C 
ATOM     16  H   UNL     1      33.552 -12.276 -26.519  0.00  0.00    +0.159 HD
ATOM     17  H   UNL     1      33.398 -13.467 -27.730  0.00  0.00    +0.159 HD
ATOM     18  H   UNL     1      32.337 -16.077 -25.825  0.00  0.00    +0.159 HD
ATOM     19  H   UNL     1      32.756 -15.474 -27.363  0.00  0.00    +0.159 HD
ENDBRANCH  12  15
ENDBRANCH  11  12
ENDBRANCH   1  11
TORSDOF 4
ENDMDL
MODEL 4
REMARK VINA RESULT:      -6.5      7.629      9.514
REMARK  Name = 3518
REMARK  4 active torsions:
REMARK  status: ('A' for Active; 'I' for Inactive)
REMARK    1  A    between atoms: C_1  and  N_2
REMARK    2  A    between atoms: C_1  and  C_11
REMARK    3  A    between atoms: C_11  and  N_12
REMARK    4  A    between atoms: N_12  and  C_15
REMARK                            x       y       z     vdW  Elec       q    Type
REMARK                         _______ _______ _______ _____ _____    ______ ____
ROOT
ATOM      1  C   UNL     1      33.601 -23.454 -16.613  0.00  0.00    -0.051 C 
ENDROOT
BRANCH   1   2
ATOM      2  N   UNL     1      32.320 -23.628 -15.928  0.00  0.00    +0.388 N 
ATOM      3  C   UNL     1      32.438 -23.345 -14.493  0.00  0.00    -0.077 C 
ATOM      4  C   UNL     1      31.276 -22.844 -16.595  0.00  0.00    -0.077 C 
ATOM      5  C   UNL     1      31.992 -24.548 -13.655  0.00  0.00    -0.023 C 
ATOM      6  C   UNL     1      29.870 -22.964 -15.996  0.00  0.00    -0.023 C 
ATOM      7  C   UNL     1      30.510 -24.934 -13.735  0.00  0.00    -0.002 C 
ATOM      8  C   UNL     1      29.293 -24.379 -15.944  0.00  0.00    -0.002 C 
ATOM      9  C   UNL     1      30.050 -25.418 -15.111  0.00  0.00    -0.000 C 
ATOM     10  H   UNL     1      32.039 -24.607 -15.990  0.00  0.00    -0.080 HD
ENDBRANCH   1   2
BRANCH   1  11
ATOM     11  C   UNL     1      34.723 -23.264 -15.602  0.00  0.00    +0.106 C 
BRANCH  11  12
ATOM     12  N   UNL     1      35.740 -24.295 -15.819  0.00  0.00    -0.242 NA
BRANCH  12  15
ATOM     13  N   UNL     1      35.572 -25.032 -13.630  0.00  0.00    -0.370 N 
ATOM     14  N   UNL     1      35.987 -26.608 -15.223  0.00  0.00    -0.370 N 
ATOM     15  C   UNL     1      35.771 -25.272 -14.968  0.00  0.00    +0.188 C 
ATOM     16  H   UNL     1      35.405 -24.114 -13.313  0.00  0.00    +0.159 HD
ATOM     17  H   UNL     1      35.596 -25.777 -12.986  0.00  0.00    +0.159 HD
ATOM     18  H   UNL     1      36.143 -26.915 -16.145  0.00  0.00    +0.159 HD
ATOM     19  H   UNL     1      35.985 -27.256 -14.482  0.00  0.00    +0.159 HD
ENDBRANCH  12  15
ENDBRANCH  11  12
ENDBRANCH   1  11
TORSDOF 4
ENDMDL
MODEL 5
REMARK VINA RESULT:      -6.4      2.155      5.593
REMARK  Name = 3518
REMARK  4 active torsions:
REMARK  status: ('A' for Active; 'I' for Inactive)
REMARK    1  A    between atoms: C_1  and  N_2
REMARK    2  A    between atoms: C_1  and  C_11
REMARK    3  A    between atoms: C_11  and  N_12
REMARK    4  A    between atoms: N_12  and  C_15
REMARK                            x       y       z     vdW  Elec       q    Type
REMARK                         _______ _______ _______ _____ _____    ______ ____
ROOT
ATOM      1  C   UNL     1      34.867 -19.346 -23.187  0.00  0.00    -0.051 C 
ENDROOT
BRANCH   1   2
ATOM      2  N   UNL     1      34.796 -19.843 -21.813  0.00  0.00    +0.388 N 
ATOM      3  C   UNL     1      35.740 -19.137 -20.938  0.00  0.00    -0.077 C 
ATOM      4  C   UNL     1      33.412 -19.806 -21.330  0.00  0.00    -0.077 C 
ATOM      5  C   UNL     1      36.700 -20.119 -20.258  0.00  0.00    -0.023 C 
ATOM      6  C   UNL     1      33.189 -20.335 -19.907  0.00  0.00    -0.023 C 
ATOM      7  C   UNL     1      36.086 -21.102 -19.255  0.00  0.00    -0.002 C 
ATOM      8  C   UNL     1      33.627 -21.780 -19.664  0.00  0.00    -0.002 C 
ATOM      9  C   UNL     1      35.110 -22.109 -19.866  0.00  0.00    -0.000 C 
ATOM     10  H   UNL     1      35.088 -20.820 -21.795  0.00  0.00    -0.080 HD
ENDBRANCH   1   2
BRANCH   1  11
ATOM     11  C   UNL     1      35.172 -17.854 -23.197  0.00  0.00    +0.106 C 
BRANCH  11  12
ATOM     12  N   UNL     1      34.712 -17.283 -24.464  0.00  0.00    -0.242 NA
BRANCH  12  15
ATOM     13  N   UNL     1      34.680 -15.228 -23.395  0.00  0.00    -0.370 N 
ATOM     14  N   UNL     1      33.551 -15.386 -25.368  0.00  0.00    -0.370 N 
ATOM     15  C   UNL     1      34.323 -16.047 -24.439  0.00  0.00    +0.188 C 
ATOM     16  H   UNL     1      35.235 -15.580 -22.661  0.00  0.00    +0.159 HD
ATOM     17  H   UNL     1      34.383 -14.290 -23.380  0.00  0.00    +0.159 HD
ATOM     18  H   UNL     1      33.227 -15.860 -26.167  0.00  0.00    +0.159 HD
ATOM     19  H   UNL     1      33.323 -14.438 -25.232  0.00  0.00    +0.159 HD
ENDBRANCH  12  15
ENDBRANCH  11  12
ENDBRANCH   1  11
TORSDOF 4
ENDMDL
MODEL 6
REMARK VINA RESULT:      -6.4      7.515      9.304
REMARK  Name = 3518
REMARK  4 active torsions:
REMARK  status: ('A' for Active; 'I' for Inactive)
REMARK    1  A    between atoms: C_1  and  N_2
REMARK    2  A    between atoms: C_1  and  C_11
REMARK    3  A    between atoms: C_11  and  N_12
REMARK    4  A    between atoms: N_12  and  C_15
REMARK                            x       y       z     vdW  Elec       q    Type
REMARK                         _______ _______ _______ _____ _____    ______ ____
ROOT
ATOM      1  C   UNL     1      35.406 -22.893 -15.042  0.00  0.00    -0.051 C 
ENDROOT
BRANCH   1   2
ATOM      2  N   UNL     1      34.006 -23.316 -15.071  0.00  0.00    +0.388 N 
ATOM      3  C   UNL     1      33.618 -23.797 -16.402  0.00  0.00    -0.077 C 
ATOM      4  C   UNL     1      33.746 -24.283 -14.000  0.00  0.00    -0.077 C 
ATOM      5  C   UNL     1      32.424 -23.008 -16.947  0.00  0.00    -0.023 C 
ATOM      6  C   UNL     1      32.301 -24.785 -13.894  0.00  0.00    -0.023 C 
ATOM      7  C   UNL     1      31.093 -23.168 -16.202  0.00  0.00    -0.002 C 
ATOM      8  C   UNL     1      31.241 -23.704 -13.680  0.00  0.00    -0.002 C 
ATOM      9  C   UNL     1      31.096 -22.636 -14.768  0.00  0.00    -0.000 C 
ATOM     10  H   UNL     1      33.409 -22.508 -14.889  0.00  0.00    -0.080 HD
ENDBRANCH   1   2
BRANCH   1  11
ATOM     11  C   UNL     1      36.257 -23.923 -14.313  0.00  0.00    +0.106 C 
BRANCH  11  12
ATOM     12  N   UNL     1      36.913 -24.783 -15.299  0.00  0.00    -0.242 NA
BRANCH  12  15
ATOM     13  N   UNL     1      36.102 -26.953 -15.277  0.00  0.00    -0.370 N 
ATOM     14  N   UNL     1      38.143 -26.602 -14.325  0.00  0.00    -0.370 N 
ATOM     15  C   UNL     1      37.072 -26.028 -14.974  0.00  0.00    +0.188 C 
ATOM     16  H   UNL     1      35.282 -26.671 -15.744  0.00  0.00    +0.159 HD
ATOM     17  H   UNL     1      36.227 -27.898 -15.030  0.00  0.00    +0.159 HD
ATOM     18  H   UNL     1      38.908 -26.047 -14.051  0.00  0.00    +0.159 HD
ATOM     19  H   UNL     1      38.142 -27.568 -14.135  0.00  0.00    +0.159 HD
ENDBRANCH  12  15
ENDBRANCH  11  12
ENDBRANCH   1  11
TORSDOF 4
ENDMDL
MODEL 7
REMARK VINA RESULT:      -6.4      3.814      6.640
REMARK  Name = 3518
REMARK  4 active torsions:
REMARK  status: ('A' for Active; 'I' for Inactive)
REMARK    1  A    between atoms: C_1  and  N_2
REMARK    2  A    between atoms: C_1  and  C_11
REMARK    3  A    between atoms: C_11  and  N_12
REMARK    4  A    between atoms: N_12  and  C_15
REMARK                            x       y       z     vdW  Elec       q    Type
REMARK                         _______ _______ _______ _____ _____    ______ ____
ROOT
ATOM      1  C   UNL     1      33.161 -14.873 -22.931  0.00  0.00    -0.051 C 
ENDROOT
BRANCH   1   2
ATOM      2  N   UNL     1      33.978 -16.069 -22.725  0.00  0.00    +0.388 N 
ATOM      3  C   UNL     1      35.032 -16.179 -23.741  0.00  0.00    -0.077 C 
ATOM      4  C   UNL     1      34.486 -16.107 -21.350  0.00  0.00    -0.077 C 
ATOM      5  C   UNL     1      34.933 -17.509 -24.495  0.00  0.00    -0.023 C 
ATOM      6  C   UNL     1      35.334 -17.332 -20.988  0.00  0.00    -0.023 C 
ATOM      7  C   UNL     1      35.202 -18.783 -23.686  0.00  0.00    -0.002 C 
ATOM      8  C   UNL     1      34.646 -18.686 -21.165  0.00  0.00    -0.002 C 
ATOM      9  C   UNL     1      34.185 -19.062 -22.577  0.00  0.00    -0.000 C 
ATOM     10  H   UNL     1      33.395 -16.897 -22.847  0.00  0.00    -0.080 HD
ENDBRANCH   1   2
BRANCH   1  11
ATOM     11  C   UNL     1      33.757 -14.006 -24.032  0.00  0.00    +0.106 C 
BRANCH  11  12
ATOM     12  N   UNL     1      33.612 -12.598 -23.660  0.00  0.00    -0.242 NA
BRANCH  12  15
ATOM     13  N   UNL     1      33.753 -11.874 -25.856  0.00  0.00    -0.370 N 
ATOM     14  N   UNL     1      34.761 -10.580 -24.274  0.00  0.00    -0.370 N 
ATOM     15  C   UNL     1      34.030 -11.721 -24.519  0.00  0.00    +0.188 C 
ATOM     16  H   UNL     1      33.234 -12.652 -26.166  0.00  0.00    +0.159 HD
ATOM     17  H   UNL     1      34.071 -11.206 -26.505  0.00  0.00    +0.159 HD
ATOM     18  H   UNL     1      35.027 -10.353 -23.354  0.00  0.00    +0.159 HD
ATOM     19  H   UNL     1      35.018  -9.992 -25.020  0.00  0.00    +0.159 HD
ENDBRANCH  12  15
ENDBRANCH  11  12
ENDBRANCH   1  11
TORSDOF 4
ENDMDL
MODEL 8
REMARK VINA RESULT:      -6.3      1.796      3.565
REMARK  Name = 3518
REMARK  4 active torsions:
REMARK  status: ('A' for Active; 'I' for Inactive)
REMARK    1  A    between atoms: C_1  and  N_2
REMARK    2  A    between atoms: C_1  and  C_11
REMARK    3  A    between atoms: C_11  and  N_12
REMARK    4  A    between atoms: N_12  and  C_15
REMARK                            x       y       z     vdW  Elec       q    Type
REMARK                         _______ _______ _______ _____ _____    ______ ____
ROOT
ATOM      1  C   UNL     1      34.500 -17.432 -24.088  0.00  0.00    -0.051 C 
ENDROOT
BRANCH   1   2
ATOM      2  N   UNL     1      34.217 -16.229 -23.305  0.00  0.00    +0.388 N 
ATOM      3  C   UNL     1      35.207 -16.037 -22.240  0.00  0.00    -0.077 C 
ATOM      4  C   UNL     1      34.077 -15.068 -24.190  0.00  0.00    -0.077 C 
ATOM      5  C   UNL     1      34.533 -15.964 -20.866  0.00  0.00    -0.023 C 
ATOM      6  C   UNL     1      33.742 -13.741 -23.499  0.00  0.00    -0.023 C 
ATOM      7  C   UNL     1      33.620 -14.759 -20.609  0.00  0.00    -0.002 C 
ATOM      8  C   UNL     1      32.455 -13.733 -22.673  0.00  0.00    -0.002 C 
ATOM      9  C   UNL     1      32.372 -14.704 -21.490  0.00  0.00    -0.000 C 
ATOM     10  H   UNL     1      33.323 -16.345 -22.827  0.00  0.00    -0.080 HD
ENDBRANCH   1   2
BRANCH   1  11
ATOM     11  C   UNL     1      35.475 -18.333 -23.342  0.00  0.00    +0.106 C 
BRANCH  11  12
ATOM     12  N   UNL     1      34.746 -19.487 -22.812  0.00  0.00    -0.242 NA
BRANCH  12  15
ATOM     13  N   UNL     1      33.479 -19.887 -20.915  0.00  0.00    -0.370 N 
ATOM     14  N   UNL     1      35.692 -19.438 -20.605  0.00  0.00    -0.370 N 
ATOM     15  C   UNL     1      34.676 -19.591 -21.522  0.00  0.00    +0.188 C 
ATOM     16  H   UNL     1      32.670 -20.022 -21.460  0.00  0.00    +0.159 HD
ATOM     17  H   UNL     1      33.430 -19.966 -19.934  0.00  0.00    +0.159 HD
ATOM     18  H   UNL     1      36.603 -19.223 -20.910  0.00  0.00    +0.159 HD
ATOM     19  H   UNL     1      35.507 -19.544 -19.644  0.00  0.00    +0.159 HD
ENDBRANCH  12  15
ENDBRANCH  11  12
ENDBRANCH   1  11
TORSDOF 4
ENDMDL
MODEL 9
REMARK VINA RESULT:      -6.3      3.433      5.646
REMARK  Name = 3518
REMARK  4 active torsions:
REMARK  status: ('A' for Active; 'I' for Inactive)
REMARK    1  A    between atoms: C_1  and  N_2
REMARK    2  A    between atoms: C_1  and  C_11
REMARK    3  A    between atoms: C_11  and  N_12
REMARK    4  A    between atoms: N_12  and  C_15
REMARK                            x       y       z     vdW  Elec       q    Type
REMARK                         _______ _______ _______ _____ _____    ______ ____
ROOT
ATOM      1  C   UNL     1      33.365 -15.881 -21.141  0.00  0.00    -0.051 C 
ENDROOT
BRANCH   1   2
ATOM      2  N   UNL     1      34.143 -16.575 -22.168  0.00  0.00    +0.388 N 
ATOM      3  C   UNL     1      34.713 -15.632 -23.137  0.00  0.00    -0.077 C 
ATOM      4  C   UNL     1      35.143 -17.448 -21.544  0.00  0.00    -0.077 C 
ATOM      5  C   UNL     1      34.268 -15.972 -24.564  0.00  0.00    -0.023 C 
ATOM      6  C   UNL     1      36.008 -18.265 -22.511  0.00  0.00    -0.023 C 
ATOM      7  C   UNL     1      34.773 -17.297 -25.146  0.00  0.00    -0.002 C 
ATOM      8  C   UNL     1      35.245 -19.193 -23.456  0.00  0.00    -0.002 C 
ATOM      9  C   UNL     1      34.255 -18.547 -24.431  0.00  0.00    -0.000 C 
ATOM     10  H   UNL     1      33.521 -17.177 -22.708  0.00  0.00    -0.080 HD
ENDBRANCH   1   2
BRANCH   1  11
ATOM     11  C   UNL     1      33.653 -14.386 -21.177  0.00  0.00    +0.106 C 
BRANCH  11  12
ATOM     12  N   UNL     1      32.389 -13.655 -21.074  0.00  0.00    -0.242 NA
BRANCH  12  15
ATOM     13  N   UNL     1      31.086 -11.915 -21.875  0.00  0.00    -0.370 N 
ATOM     14  N   UNL     1      32.809 -12.610 -23.195  0.00  0.00    -0.370 N 
ATOM     15  C   UNL     1      32.136 -12.793 -22.007  0.00  0.00    +0.188 C 
ATOM     16  H   UNL     1      30.523 -11.940 -21.067  0.00  0.00    +0.159 HD
ATOM     17  H   UNL     1      30.898 -11.260 -22.586  0.00  0.00    +0.159 HD
ATOM     18  H   UNL     1      33.584 -13.176 -23.414  0.00  0.00    +0.159 HD
ATOM     19  H   UNL     1      32.515 -11.914 -23.825  0.00  0.00    +0.159 HD
ENDBRANCH  12  15
ENDBRANCH  11  12
ENDBRANCH   1  11
TORSDOF 4
ENDMDL
