MODEL 1
REMARK VINA RESULT:     -11.0      0.000      0.000
REMARK  Name = 445460
REMARK  6 active torsions:
REMARK  status: ('A' for Active; 'I' for Inactive)
REMARK    1  A    between atoms: C_1  and  C_14
REMARK    2  A    between atoms: C_1  and  C_18
REMARK    3  A    between atoms: C_1  and  O_31
REMARK    4  A    between atoms: N_17  and  C_21
REMARK    5  A    between atoms: C_26  and  C_28
REMARK    6  A    between atoms: C_28  and  O_29
REMARK                            x       y       z     vdW  Elec       q    Type
REMARK                         _______ _______ _______ _____ _____    ______ ____
ROOT
ATOM      1  C   UNL     1      34.752 -15.656 -22.918  0.00  0.00    +0.210 C 
ENDROOT
BRANCH   1  14
ATOM      2  C   UNL     1      33.548 -10.897 -24.051  0.00  0.00    +0.019 C 
ATOM      3  C   UNL     1      31.581 -10.895 -21.707  0.00  0.00    +0.019 C 
ATOM      4  C   UNL     1      32.944  -9.619 -23.429  0.00  0.00    +0.004 C 
ATOM      5  C   UNL     1      31.558  -9.864 -22.858  0.00  0.00    +0.004 C 
ATOM      6  C   UNL     1      33.354 -12.116 -23.140  0.00  0.00    -0.027 C 
ATOM      7  C   UNL     1      32.437 -12.117 -22.059  0.00  0.00    -0.027 C 
ATOM      8  C   UNL     1      32.878 -11.186 -25.413  0.00  0.00    +0.004 C 
ATOM      9  C   UNL     1      35.045 -10.597 -24.301  0.00  0.00    +0.004 C 
ATOM     10  C   UNL     1      32.151 -10.242 -20.428  0.00  0.00    +0.004 C 
ATOM     11  C   UNL     1      30.107 -11.281 -21.438  0.00  0.00    +0.004 C 
ATOM     12  C   UNL     1      34.086 -13.296 -23.403  0.00  0.00    -0.006 C 
ATOM     13  C   UNL     1      32.342 -13.277 -21.258  0.00  0.00    -0.005 C 
ATOM     14  C   UNL     1      33.957 -14.433 -22.609  0.00  0.00    +0.013 C 
ATOM     15  C   UNL     1      33.089 -14.421 -21.529  0.00  0.00    -0.002 C 
ENDBRANCH   1  14
BRANCH   1  18
ATOM     16  O   UNL     1      35.126 -16.205 -20.596  0.00  0.00    -0.272 OA
ATOM     17  N   UNL     1      34.555 -17.919 -22.098  0.00  0.00    -0.280 N 
ATOM     18  C   UNL     1      34.839 -16.611 -21.720  0.00  0.00    +0.257 C 
ATOM     19  H   UNL     1      34.343 -18.060 -23.048  0.00  0.00    +0.155 HD
BRANCH  17  21
ATOM     20  F   UNL     1      36.910 -19.115 -21.241  0.00  0.00    -0.203 F 
ATOM     21  C   UNL     1      34.535 -19.070 -21.275  0.00  0.00    +0.078 C 
ATOM     22  C   UNL     1      35.732 -19.638 -20.871  0.00  0.00    +0.154 C 
ATOM     23  C   UNL     1      33.317 -19.607 -20.895  0.00  0.00    +0.017 C 
ATOM     24  C   UNL     1      35.710 -20.773 -20.061  0.00  0.00    +0.037 C 
ATOM     25  C   UNL     1      33.294 -20.744 -20.085  0.00  0.00    +0.008 C 
ATOM     26  C   UNL     1      34.491 -21.326 -19.669  0.00  0.00    +0.078 C 
BRANCH  26  28
ATOM     27  O   UNL     1      33.720 -23.482 -18.973  0.00  0.00    -0.245 OA
ATOM     28  C   UNL     1      34.468 -22.510 -18.823  0.00  0.00    +0.338 C 
BRANCH  28  29
ATOM     29  O   UNL     1      35.381 -22.448 -17.816  0.00  0.00    -0.477 OA
ATOM     30  H   UNL     1      35.927 -21.692 -17.724  0.00  0.00    +0.295 HD
ENDBRANCH  28  29
ENDBRANCH  26  28
ENDBRANCH  17  21
ENDBRANCH   1  18
BRANCH   1  31
ATOM     31  O   UNL     1      34.156 -16.348 -24.014  0.00  0.00    -0.372 OA
ATOM     32  H   UNL     1      33.286 -15.964 -24.204  0.00  0.00    +0.211 HD
ENDBRANCH   1  31
TORSDOF 6
ENDMDL
MODEL 2
REMARK VINA RESULT:     -10.7      4.601      9.080
REMARK  Name = 445460
REMARK  6 active torsions:
REMARK  status: ('A' for Active; 'I' for Inactive)
REMARK    1  A    between atoms: C_1  and  C_14
REMARK    2  A    between atoms: C_1  and  C_18
REMARK    3  A    between atoms: C_1  and  O_31
REMARK    4  A    between atoms: N_17  and  C_21
REMARK    5  A    between atoms: C_26  and  C_28
REMARK    6  A    between atoms: C_28  and  O_29
REMARK                            x       y       z     vdW  Elec       q    Type
REMARK                         _______ _______ _______ _____ _____    ______ ____
ROOT
ATOM      1  C   UNL     1      33.067 -13.475 -25.552  0.00  0.00    +0.210 C 
ENDROOT
BRANCH   1  14
ATOM      2  C   UNL     1      33.974 -15.821 -21.186  0.00  0.00    +0.019 C 
ATOM      3  C   UNL     1      35.027 -18.224 -22.761  0.00  0.00    +0.019 C 
ATOM      4  C   UNL     1      34.831 -16.949 -20.572  0.00  0.00    +0.004 C 
ATOM      5  C   UNL     1      34.609 -18.279 -21.274  0.00  0.00    +0.004 C 
ATOM      6  C   UNL     1      34.028 -15.839 -22.720  0.00  0.00    -0.027 C 
ATOM      7  C   UNL     1      34.509 -16.956 -23.448  0.00  0.00    -0.027 C 
ATOM      8  C   UNL     1      32.503 -15.977 -20.742  0.00  0.00    +0.004 C 
ATOM      9  C   UNL     1      34.518 -14.494 -20.606  0.00  0.00    +0.004 C 
ATOM     10  C   UNL     1      36.568 -18.255 -22.875  0.00  0.00    +0.004 C 
ATOM     11  C   UNL     1      34.467 -19.508 -23.418  0.00  0.00    +0.004 C 
ATOM     12  C   UNL     1      33.549 -14.721 -23.439  0.00  0.00    -0.006 C 
ATOM     13  C   UNL     1      34.544 -16.875 -24.859  0.00  0.00    -0.005 C 
ATOM     14  C   UNL     1      33.576 -14.676 -24.831  0.00  0.00    +0.013 C 
ATOM     15  C   UNL     1      34.082 -15.752 -25.542  0.00  0.00    -0.002 C 
ENDBRANCH   1  14
BRANCH   1  18
ATOM     16  O   UNL     1      34.530 -11.606 -25.106  0.00  0.00    -0.272 OA
ATOM     17  N   UNL     1      32.484 -11.755 -23.960  0.00  0.00    -0.280 N 
ATOM     18  C   UNL     1      33.466 -12.167 -24.856  0.00  0.00    +0.257 C 
ATOM     19  H   UNL     1      31.690 -12.332 -23.890  0.00  0.00    +0.155 HD
BRANCH  17  21
ATOM     20  F   UNL     1      31.454 -11.816 -21.382  0.00  0.00    -0.203 F 
ATOM     21  C   UNL     1      32.494 -10.603 -23.139  0.00  0.00    +0.078 C 
ATOM     22  C   UNL     1      31.969 -10.674 -21.859  0.00  0.00    +0.154 C 
ATOM     23  C   UNL     1      33.028  -9.425 -23.635  0.00  0.00    +0.017 C 
ATOM     24  C   UNL     1      31.979  -9.537 -21.053  0.00  0.00    +0.037 C 
ATOM     25  C   UNL     1      33.038  -8.286 -22.828  0.00  0.00    +0.008 C 
ATOM     26  C   UNL     1      32.513  -8.343 -21.537  0.00  0.00    +0.078 C 
BRANCH  26  28
ATOM     27  O   UNL     1      31.999  -6.074 -20.976  0.00  0.00    -0.245 OA
ATOM     28  C   UNL     1      32.524  -7.156 -20.695  0.00  0.00    +0.338 C 
BRANCH  28  29
ATOM     29  O   UNL     1      33.190  -7.356 -19.525  0.00  0.00    -0.477 OA
ATOM     30  H   UNL     1      33.152  -6.709 -18.848  0.00  0.00    +0.295 HD
ENDBRANCH  28  29
ENDBRANCH  26  28
ENDBRANCH  17  21
ENDBRANCH   1  18
BRANCH   1  31
ATOM     31  O   UNL     1      33.583 -13.463 -26.882  0.00  0.00    -0.372 OA
ATOM     32  H   UNL     1      33.544 -14.358 -27.252  0.00  0.00    +0.211 HD
ENDBRANCH   1  31
TORSDOF 6
ENDMDL
MODEL 3
REMARK VINA RESULT:     -10.6      3.457     10.713
REMARK  Name = 445460
REMARK  6 active torsions:
REMARK  status: ('A' for Active; 'I' for Inactive)
REMARK    1  A    between atoms: C_1  and  C_14
REMARK    2  A    between atoms: C_1  and  C_18
REMARK    3  A    between atoms: C_1  and  O_31
REMARK    4  A    between atoms: N_17  and  C_21
REMARK    5  A    between atoms: C_26  and  C_28
REMARK    6  A    between atoms: C_28  and  O_29
REMARK                            x       y       z     vdW  Elec       q    Type
REMARK                         _______ _______ _______ _____ _____    ______ ____
ROOT
ATOM      1  C   UNL     1      35.017 -21.934 -19.521  0.00  0.00    +0.210 C 
ENDROOT
BRANCH   1  14
ATOM      2  C   UNL     1      35.017 -23.993 -14.923  0.00  0.00    +0.019 C 
ATOM      3  C   UNL     1      31.972 -23.699 -14.852  0.00  0.00    +0.019 C 
ATOM      4  C   UNL     1      34.099 -24.736 -13.927  0.00  0.00    +0.004 C 
ATOM      5  C   UNL     1      32.848 -23.937 -13.601  0.00  0.00    +0.004 C 
ATOM      6  C   UNL     1      34.221 -23.399 -16.092  0.00  0.00    -0.027 C 
ATOM      7  C   UNL     1      32.811 -23.256 -16.055  0.00  0.00    -0.027 C 
ATOM      8  C   UNL     1      35.760 -22.848 -14.198  0.00  0.00    +0.004 C 
ATOM      9  C   UNL     1      36.066 -25.023 -15.403  0.00  0.00    +0.004 C 
ATOM     10  C   UNL     1      31.222 -24.998 -15.222  0.00  0.00    +0.004 C 
ATOM     11  C   UNL     1      30.924 -22.632 -14.454  0.00  0.00    +0.004 C 
ATOM     12  C   UNL     1      34.914 -22.943 -17.235  0.00  0.00    -0.006 C 
ATOM     13  C   UNL     1      32.159 -22.720 -17.189  0.00  0.00    -0.005 C 
ATOM     14  C   UNL     1      34.248 -22.399 -18.331  0.00  0.00    +0.013 C 
ATOM     15  C   UNL     1      32.866 -22.295 -18.311  0.00  0.00    -0.002 C 
ENDBRANCH   1  14
BRANCH   1  18
ATOM     16  O   UNL     1      33.132 -20.579 -20.187  0.00  0.00    -0.272 OA
ATOM     17  N   UNL     1      35.296 -19.922 -20.828  0.00  0.00    -0.280 N 
ATOM     18  C   UNL     1      34.350 -20.738 -20.213  0.00  0.00    +0.257 C 
ATOM     19  H   UNL     1      36.234 -20.206 -20.743  0.00  0.00    +0.155 HD
BRANCH  17  21
ATOM     20  F   UNL     1      34.988 -19.968 -23.587  0.00  0.00    -0.203 F 
ATOM     21  C   UNL     1      35.064 -18.733 -21.559  0.00  0.00    +0.078 C 
ATOM     22  C   UNL     1      34.918 -18.799 -22.934  0.00  0.00    +0.154 C 
ATOM     23  C   UNL     1      34.992 -17.527 -20.881  0.00  0.00    +0.017 C 
ATOM     24  C   UNL     1      34.692 -17.625 -23.653  0.00  0.00    +0.037 C 
ATOM     25  C   UNL     1      34.766 -16.353 -21.600  0.00  0.00    +0.008 C 
ATOM     26  C   UNL     1      34.616 -16.402 -22.986  0.00  0.00    +0.078 C 
BRANCH  26  28
ATOM     27  O   UNL     1      33.884 -15.116 -24.867  0.00  0.00    -0.245 OA
ATOM     28  C   UNL     1      34.379 -15.178 -23.736  0.00  0.00    +0.338 C 
BRANCH  28  29
ATOM     29  O   UNL     1      34.765 -14.066 -23.052  0.00  0.00    -0.477 OA
ATOM     30  H   UNL     1      35.670 -13.826 -23.021  0.00  0.00    +0.295 HD
ENDBRANCH  28  29
ENDBRANCH  26  28
ENDBRANCH  17  21
ENDBRANCH   1  18
BRANCH   1  31
ATOM     31  O   UNL     1      36.334 -21.558 -19.120  0.00  0.00    -0.372 OA
ATOM     32  H   UNL     1      36.600 -20.757 -19.598  0.00  0.00    +0.211 HD
ENDBRANCH   1  31
TORSDOF 6
ENDMDL
MODEL 4
REMARK VINA RESULT:     -10.3      1.973      3.603
REMARK  Name = 445460
REMARK  6 active torsions:
REMARK  status: ('A' for Active; 'I' for Inactive)
REMARK    1  A    between atoms: C_1  and  C_14
REMARK    2  A    between atoms: C_1  and  C_18
REMARK    3  A    between atoms: C_1  and  O_31
REMARK    4  A    between atoms: N_17  and  C_21
REMARK    5  A    between atoms: C_26  and  C_28
REMARK    6  A    between atoms: C_28  and  O_29
REMARK                            x       y       z     vdW  Elec       q    Type
REMARK                         _______ _______ _______ _____ _____    ______ ____
ROOT
ATOM      1  C   UNL     1      33.505 -13.858 -24.900  0.00  0.00    +0.210 C 
ENDROOT
BRANCH   1  14
ATOM      2  C   UNL     1      31.777 -10.462 -21.602  0.00  0.00    +0.019 C 
ATOM      3  C   UNL     1      33.375  -8.305 -23.071  0.00  0.00    +0.019 C 
ATOM      4  C   UNL     1      31.538  -8.945 -21.438  0.00  0.00    +0.004 C 
ATOM      5  C   UNL     1      32.812  -8.143 -21.642  0.00  0.00    +0.004 C 
ATOM      6  C   UNL     1      32.628 -10.770 -22.842  0.00  0.00    -0.027 C 
ATOM      7  C   UNL     1      33.374  -9.771 -23.517  0.00  0.00    -0.027 C 
ATOM      8  C   UNL     1      32.501 -11.018 -20.356  0.00  0.00    +0.004 C 
ATOM      9  C   UNL     1      30.379 -11.120 -21.685  0.00  0.00    +0.004 C 
ATOM     10  C   UNL     1      32.525  -7.484 -24.067  0.00  0.00    +0.004 C 
ATOM     11  C   UNL     1      34.803  -7.710 -23.047  0.00  0.00    +0.004 C 
ATOM     12  C   UNL     1      32.704 -12.100 -23.311  0.00  0.00    -0.006 C 
ATOM     13  C   UNL     1      34.111 -10.142 -24.664  0.00  0.00    -0.005 C 
ATOM     14  C   UNL     1      33.455 -12.442 -24.433  0.00  0.00    +0.013 C 
ATOM     15  C   UNL     1      34.154 -11.459 -25.116  0.00  0.00    -0.002 C 
ENDBRANCH   1  14
BRANCH   1  18
ATOM     16  O   UNL     1      32.687 -14.739 -22.806  0.00  0.00    -0.272 OA
ATOM     17  N   UNL     1      34.451 -15.841 -23.899  0.00  0.00    -0.280 N 
ATOM     18  C   UNL     1      33.484 -14.855 -23.734  0.00  0.00    +0.257 C 
ATOM     19  H   UNL     1      35.003 -15.776 -24.710  0.00  0.00    +0.155 HD
BRANCH  17  21
ATOM     20  F   UNL     1      34.371 -18.462 -24.811  0.00  0.00    -0.203 F 
ATOM     21  C   UNL     1      34.732 -16.927 -23.035  0.00  0.00    +0.078 C 
ATOM     22  C   UNL     1      34.679 -18.219 -23.529  0.00  0.00    +0.154 C 
ATOM     23  C   UNL     1      35.051 -16.672 -21.712  0.00  0.00    +0.017 C 
ATOM     24  C   UNL     1      34.955 -19.288 -22.675  0.00  0.00    +0.037 C 
ATOM     25  C   UNL     1      35.326 -17.740 -20.857  0.00  0.00    +0.008 C 
ATOM     26  C   UNL     1      35.277 -19.048 -21.340  0.00  0.00    +0.078 C 
BRANCH  26  28
ATOM     27  O   UNL     1      34.820 -21.126 -20.246  0.00  0.00    -0.245 OA
ATOM     28  C   UNL     1      35.566 -20.162 -20.450  0.00  0.00    +0.338 C 
BRANCH  28  29
ATOM     29  O   UNL     1      36.777 -20.042 -19.842  0.00  0.00    -0.477 OA
ATOM     30  H   UNL     1      36.893 -20.348 -18.964  0.00  0.00    +0.295 HD
ENDBRANCH  28  29
ENDBRANCH  26  28
ENDBRANCH  17  21
ENDBRANCH   1  18
BRANCH   1  31
ATOM     31  O   UNL     1      32.388 -14.119 -25.748  0.00  0.00    -0.372 OA
ATOM     32  H   UNL     1      32.698 -14.261 -26.656  0.00  0.00    +0.211 HD
ENDBRANCH   1  31
TORSDOF 6
ENDMDL
MODEL 5
REMARK VINA RESULT:      -9.7      5.750      9.009
REMARK  Name = 445460
REMARK  6 active torsions:
REMARK  status: ('A' for Active; 'I' for Inactive)
REMARK    1  A    between atoms: C_1  and  C_14
REMARK    2  A    between atoms: C_1  and  C_18
REMARK    3  A    between atoms: C_1  and  O_31
REMARK    4  A    between atoms: N_17  and  C_21
REMARK    5  A    between atoms: C_26  and  C_28
REMARK    6  A    between atoms: C_28  and  O_29
REMARK                            x       y       z     vdW  Elec       q    Type
REMARK                         _______ _______ _______ _____ _____    ______ ____
ROOT
ATOM      1  C   UNL     1      31.508  -6.639 -22.048  0.00  0.00    +0.210 C 
ENDROOT
BRANCH   1  14
ATOM      2  C   UNL     1      31.649  -2.820 -25.331  0.00  0.00    +0.019 C 
ATOM      3  C   UNL     1      33.640  -4.417 -27.019  0.00  0.00    +0.019 C 
ATOM      4  C   UNL     1      31.988  -2.499 -26.803  0.00  0.00    +0.004 C 
ATOM      5  C   UNL     1      33.412  -2.895 -27.158  0.00  0.00    +0.004 C 
ATOM      6  C   UNL     1      32.122  -4.224 -24.934  0.00  0.00    -0.027 C 
ATOM      7  C   UNL     1      33.051  -4.960 -25.712  0.00  0.00    -0.027 C 
ATOM      8  C   UNL     1      32.324  -1.789 -24.399  0.00  0.00    +0.004 C 
ATOM      9  C   UNL     1      30.115  -2.668 -25.192  0.00  0.00    +0.004 C 
ATOM     10  C   UNL     1      32.984  -5.158 -28.204  0.00  0.00    +0.004 C 
ATOM     11  C   UNL     1      35.170  -4.637 -27.097  0.00  0.00    +0.004 C 
ATOM     12  C   UNL     1      31.648  -4.796 -23.732  0.00  0.00    -0.006 C 
ATOM     13  C   UNL     1      33.412  -6.257 -25.281  0.00  0.00    -0.005 C 
ATOM     14  C   UNL     1      32.037  -6.069 -23.320  0.00  0.00    +0.013 C 
ATOM     15  C   UNL     1      32.915  -6.804 -24.101  0.00  0.00    -0.002 C 
ENDBRANCH   1  14
BRANCH   1  18
ATOM     16  O   UNL     1      33.076  -8.088 -20.920  0.00  0.00    -0.272 OA
ATOM     17  N   UNL     1      31.518  -9.027 -22.407  0.00  0.00    -0.280 N 
ATOM     18  C   UNL     1      32.141  -7.996 -21.712  0.00  0.00    +0.257 C 
ATOM     19  H   UNL     1      30.779  -8.765 -23.002  0.00  0.00    +0.155 HD
BRANCH  17  21
ATOM     20  F   UNL     1      33.213 -10.194 -24.270  0.00  0.00    -0.203 F 
ATOM     21  C   UNL     1      31.822 -10.408 -22.357  0.00  0.00    +0.078 C 
ATOM     22  C   UNL     1      32.670 -10.952 -23.307  0.00  0.00    +0.154 C 
ATOM     23  C   UNL     1      31.260 -11.188 -21.360  0.00  0.00    +0.017 C 
ATOM     24  C   UNL     1      32.967 -12.314 -23.256  0.00  0.00    +0.037 C 
ATOM     25  C   UNL     1      31.556 -12.550 -21.309  0.00  0.00    +0.008 C 
ATOM     26  C   UNL     1      32.410 -13.113 -22.259  0.00  0.00    +0.078 C 
BRANCH  26  28
ATOM     27  O   UNL     1      32.296 -15.327 -21.359  0.00  0.00    -0.245 OA
ATOM     28  C   UNL     1      32.720 -14.533 -22.206  0.00  0.00    +0.338 C 
BRANCH  28  29
ATOM     29  O   UNL     1      33.551 -14.922 -23.211  0.00  0.00    -0.477 OA
ATOM     30  H   UNL     1      34.462 -15.063 -23.039  0.00  0.00    +0.295 HD
ENDBRANCH  28  29
ENDBRANCH  26  28
ENDBRANCH  17  21
ENDBRANCH   1  18
BRANCH   1  31
ATOM     31  O   UNL     1      31.768  -5.733 -20.976  0.00  0.00    -0.372 OA
ATOM     32  H   UNL     1      32.618  -5.292 -21.124  0.00  0.00    +0.211 HD
ENDBRANCH   1  31
TORSDOF 6
ENDMDL
MODEL 6
REMARK VINA RESULT:      -9.7      4.900     10.932
REMARK  Name = 445460
REMARK  6 active torsions:
REMARK  status: ('A' for Active; 'I' for Inactive)
REMARK    1  A    between atoms: C_1  and  C_14
REMARK    2  A    between atoms: C_1  and  C_18
REMARK    3  A    between atoms: C_1  and  O_31
REMARK    4  A    between atoms: N_17  and  C_21
REMARK    5  A    between atoms: C_26  and  C_28
REMARK    6  A    between atoms: C_28  and  O_29
REMARK                            x       y       z     vdW  Elec       q    Type
REMARK                         _______ _______ _______ _____ _____    ______ ____
ROOT
ATOM      1  C   UNL     1      35.781 -22.304 -18.029  0.00  0.00    +0.210 C 
ENDROOT
BRANCH   1  14
ATOM      2  C   UNL     1      33.541 -24.360 -14.012  0.00  0.00    +0.019 C 
ATOM      3  C   UNL     1      30.825 -23.761 -15.289  0.00  0.00    +0.019 C 
ATOM      4  C   UNL     1      32.212 -25.008 -13.565  0.00  0.00    +0.004 C 
ATOM      5  C   UNL     1      31.025 -24.087 -13.792  0.00  0.00    +0.004 C 
ATOM      6  C   UNL     1      33.408 -23.687 -15.384  0.00  0.00    -0.027 C 
ATOM      7  C   UNL     1      32.150 -23.403 -15.971  0.00  0.00    -0.027 C 
ATOM      8  C   UNL     1      33.980 -23.297 -12.980  0.00  0.00    +0.004 C 
ATOM      9  C   UNL     1      34.596 -25.491 -14.023  0.00  0.00    +0.004 C 
ATOM     10  C   UNL     1      30.207 -24.977 -16.014  0.00  0.00    +0.004 C 
ATOM     11  C   UNL     1      29.811 -22.594 -15.349  0.00  0.00    +0.004 C 
ATOM     12  C   UNL     1      34.577 -23.301 -16.077  0.00  0.00    -0.006 C 
ATOM     13  C   UNL     1      32.125 -22.801 -17.250  0.00  0.00    -0.005 C 
ATOM     14  C   UNL     1      34.523 -22.691 -17.328  0.00  0.00    +0.013 C 
ATOM     15  C   UNL     1      33.294 -22.448 -17.919  0.00  0.00    -0.002 C 
ENDBRANCH   1  14
BRANCH   1  18
ATOM     16  O   UNL     1      35.264 -22.663 -20.360  0.00  0.00    -0.272 OA
ATOM     17  N   UNL     1      35.637 -20.472 -19.596  0.00  0.00    -0.280 N 
ATOM     18  C   UNL     1      35.527 -21.854 -19.473  0.00  0.00    +0.257 C 
ATOM     19  H   UNL     1      35.854 -19.979 -18.773  0.00  0.00    +0.155 HD
BRANCH  17  21
ATOM     20  F   UNL     1      33.153 -20.212 -20.810  0.00  0.00    -0.203 F 
ATOM     21  C   UNL     1      35.471 -19.694 -20.766  0.00  0.00    +0.078 C 
ATOM     22  C   UNL     1      34.216 -19.591 -21.342  0.00  0.00    +0.154 C 
ATOM     23  C   UNL     1      36.571 -19.054 -21.312  0.00  0.00    +0.017 C 
ATOM     24  C   UNL     1      34.056 -18.825 -22.497  0.00  0.00    +0.037 C 
ATOM     25  C   UNL     1      36.412 -18.288 -22.468  0.00  0.00    +0.008 C 
ATOM     26  C   UNL     1      35.154 -18.174 -23.059  0.00  0.00    +0.078 C 
BRANCH  26  28
ATOM     27  O   UNL     1      34.484 -17.770 -25.321  0.00  0.00    -0.245 OA
ATOM     28  C   UNL     1      34.986 -17.374 -24.263  0.00  0.00    +0.338 C 
BRANCH  28  29
ATOM     29  O   UNL     1      35.448 -16.103 -24.111  0.00  0.00    -0.477 OA
ATOM     30  H   UNL     1      35.839 -15.840 -23.301  0.00  0.00    +0.295 HD
ENDBRANCH  28  29
ENDBRANCH  26  28
ENDBRANCH  17  21
ENDBRANCH   1  18
BRANCH   1  31
ATOM     31  O   UNL     1      36.413 -21.238 -17.320  0.00  0.00    -0.372 OA
ATOM     32  H   UNL     1      36.152 -20.390 -17.712  0.00  0.00    +0.211 HD
ENDBRANCH   1  31
TORSDOF 6
ENDMDL
MODEL 7
REMARK VINA RESULT:      -9.7      4.499      8.954
REMARK  Name = 445460
REMARK  6 active torsions:
REMARK  status: ('A' for Active; 'I' for Inactive)
REMARK    1  A    between atoms: C_1  and  C_14
REMARK    2  A    between atoms: C_1  and  C_18
REMARK    3  A    between atoms: C_1  and  O_31
REMARK    4  A    between atoms: N_17  and  C_21
REMARK    5  A    between atoms: C_26  and  C_28
REMARK    6  A    between atoms: C_28  and  O_29
REMARK                            x       y       z     vdW  Elec       q    Type
REMARK                         _______ _______ _______ _____ _____    ______ ____
ROOT
ATOM      1  C   UNL     1      32.894 -14.748 -26.276  0.00  0.00    +0.210 C 
ENDROOT
BRANCH   1  14
ATOM      2  C   UNL     1      34.007 -15.604 -21.437  0.00  0.00    +0.019 C 
ATOM      3  C   UNL     1      35.280 -18.263 -22.258  0.00  0.00    +0.019 C 
ATOM      4  C   UNL     1      34.964 -16.419 -20.539  0.00  0.00    +0.004 C 
ATOM      5  C   UNL     1      34.867 -17.911 -20.811  0.00  0.00    +0.004 C 
ATOM      6  C   UNL     1      34.065 -16.071 -22.897  0.00  0.00    -0.027 C 
ATOM      7  C   UNL     1      34.648 -17.307 -23.275  0.00  0.00    -0.027 C 
ATOM      8  C   UNL     1      32.555 -15.751 -20.928  0.00  0.00    +0.004 C 
ATOM      9  C   UNL     1      34.425 -14.122 -21.289  0.00  0.00    +0.004 C 
ATOM     10  C   UNL     1      36.817 -18.189 -22.397  0.00  0.00    +0.004 C 
ATOM     11  C   UNL     1      34.842 -19.728 -22.492  0.00  0.00    +0.004 C 
ATOM     12  C   UNL     1      33.486 -15.264 -23.902  0.00  0.00    -0.006 C 
ATOM     13  C   UNL     1      34.677 -17.645 -24.647  0.00  0.00    -0.005 C 
ATOM     14  C   UNL     1      33.511 -15.632 -25.245  0.00  0.00    +0.013 C 
ATOM     15  C   UNL     1      34.115 -16.821 -25.619  0.00  0.00    -0.002 C 
ENDBRANCH   1  14
BRANCH   1  18
ATOM     16  O   UNL     1      33.838 -12.670 -27.066  0.00  0.00    -0.272 OA
ATOM     17  N   UNL     1      33.086 -12.813 -24.844  0.00  0.00    -0.280 N 
ATOM     18  C   UNL     1      33.336 -13.286 -26.128  0.00  0.00    +0.257 C 
ATOM     19  H   UNL     1      32.674 -13.451 -24.219  0.00  0.00    +0.155 HD
BRANCH  17  21
ATOM     20  F   UNL     1      31.594 -11.752 -22.757  0.00  0.00    -0.203 F 
ATOM     21  C   UNL     1      33.356 -11.522 -24.333  0.00  0.00    +0.078 C 
ATOM     22  C   UNL     1      32.587 -11.028 -23.292  0.00  0.00    +0.154 C 
ATOM     23  C   UNL     1      34.383 -10.777 -24.888  0.00  0.00    +0.017 C 
ATOM     24  C   UNL     1      32.854  -9.754 -22.791  0.00  0.00    +0.037 C 
ATOM     25  C   UNL     1      34.649  -9.501 -24.389  0.00  0.00    +0.008 C 
ATOM     26  C   UNL     1      33.884  -8.991 -23.340  0.00  0.00    +0.078 C 
BRANCH  26  28
ATOM     27  O   UNL     1      33.336  -6.915 -22.282  0.00  0.00    -0.245 OA
ATOM     28  C   UNL     1      34.163  -7.662 -22.817  0.00  0.00    +0.338 C 
BRANCH  28  29
ATOM     29  O   UNL     1      35.466  -7.303 -22.974  0.00  0.00    -0.477 OA
ATOM     30  H   UNL     1      35.774  -7.011 -23.809  0.00  0.00    +0.295 HD
ENDBRANCH  28  29
ENDBRANCH  26  28
ENDBRANCH  17  21
ENDBRANCH   1  18
BRANCH   1  31
ATOM     31  O   UNL     1      33.257 -15.208 -27.577  0.00  0.00    -0.372 OA
ATOM     32  H   UNL     1      32.533 -15.028 -28.197  0.00  0.00    +0.211 HD
ENDBRANCH   1  31
TORSDOF 6
ENDMDL
MODEL 8
REMARK VINA RESULT:      -9.3      5.526      8.739
REMARK  Name = 445460
REMARK  6 active torsions:
REMARK  status: ('A' for Active; 'I' for Inactive)
REMARK    1  A    between atoms: C_1  and  C_14
REMARK    2  A    between atoms: C_1  and  C_18
REMARK    3  A    between atoms: C_1  and  O_31
REMARK    4  A    between atoms: N_17  and  C_21
REMARK    5  A    between atoms: C_26  and  C_28
REMARK    6  A    between atoms: C_28  and  O_29
REMARK                            x       y       z     vdW  Elec       q    Type
REMARK                         _______ _______ _______ _____ _____    ______ ____
ROOT
ATOM      1  C   UNL     1      32.435 -22.710 -18.239  0.00  0.00    +0.210 C 
ENDROOT
BRANCH   1  14
ATOM      2  C   UNL     1      36.728 -20.609 -19.832  0.00  0.00    +0.019 C 
ATOM      3  C   UNL     1      35.089 -18.771 -21.650  0.00  0.00    +0.019 C 
ATOM      4  C   UNL     1      37.278 -19.322 -20.484  0.00  0.00    +0.004 C 
ATOM      5  C   UNL     1      36.605 -19.024 -21.813  0.00  0.00    +0.004 C 
ATOM      6  C   UNL     1      35.196 -20.661 -19.887  0.00  0.00    -0.027 C 
ATOM      7  C   UNL     1      34.438 -19.815 -20.735  0.00  0.00    -0.027 C 
ATOM      8  C   UNL     1      37.291 -21.849 -20.562  0.00  0.00    +0.004 C 
ATOM      9  C   UNL     1      37.254 -20.623 -18.378  0.00  0.00    +0.004 C 
ATOM     10  C   UNL     1      34.852 -17.368 -21.049  0.00  0.00    +0.004 C 
ATOM     11  C   UNL     1      34.487 -18.797 -23.075  0.00  0.00    +0.004 C 
ATOM     12  C   UNL     1      34.510 -21.608 -19.094  0.00  0.00    -0.006 C 
ATOM     13  C   UNL     1      33.028 -19.916 -20.702  0.00  0.00    -0.005 C 
ATOM     14  C   UNL     1      33.120 -21.700 -19.095  0.00  0.00    +0.013 C 
ATOM     15  C   UNL     1      32.378 -20.847 -19.895  0.00  0.00    -0.002 C 
ENDBRANCH   1  14
BRANCH   1  18
ATOM     16  O   UNL     1      34.154 -24.305 -17.660  0.00  0.00    -0.272 OA
ATOM     17  N   UNL     1      33.295 -22.892 -15.990  0.00  0.00    -0.280 N 
ATOM     18  C   UNL     1      33.404 -23.410 -17.277  0.00  0.00    +0.257 C 
ATOM     19  H   UNL     1      32.637 -22.171 -15.866  0.00  0.00    +0.155 HD
BRANCH  17  21
ATOM     20  F   UNL     1      35.980 -22.246 -15.697  0.00  0.00    -0.203 F 
ATOM     21  C   UNL     1      34.022 -23.281 -14.839  0.00  0.00    +0.078 C 
ATOM     22  C   UNL     1      35.360 -22.941 -14.733  0.00  0.00    +0.154 C 
ATOM     23  C   UNL     1      33.377 -23.998 -13.844  0.00  0.00    +0.017 C 
ATOM     24  C   UNL     1      36.074 -23.327 -13.598  0.00  0.00    +0.037 C 
ATOM     25  C   UNL     1      34.091 -24.385 -12.710  0.00  0.00    +0.008 C 
ATOM     26  C   UNL     1      35.440 -24.049 -12.588  0.00  0.00    +0.078 C 
BRANCH  26  28
ATOM     27  O   UNL     1      37.389 -24.252 -11.215  0.00  0.00    -0.245 OA
ATOM     28  C   UNL     1      36.185 -24.451 -11.404  0.00  0.00    +0.338 C 
BRANCH  28  29
ATOM     29  O   UNL     1      35.404 -25.089 -10.489  0.00  0.00    -0.477 OA
ATOM     30  H   UNL     1      35.219 -24.682  -9.666  0.00  0.00    +0.295 HD
ENDBRANCH  28  29
ENDBRANCH  26  28
ENDBRANCH  17  21
ENDBRANCH   1  18
BRANCH   1  31
ATOM     31  O   UNL     1      31.411 -22.072 -17.476  0.00  0.00    -0.372 OA
ATOM     32  H   UNL     1      31.644 -22.100 -16.535  0.00  0.00    +0.211 HD
ENDBRANCH   1  31
TORSDOF 6
ENDMDL
MODEL 9
REMARK VINA RESULT:      -9.3      5.064     11.274
REMARK  Name = 445460
REMARK  6 active torsions:
REMARK  status: ('A' for Active; 'I' for Inactive)
REMARK    1  A    between atoms: C_1  and  C_14
REMARK    2  A    between atoms: C_1  and  C_18
REMARK    3  A    between atoms: C_1  and  O_31
REMARK    4  A    between atoms: N_17  and  C_21
REMARK    5  A    between atoms: C_26  and  C_28
REMARK    6  A    between atoms: C_28  and  O_29
REMARK                            x       y       z     vdW  Elec       q    Type
REMARK                         _______ _______ _______ _____ _____    ______ ____
ROOT
ATOM      1  C   UNL     1      36.991 -21.756 -17.758  0.00  0.00    +0.210 C 
ENDROOT
BRANCH   1  14
ATOM      2  C   UNL     1      36.472 -24.030 -13.292  0.00  0.00    +0.019 C 
ATOM      3  C   UNL     1      33.443 -24.066 -13.724  0.00  0.00    +0.019 C 
ATOM      4  C   UNL     1      35.494 -24.915 -12.489  0.00  0.00    +0.004 C 
ATOM      5  C   UNL     1      34.124 -24.271 -12.353  0.00  0.00    +0.004 C 
ATOM      6  C   UNL     1      35.816 -23.467 -14.559  0.00  0.00    -0.027 C 
ATOM      7  C   UNL     1      34.412 -23.476 -14.755  0.00  0.00    -0.027 C 
ATOM      8  C   UNL     1      36.953 -22.851 -12.418  0.00  0.00    +0.004 C 
ATOM      9  C   UNL     1      37.695 -24.919 -13.622  0.00  0.00    +0.004 C 
ATOM     10  C   UNL     1      32.915 -25.416 -14.256  0.00  0.00    +0.004 C 
ATOM     11  C   UNL     1      32.231 -23.136 -13.474  0.00  0.00    +0.004 C 
ATOM     12  C   UNL     1      36.631 -22.883 -15.555  0.00  0.00    -0.006 C 
ATOM     13  C   UNL     1      33.898 -22.956 -15.965  0.00  0.00    -0.005 C 
ATOM     14  C   UNL     1      36.095 -22.359 -16.729  0.00  0.00    +0.013 C 
ATOM     15  C   UNL     1      34.726 -22.403 -16.938  0.00  0.00    -0.002 C 
ENDBRANCH   1  14
BRANCH   1  18
ATOM     16  O   UNL     1      35.633 -22.418 -19.642  0.00  0.00    -0.272 OA
ATOM     17  N   UNL     1      36.447 -20.217 -19.537  0.00  0.00    -0.280 N 
ATOM     18  C   UNL     1      36.270 -21.523 -19.092  0.00  0.00    +0.257 C 
ATOM     19  H   UNL     1      36.991 -19.632 -18.962  0.00  0.00    +0.155 HD
BRANCH  17  21
ATOM     20  F   UNL     1      38.115 -18.913 -21.334  0.00  0.00    -0.203 F 
ATOM     21  C   UNL     1      35.936 -19.632 -20.720  0.00  0.00    +0.078 C 
ATOM     22  C   UNL     1      36.801 -18.989 -21.589  0.00  0.00    +0.154 C 
ATOM     23  C   UNL     1      34.578 -19.712 -20.981  0.00  0.00    +0.017 C 
ATOM     24  C   UNL     1      36.295 -18.412 -22.754  0.00  0.00    +0.037 C 
ATOM     25  C   UNL     1      34.071 -19.134 -22.145  0.00  0.00    +0.008 C 
ATOM     26  C   UNL     1      34.930 -18.483 -23.031  0.00  0.00    +0.078 C 
BRANCH  26  28
ATOM     27  O   UNL     1      33.931 -18.503 -25.205  0.00  0.00    -0.245 OA
ATOM     28  C   UNL     1      34.402 -17.882 -24.246  0.00  0.00    +0.338 C 
BRANCH  28  29
ATOM     29  O   UNL     1      34.476 -16.523 -24.229  0.00  0.00    -0.477 OA
ATOM     30  H   UNL     1      34.246 -16.031 -24.992  0.00  0.00    +0.295 HD
ENDBRANCH  28  29
ENDBRANCH  26  28
ENDBRANCH  17  21
ENDBRANCH   1  18
BRANCH   1  31
ATOM     31  O   UNL     1      37.491 -20.507 -17.282  0.00  0.00    -0.372 OA
ATOM     32  H   UNL     1      37.667 -20.571 -16.330  0.00  0.00    +0.211 HD
ENDBRANCH   1  31
TORSDOF 6
ENDMDL
