MODEL 1
REMARK VINA RESULT:     -13.1      0.000      0.000
REMARK  Name = 11167602
REMARK  6 active torsions:
REMARK  status: ('A' for Active; 'I' for Inactive)
REMARK    1  A    between atoms: C_2  and  N_10
REMARK    2  A    between atoms: C_3  and  O_25
REMARK    3  A    between atoms: N_9  and  C_15
REMARK    4  A    between atoms: C_16  and  C_24
REMARK    5  A    between atoms: O_25  and  C_27
REMARK    6  A    between atoms: C_29  and  C_34
REMARK                            x       y       z     vdW  Elec       q    Type
REMARK                         _______ _______ _______ _____ _____    ______ ____
ROOT
ATOM      1  F   UNL     1      37.080 -21.429 -17.710  0.00  0.00    -0.203 F 
ATOM      2  C   UNL     1      35.002 -21.869 -18.771  0.00  0.00    +0.079 C 
ATOM      3  C   UNL     1      34.230 -23.382 -16.583  0.00  0.00    +0.148 C 
ATOM      4  C   UNL     1      35.873 -22.011 -17.703  0.00  0.00    +0.157 C 
ATOM      5  C   UNL     1      33.752 -22.467 -18.767  0.00  0.00    +0.020 C 
ATOM      6  C   UNL     1      35.484 -22.773 -16.602  0.00  0.00    +0.068 C 
ATOM      7  C   UNL     1      33.364 -23.230 -17.666  0.00  0.00    +0.039 C 
ENDROOT
BRANCH   2  10
ATOM      8  O   UNL     1      33.441 -19.914 -20.403  0.00  0.00    -0.252 OA
ATOM      9  N   UNL     1      35.391 -19.623 -21.669  0.00  0.00    -0.268 N 
ATOM     10  N   UNL     1      35.392 -21.095 -19.889  0.00  0.00    -0.266 N 
ATOM     11  C   UNL     1      34.616 -20.186 -20.625  0.00  0.00    +0.308 C 
ATOM     12  H   UNL     1      36.322 -19.936 -21.726  0.00  0.00    +0.156 HD
ATOM     13  H   UNL     1      36.324 -21.209 -20.188  0.00  0.00    +0.156 HD
BRANCH   9  15
ATOM     14 CL   UNL     1      33.778 -15.670 -25.757  0.00  0.00    -0.082 Cl
ATOM     15  C   UNL     1      35.009 -18.683 -22.627  0.00  0.00    +0.052 C 
ATOM     16  C   UNL     1      34.379 -16.424 -23.209  0.00  0.00    +0.083 C 
ATOM     17  C   UNL     1      34.761 -17.364 -22.250  0.00  0.00    +0.019 C 
ATOM     18  C   UNL     1      34.874 -19.064 -23.962  0.00  0.00    +0.016 C 
ATOM     19  C   UNL     1      34.246 -16.805 -24.543  0.00  0.00    +0.062 C 
ATOM     20  C   UNL     1      34.493 -18.125 -24.920  0.00  0.00    +0.013 C 
BRANCH  16  24
ATOM     21  F   UNL     1      34.628 -14.742 -21.526  0.00  0.00    -0.166 F 
ATOM     22  F   UNL     1      34.669 -14.081 -23.592  0.00  0.00    -0.166 F 
ATOM     23  F   UNL     1      32.796 -14.727 -22.696  0.00  0.00    -0.166 F 
ATOM     24  C   UNL     1      34.126 -15.020 -22.764  0.00  0.00    +0.419 C 
ENDBRANCH  16  24
ENDBRANCH   9  15
ENDBRANCH   2  10
BRANCH   3  25
ATOM     25  O   UNL     1      33.850 -24.127 -15.508  0.00  0.00    -0.453 OA
BRANCH  25  27
ATOM     26  N   UNL     1      36.754 -25.061 -12.686  0.00  0.00    -0.239 NA
ATOM     27  C   UNL     1      34.818 -24.439 -14.568  0.00  0.00    +0.149 C 
ATOM     28  C   UNL     1      35.939 -25.137 -14.961  0.00  0.00    +0.061 C 
ATOM     29  C   UNL     1      36.879 -25.423 -13.983  0.00  0.00    +0.137 C 
ATOM     30  C   UNL     1      34.637 -24.044 -13.260  0.00  0.00    +0.058 C 
ATOM     31  C   UNL     1      35.633 -24.380 -12.358  0.00  0.00    +0.102 C 
BRANCH  29  34
ATOM     32  O   UNL     1      38.020 -27.304 -14.793  0.00  0.00    -0.268 OA
ATOM     33  N   UNL     1      39.308 -25.501 -14.108  0.00  0.00    -0.298 N 
ATOM     34  C   UNL     1      38.087 -26.154 -14.320  0.00  0.00    +0.264 C 
ATOM     35  C   UNL     1      40.593 -26.086 -14.415  0.00  0.00    +0.111 C 
ATOM     36  H   UNL     1      39.289 -24.593 -13.729  0.00  0.00    +0.150 HD
ENDBRANCH  29  34
ENDBRANCH  25  27
ENDBRANCH   3  25
TORSDOF 6
ENDMDL
MODEL 2
REMARK VINA RESULT:     -12.6      2.917      4.536
REMARK  Name = 11167602
REMARK  6 active torsions:
REMARK  status: ('A' for Active; 'I' for Inactive)
REMARK    1  A    between atoms: C_2  and  N_10
REMARK    2  A    between atoms: C_3  and  O_25
REMARK    3  A    between atoms: N_9  and  C_15
REMARK    4  A    between atoms: C_16  and  C_24
REMARK    5  A    between atoms: O_25  and  C_27
REMARK    6  A    between atoms: C_29  and  C_34
REMARK                            x       y       z     vdW  Elec       q    Type
REMARK                         _______ _______ _______ _____ _____    ______ ____
ROOT
ATOM      1  F   UNL     1      37.204 -20.858 -18.258  0.00  0.00    -0.203 F 
ATOM      2  C   UNL     1      35.176 -21.395 -19.371  0.00  0.00    +0.079 C 
ATOM      3  C   UNL     1      34.513 -23.104 -17.295  0.00  0.00    +0.148 C 
ATOM      4  C   UNL     1      36.048 -21.535 -18.304  0.00  0.00    +0.157 C 
ATOM      5  C   UNL     1      33.979 -22.091 -19.422  0.00  0.00    +0.020 C 
ATOM      6  C   UNL     1      35.714 -22.395 -17.259  0.00  0.00    +0.068 C 
ATOM      7  C   UNL     1      33.646 -22.953 -18.377  0.00  0.00    +0.039 C 
ENDROOT
BRANCH   2  10
ATOM      8  O   UNL     1      33.457 -19.534 -20.954  0.00  0.00    -0.252 OA
ATOM      9  N   UNL     1      35.398 -18.962 -22.133  0.00  0.00    -0.268 N 
ATOM     10  N   UNL     1      35.511 -20.522 -20.433  0.00  0.00    -0.266 N 
ATOM     11  C   UNL     1      34.661 -19.664 -21.148  0.00  0.00    +0.308 C 
ATOM     12  H   UNL     1      36.360 -19.168 -22.173  0.00  0.00    +0.156 HD
ATOM     13  H   UNL     1      36.458 -20.516 -20.704  0.00  0.00    +0.156 HD
BRANCH   9  15
ATOM     14 CL   UNL     1      33.475 -14.987 -26.063  0.00  0.00    -0.082 Cl
ATOM     15  C   UNL     1      34.943 -18.017 -23.053  0.00  0.00    +0.052 C 
ATOM     16  C   UNL     1      34.151 -15.789 -23.547  0.00  0.00    +0.083 C 
ATOM     17  C   UNL     1      34.607 -16.733 -22.626  0.00  0.00    +0.019 C 
ATOM     18  C   UNL     1      34.823 -18.358 -24.400  0.00  0.00    +0.016 C 
ATOM     19  C   UNL     1      34.033 -16.130 -24.894  0.00  0.00    +0.062 C 
ATOM     20  C   UNL     1      34.368 -17.414 -25.321  0.00  0.00    +0.013 C 
BRANCH  16  24
ATOM     21  F   UNL     1      34.405 -13.419 -23.751  0.00  0.00    -0.166 F 
ATOM     22  F   UNL     1      32.469 -14.148 -23.101  0.00  0.00    -0.166 F 
ATOM     23  F   UNL     1      34.170 -14.234 -21.750  0.00  0.00    -0.166 F 
ATOM     24  C   UNL     1      33.804 -14.423 -23.050  0.00  0.00    +0.419 C 
ENDBRANCH  16  24
ENDBRANCH   9  15
ENDBRANCH   2  10
BRANCH   3  25
ATOM     25  O   UNL     1      34.187 -23.944 -16.274  0.00  0.00    -0.453 OA
BRANCH  25  27
ATOM     26  N   UNL     1      30.771 -23.078 -14.072  0.00  0.00    -0.239 NA
ATOM     27  C   UNL     1      33.049 -23.655 -15.541  0.00  0.00    +0.149 C 
ATOM     28  C   UNL     1      31.891 -23.305 -16.202  0.00  0.00    +0.061 C 
ATOM     29  C   UNL     1      30.779 -23.026 -15.423  0.00  0.00    +0.137 C 
ATOM     30  C   UNL     1      33.099 -23.724 -14.165  0.00  0.00    +0.058 C 
ATOM     31  C   UNL     1      31.934 -23.426 -13.477  0.00  0.00    +0.102 C 
BRANCH  29  34
ATOM     32  O   UNL     1      29.478 -22.366 -17.259  0.00  0.00    -0.268 OA
ATOM     33  N   UNL     1      28.383 -22.648 -15.234  0.00  0.00    -0.298 N 
ATOM     34  C   UNL     1      29.523 -22.651 -16.047  0.00  0.00    +0.264 C 
ATOM     35  C   UNL     1      27.059 -22.320 -15.712  0.00  0.00    +0.111 C 
ATOM     36  H   UNL     1      28.489 -22.881 -14.284  0.00  0.00    +0.150 HD
ENDBRANCH  29  34
ENDBRANCH  25  27
ENDBRANCH   3  25
TORSDOF 6
ENDMDL
MODEL 3
REMARK VINA RESULT:     -12.4      3.220      4.851
REMARK  Name = 11167602
REMARK  6 active torsions:
REMARK  status: ('A' for Active; 'I' for Inactive)
REMARK    1  A    between atoms: C_2  and  N_10
REMARK    2  A    between atoms: C_3  and  O_25
REMARK    3  A    between atoms: N_9  and  C_15
REMARK    4  A    between atoms: C_16  and  C_24
REMARK    5  A    between atoms: O_25  and  C_27
REMARK    6  A    between atoms: C_29  and  C_34
REMARK                            x       y       z     vdW  Elec       q    Type
REMARK                         _______ _______ _______ _____ _____    ______ ____
ROOT
ATOM      1  F   UNL     1      32.577 -19.702 -20.910  0.00  0.00    -0.203 F 
ATOM      2  C   UNL     1      34.704 -18.719 -21.289  0.00  0.00    +0.079 C 
ATOM      3  C   UNL     1      35.885 -20.766 -19.845  0.00  0.00    +0.148 C 
ATOM      4  C   UNL     1      33.907 -19.713 -20.747  0.00  0.00    +0.157 C 
ATOM      5  C   UNL     1      36.080 -18.727 -21.125  0.00  0.00    +0.020 C 
ATOM      6  C   UNL     1      34.501 -20.744 -20.020  0.00  0.00    +0.068 C 
ATOM      7  C   UNL     1      36.674 -19.758 -20.397  0.00  0.00    +0.039 C 
ENDROOT
BRANCH   2  10
ATOM      8  O   UNL     1      34.697 -15.772 -20.802  0.00  0.00    -0.252 OA
ATOM      9  N   UNL     1      33.403 -15.592 -22.747  0.00  0.00    -0.268 N 
ATOM     10  N   UNL     1      34.105 -17.672 -22.028  0.00  0.00    -0.266 N 
ATOM     11  C   UNL     1      34.130 -16.296 -21.756  0.00  0.00    +0.308 C 
ATOM     12  H   UNL     1      33.002 -16.146 -23.455  0.00  0.00    +0.156 HD
ATOM     13  H   UNL     1      33.607 -17.944 -22.834  0.00  0.00    +0.156 HD
BRANCH   9  15
ATOM     14 CL   UNL     1      32.488  -9.772 -23.232  0.00  0.00    -0.082 Cl
ATOM     15  C   UNL     1      33.181 -14.219 -22.853  0.00  0.00    +0.052 C 
ATOM     16  C   UNL     1      32.232 -12.178 -21.976  0.00  0.00    +0.083 C 
ATOM     17  C   UNL     1      32.453 -13.551 -21.868  0.00  0.00    +0.019 C 
ATOM     18  C   UNL     1      33.688 -13.514 -23.945  0.00  0.00    +0.016 C 
ATOM     19  C   UNL     1      32.740 -11.473 -23.067  0.00  0.00    +0.062 C 
ATOM     20  C   UNL     1      33.467 -12.141 -24.051  0.00  0.00    +0.013 C 
BRANCH  16  24
ATOM     21  F   UNL     1      31.877 -10.232 -20.631  0.00  0.00    -0.166 F 
ATOM     22  F   UNL     1      30.121 -11.378 -21.185  0.00  0.00    -0.166 F 
ATOM     23  F   UNL     1      31.511 -12.167 -19.711  0.00  0.00    -0.166 F 
ATOM     24  C   UNL     1      31.450 -11.499 -20.898  0.00  0.00    +0.419 C 
ENDBRANCH  16  24
ENDBRANCH   9  15
ENDBRANCH   2  10
BRANCH   3  25
ATOM     25  O   UNL     1      36.466 -21.773 -19.135  0.00  0.00    -0.453 OA
BRANCH  25  27
ATOM     26  N   UNL     1      34.388 -23.271 -15.863  0.00  0.00    -0.239 NA
ATOM     27  C   UNL     1      35.774 -22.273 -18.044  0.00  0.00    +0.149 C 
ATOM     28  C   UNL     1      36.419 -22.388 -16.832  0.00  0.00    +0.061 C 
ATOM     29  C   UNL     1      35.683 -22.892 -15.771  0.00  0.00    +0.137 C 
ATOM     30  C   UNL     1      34.455 -22.643 -18.196  0.00  0.00    +0.058 C 
ATOM     31  C   UNL     1      33.806 -23.136 -17.076  0.00  0.00    +0.102 C 
BRANCH  29  34
ATOM     32  O   UNL     1      37.514 -22.860 -14.309  0.00  0.00    -0.268 OA
ATOM     33  N   UNL     1      35.445 -23.377 -13.399  0.00  0.00    -0.298 N 
ATOM     34  C   UNL     1      36.293 -23.043 -14.462  0.00  0.00    +0.264 C 
ATOM     35  C   UNL     1      35.897 -23.540 -12.036  0.00  0.00    +0.111 C 
ATOM     36  H   UNL     1      34.489 -23.509 -13.590  0.00  0.00    +0.150 HD
ENDBRANCH  29  34
ENDBRANCH  25  27
ENDBRANCH   3  25
TORSDOF 6
ENDMDL
MODEL 4
REMARK VINA RESULT:     -12.4      5.532      9.641
REMARK  Name = 11167602
REMARK  6 active torsions:
REMARK  status: ('A' for Active; 'I' for Inactive)
REMARK    1  A    between atoms: C_2  and  N_10
REMARK    2  A    between atoms: C_3  and  O_25
REMARK    3  A    between atoms: N_9  and  C_15
REMARK    4  A    between atoms: C_16  and  C_24
REMARK    5  A    between atoms: O_25  and  C_27
REMARK    6  A    between atoms: C_29  and  C_34
REMARK                            x       y       z     vdW  Elec       q    Type
REMARK                         _______ _______ _______ _____ _____    ______ ____
ROOT
ATOM      1  F   UNL     1      33.345 -14.212 -26.287  0.00  0.00    -0.203 F 
ATOM      2  C   UNL     1      34.078 -14.018 -24.038  0.00  0.00    +0.079 C 
ATOM      3  C   UNL     1      34.307 -16.775 -23.897  0.00  0.00    +0.148 C 
ATOM      4  C   UNL     1      33.760 -14.782 -25.148  0.00  0.00    +0.157 C 
ATOM      5  C   UNL     1      34.510 -14.604 -22.858  0.00  0.00    +0.020 C 
ATOM      6  C   UNL     1      33.875 -16.170 -25.077  0.00  0.00    +0.068 C 
ATOM      7  C   UNL     1      34.623 -15.992 -22.787  0.00  0.00    +0.039 C 
ENDROOT
BRANCH   2  10
ATOM      8  O   UNL     1      32.159 -12.170 -22.686  0.00  0.00    -0.252 OA
ATOM      9  N   UNL     1      33.270 -10.429 -23.793  0.00  0.00    -0.268 N 
ATOM     10  N   UNL     1      33.964 -12.609 -24.106  0.00  0.00    -0.266 N 
ATOM     11  C   UNL     1      33.039 -11.783 -23.449  0.00  0.00    +0.308 C 
ATOM     12  H   UNL     1      34.014 -10.268 -24.417  0.00  0.00    +0.156 HD
ATOM     13  H   UNL     1      34.614 -12.152 -24.688  0.00  0.00    +0.156 HD
BRANCH   9  15
ATOM     14 CL   UNL     1      30.343  -5.611 -22.014  0.00  0.00    -0.082 Cl
ATOM     15  C   UNL     1      32.583  -9.293 -23.364  0.00  0.00    +0.052 C 
ATOM     16  C   UNL     1      32.110  -7.654 -21.653  0.00  0.00    +0.083 C 
ATOM     17  C   UNL     1      32.798  -8.791 -22.080  0.00  0.00    +0.019 C 
ATOM     18  C   UNL     1      31.681  -8.660 -24.219  0.00  0.00    +0.016 C 
ATOM     19  C   UNL     1      31.210  -7.021 -22.508  0.00  0.00    +0.062 C 
ATOM     20  C   UNL     1      30.995  -7.523 -23.791  0.00  0.00    +0.013 C 
BRANCH  16  24
ATOM     21  F   UNL     1      32.224  -5.795 -20.151  0.00  0.00    -0.166 F 
ATOM     22  F   UNL     1      31.543  -7.683 -19.329  0.00  0.00    -0.166 F 
ATOM     23  F   UNL     1      33.638  -7.418 -19.847  0.00  0.00    -0.166 F 
ATOM     24  C   UNL     1      32.371  -7.146 -20.272  0.00  0.00    +0.419 C 
ENDBRANCH  16  24
ENDBRANCH   9  15
ENDBRANCH   2  10
BRANCH   3  25
ATOM     25  O   UNL     1      34.419 -18.130 -23.827  0.00  0.00    -0.453 OA
BRANCH  25  27
ATOM     26  N   UNL     1      35.826 -19.773 -20.279  0.00  0.00    -0.239 NA
ATOM     27  C   UNL     1      34.887 -18.677 -22.645  0.00  0.00    +0.149 C 
ATOM     28  C   UNL     1      34.043 -19.454 -21.880  0.00  0.00    +0.061 C 
ATOM     29  C   UNL     1      34.560 -19.980 -20.707  0.00  0.00    +0.137 C 
ATOM     30  C   UNL     1      36.188 -18.433 -22.259  0.00  0.00    +0.058 C 
ATOM     31  C   UNL     1      36.609 -19.003 -21.068  0.00  0.00    +0.102 C 
BRANCH  29  34
ATOM     32  O   UNL     1      32.518 -20.568 -19.718  0.00  0.00    -0.268 OA
ATOM     33  N   UNL     1      34.358 -21.885 -19.206  0.00  0.00    -0.298 N 
ATOM     34  C   UNL     1      33.732 -20.808 -19.848  0.00  0.00    +0.264 C 
ATOM     35  C   UNL     1      33.665 -22.811 -18.341  0.00  0.00    +0.111 C 
ATOM     36  H   UNL     1      35.322 -22.016 -19.352  0.00  0.00    +0.150 HD
ENDBRANCH  29  34
ENDBRANCH  25  27
ENDBRANCH   3  25
TORSDOF 6
ENDMDL
MODEL 5
REMARK VINA RESULT:     -12.4      4.593     11.771
REMARK  Name = 11167602
REMARK  6 active torsions:
REMARK  status: ('A' for Active; 'I' for Inactive)
REMARK    1  A    between atoms: C_2  and  N_10
REMARK    2  A    between atoms: C_3  and  O_25
REMARK    3  A    between atoms: N_9  and  C_15
REMARK    4  A    between atoms: C_16  and  C_24
REMARK    5  A    between atoms: O_25  and  C_27
REMARK    6  A    between atoms: C_29  and  C_34
REMARK                            x       y       z     vdW  Elec       q    Type
REMARK                         _______ _______ _______ _____ _____    ______ ____
ROOT
ATOM      1  F   UNL     1      33.073 -20.958 -20.082  0.00  0.00    -0.203 F 
ATOM      2  C   UNL     1      35.421 -20.753 -19.800  0.00  0.00    +0.079 C 
ATOM      3  C   UNL     1      35.470 -18.827 -21.790  0.00  0.00    +0.148 C 
ATOM      4  C   UNL     1      34.238 -20.392 -20.424  0.00  0.00    +0.157 C 
ATOM      5  C   UNL     1      36.629 -20.169 -20.150  0.00  0.00    +0.020 C 
ATOM      6  C   UNL     1      34.263 -19.423 -21.426  0.00  0.00    +0.068 C 
ATOM      7  C   UNL     1      36.653 -19.200 -21.153  0.00  0.00    +0.039 C 
ENDROOT
BRANCH   2  10
ATOM      8  O   UNL     1      36.993 -20.940 -17.267  0.00  0.00    -0.252 OA
ATOM      9  N   UNL     1      35.835 -22.935 -16.857  0.00  0.00    -0.268 N 
ATOM     10  N   UNL     1      35.400 -21.735 -18.782  0.00  0.00    -0.266 N 
ATOM     11  C   UNL     1      36.163 -21.778 -17.605  0.00  0.00    +0.308 C 
ATOM     12  H   UNL     1      35.147 -23.518 -17.253  0.00  0.00    +0.156 HD
ATOM     13  H   UNL     1      34.772 -22.482 -18.917  0.00  0.00    +0.156 HD
BRANCH   9  15
ATOM     14 CL   UNL     1      38.011 -24.703 -11.653  0.00  0.00    -0.082 Cl
ATOM     15  C   UNL     1      36.355 -23.357 -15.634  0.00  0.00    +0.052 C 
ATOM     16  C   UNL     1      38.074 -24.490 -14.370  0.00  0.00    +0.083 C 
ATOM     17  C   UNL     1      37.554 -24.069 -15.594  0.00  0.00    +0.019 C 
ATOM     18  C   UNL     1      35.677 -23.067 -14.450  0.00  0.00    +0.016 C 
ATOM     19  C   UNL     1      37.396 -24.199 -13.187  0.00  0.00    +0.062 C 
ATOM     20  C   UNL     1      36.197 -23.488 -13.227  0.00  0.00    +0.013 C 
BRANCH  16  24
ATOM     21  F   UNL     1      40.011 -25.220 -15.570  0.00  0.00    -0.166 F 
ATOM     22  F   UNL     1      40.268 -24.783 -13.461  0.00  0.00    -0.166 F 
ATOM     23  F   UNL     1      39.190 -26.569 -14.076  0.00  0.00    -0.166 F 
ATOM     24  C   UNL     1      39.363 -25.248 -14.370  0.00  0.00    +0.419 C 
ENDBRANCH  16  24
ENDBRANCH   9  15
ENDBRANCH   2  10
BRANCH   3  25
ATOM     25  O   UNL     1      35.495 -17.880 -22.769  0.00  0.00    -0.453 OA
BRANCH  25  27
ATOM     26  N   UNL     1      33.971 -14.123 -21.855  0.00  0.00    -0.239 NA
ATOM     27  C   UNL     1      34.988 -16.628 -22.465  0.00  0.00    +0.149 C 
ATOM     28  C   UNL     1      34.621 -15.782 -23.489  0.00  0.00    +0.061 C 
ATOM     29  C   UNL     1      34.118 -14.541 -23.133  0.00  0.00    +0.137 C 
ATOM     30  C   UNL     1      34.860 -16.256 -21.143  0.00  0.00    +0.058 C 
ATOM     31  C   UNL     1      34.348 -14.994 -20.892  0.00  0.00    +0.102 C 
BRANCH  29  34
ATOM     32  O   UNL     1      32.945 -13.946 -25.073  0.00  0.00    -0.268 OA
ATOM     33  N   UNL     1      34.194 -12.286 -24.043  0.00  0.00    -0.298 N 
ATOM     34  C   UNL     1      33.709 -13.594 -24.156  0.00  0.00    +0.264 C 
ATOM     35  C   UNL     1      33.860 -11.226 -24.967  0.00  0.00    +0.111 C 
ATOM     36  H   UNL     1      34.797 -12.076 -23.294  0.00  0.00    +0.150 HD
ENDBRANCH  29  34
ENDBRANCH  25  27
ENDBRANCH   3  25
TORSDOF 6
ENDMDL
MODEL 6
REMARK VINA RESULT:     -12.3      3.376      5.061
REMARK  Name = 11167602
REMARK  6 active torsions:
REMARK  status: ('A' for Active; 'I' for Inactive)
REMARK    1  A    between atoms: C_2  and  N_10
REMARK    2  A    between atoms: C_3  and  O_25
REMARK    3  A    between atoms: N_9  and  C_15
REMARK    4  A    between atoms: C_16  and  C_24
REMARK    5  A    between atoms: O_25  and  C_27
REMARK    6  A    between atoms: C_29  and  C_34
REMARK                            x       y       z     vdW  Elec       q    Type
REMARK                         _______ _______ _______ _____ _____    ______ ____
ROOT
ATOM      1  F   UNL     1      37.208 -20.471 -20.187  0.00  0.00    -0.203 F 
ATOM      2  C   UNL     1      34.885 -20.143 -20.552  0.00  0.00    +0.079 C 
ATOM      3  C   UNL     1      34.350 -22.400 -19.038  0.00  0.00    +0.148 C 
ATOM      4  C   UNL     1      35.938 -20.855 -20.001  0.00  0.00    +0.157 C 
ATOM      5  C   UNL     1      33.570 -20.536 -20.361  0.00  0.00    +0.020 C 
ATOM      6  C   UNL     1      35.669 -21.991 -19.239  0.00  0.00    +0.068 C 
ATOM      7  C   UNL     1      33.301 -21.673 -19.600  0.00  0.00    +0.039 C 
ENDROOT
BRANCH   2  10
ATOM      8  O   UNL     1      33.237 -17.693 -20.999  0.00  0.00    -0.252 OA
ATOM      9  N   UNL     1      34.987 -16.929 -22.356  0.00  0.00    -0.268 N 
ATOM     10  N   UNL     1      35.155 -18.989 -21.325  0.00  0.00    -0.266 N 
ATOM     11  C   UNL     1      34.342 -17.859 -21.504  0.00  0.00    +0.308 C 
ATOM     12  H   UNL     1      35.874 -17.198 -22.687  0.00  0.00    +0.156 HD
ATOM     13  H   UNL     1      36.020 -18.978 -21.796  0.00  0.00    +0.156 HD
BRANCH   9  15
ATOM     14 CL   UNL     1      33.058 -11.637 -24.151  0.00  0.00    -0.082 Cl
ATOM     15  C   UNL     1      34.531 -15.683 -22.789  0.00  0.00    +0.052 C 
ATOM     16  C   UNL     1      33.649 -14.270 -24.538  0.00  0.00    +0.083 C 
ATOM     17  C   UNL     1      34.105 -15.516 -24.107  0.00  0.00    +0.019 C 
ATOM     18  C   UNL     1      34.501 -14.606 -21.903  0.00  0.00    +0.016 C 
ATOM     19  C   UNL     1      33.618 -13.193 -23.653  0.00  0.00    +0.062 C 
ATOM     20  C   UNL     1      34.044 -13.361 -22.335  0.00  0.00    +0.013 C 
BRANCH  16  24
ATOM     21  F   UNL     1      31.852 -13.964 -26.087  0.00  0.00    -0.166 F 
ATOM     22  F   UNL     1      33.759 -13.069 -26.605  0.00  0.00    -0.166 F 
ATOM     23  F   UNL     1      33.508 -15.227 -26.710  0.00  0.00    -0.166 F 
ATOM     24  C   UNL     1      33.199 -14.132 -25.957  0.00  0.00    +0.419 C 
ENDBRANCH  16  24
ENDBRANCH   9  15
ENDBRANCH   2  10
BRANCH   3  25
ATOM     25  O   UNL     1      34.087 -23.509 -18.294  0.00  0.00    -0.453 OA
BRANCH  25  27
ATOM     26  N   UNL     1      32.171 -22.981 -14.644  0.00  0.00    -0.239 NA
ATOM     27  C   UNL     1      33.448 -23.332 -17.078  0.00  0.00    +0.149 C 
ATOM     28  C   UNL     1      32.077 -23.197 -17.050  0.00  0.00    +0.061 C 
ATOM     29  C   UNL     1      31.486 -23.024 -15.809  0.00  0.00    +0.137 C 
ATOM     30  C   UNL     1      34.199 -23.296 -15.922  0.00  0.00    +0.058 C 
ATOM     31  C   UNL     1      33.513 -23.117 -14.732  0.00  0.00    +0.102 C 
BRANCH  29  34
ATOM     32  O   UNL     1      29.498 -22.833 -14.581  0.00  0.00    -0.268 OA
ATOM     33  N   UNL     1      29.323 -22.761 -16.892  0.00  0.00    -0.298 N 
ATOM     34  C   UNL     1      30.045 -22.875 -15.698  0.00  0.00    +0.264 C 
ATOM     35  C   UNL     1      27.890 -22.584 -16.947  0.00  0.00    +0.111 C 
ATOM     36  H   UNL     1      29.818 -22.804 -17.742  0.00  0.00    +0.150 HD
ENDBRANCH  29  34
ENDBRANCH  25  27
ENDBRANCH   3  25
TORSDOF 6
ENDMDL
MODEL 7
REMARK VINA RESULT:     -12.2      3.625      5.311
REMARK  Name = 11167602
REMARK  6 active torsions:
REMARK  status: ('A' for Active; 'I' for Inactive)
REMARK    1  A    between atoms: C_2  and  N_10
REMARK    2  A    between atoms: C_3  and  O_25
REMARK    3  A    between atoms: N_9  and  C_15
REMARK    4  A    between atoms: C_16  and  C_24
REMARK    5  A    between atoms: O_25  and  C_27
REMARK    6  A    between atoms: C_29  and  C_34
REMARK                            x       y       z     vdW  Elec       q    Type
REMARK                         _______ _______ _______ _____ _____    ______ ____
ROOT
ATOM      1  F   UNL     1      36.614 -18.653 -21.530  0.00  0.00    -0.203 F 
ATOM      2  C   UNL     1      34.329 -19.187 -21.170  0.00  0.00    +0.079 C 
ATOM      3  C   UNL     1      35.100 -21.334 -19.598  0.00  0.00    +0.148 C 
ATOM      4  C   UNL     1      35.678 -19.433 -20.974  0.00  0.00    +0.157 C 
ATOM      5  C   UNL     1      33.357 -19.991 -20.596  0.00  0.00    +0.020 C 
ATOM      6  C   UNL     1      36.066 -20.514 -20.182  0.00  0.00    +0.068 C 
ATOM      7  C   UNL     1      33.746 -21.073 -19.805  0.00  0.00    +0.039 C 
ENDROOT
BRANCH   2  10
ATOM      8  O   UNL     1      34.279 -16.265 -20.553  0.00  0.00    -0.252 OA
ATOM      9  N   UNL     1      33.453 -15.960 -22.723  0.00  0.00    -0.268 N 
ATOM     10  N   UNL     1      33.931 -18.091 -21.971  0.00  0.00    -0.266 N 
ATOM     11  C   UNL     1      33.926 -16.729 -21.632  0.00  0.00    +0.308 C 
ATOM     12  H   UNL     1      33.206 -16.469 -23.529  0.00  0.00    +0.156 HD
ATOM     13  H   UNL     1      33.619 -18.311 -22.879  0.00  0.00    +0.156 HD
BRANCH   9  15
ATOM     14 CL   UNL     1      32.791 -10.099 -23.117  0.00  0.00    -0.082 Cl
ATOM     15  C   UNL     1      33.291 -14.577 -22.809  0.00  0.00    +0.052 C 
ATOM     16  C   UNL     1      32.403 -12.515 -21.916  0.00  0.00    +0.083 C 
ATOM     17  C   UNL     1      32.565 -13.898 -21.830  0.00  0.00    +0.019 C 
ATOM     18  C   UNL     1      33.855 -13.873 -23.873  0.00  0.00    +0.016 C 
ATOM     19  C   UNL     1      32.968 -11.812 -22.979  0.00  0.00    +0.062 C 
ATOM     20  C   UNL     1      33.693 -12.490 -23.958  0.00  0.00    +0.013 C 
BRANCH  16  24
ATOM     21  F   UNL     1      30.320 -11.593 -21.185  0.00  0.00    -0.166 F 
ATOM     22  F   UNL     1      31.568 -12.523 -19.674  0.00  0.00    -0.166 F 
ATOM     23  F   UNL     1      32.141 -10.605 -20.525  0.00  0.00    -0.166 F 
ATOM     24  C   UNL     1      31.621 -11.825 -20.845  0.00  0.00    +0.419 C 
ENDBRANCH  16  24
ENDBRANCH   9  15
ENDBRANCH   2  10
BRANCH   3  25
ATOM     25  O   UNL     1      35.479 -22.389 -18.826  0.00  0.00    -0.453 OA
BRANCH  25  27
ATOM     26  N   UNL     1      33.330 -23.105 -15.342  0.00  0.00    -0.239 NA
ATOM     27  C   UNL     1      34.762 -22.627 -17.665  0.00  0.00    +0.149 C 
ATOM     28  C   UNL     1      33.393 -22.769 -17.735  0.00  0.00    +0.061 C 
ATOM     29  C   UNL     1      32.722 -23.007 -16.546  0.00  0.00    +0.137 C 
ATOM     30  C   UNL     1      35.435 -22.717 -16.465  0.00  0.00    +0.058 C 
ATOM     31  C   UNL     1      34.673 -22.957 -15.333  0.00  0.00    +0.102 C 
BRANCH  29  34
ATOM     32  O   UNL     1      30.553 -22.403 -17.200  0.00  0.00    -0.268 OA
ATOM     33  N   UNL     1      30.760 -24.226 -15.781  0.00  0.00    -0.298 N 
ATOM     34  C   UNL     1      31.279 -23.169 -16.538  0.00  0.00    +0.264 C 
ATOM     35  C   UNL     1      29.350 -24.530 -15.692  0.00  0.00    +0.111 C 
ATOM     36  H   UNL     1      31.390 -24.793 -15.280  0.00  0.00    +0.150 HD
ENDBRANCH  29  34
ENDBRANCH  25  27
ENDBRANCH   3  25
TORSDOF 6
ENDMDL
MODEL 8
REMARK VINA RESULT:     -12.2      5.784      9.847
REMARK  Name = 11167602
REMARK  6 active torsions:
REMARK  status: ('A' for Active; 'I' for Inactive)
REMARK    1  A    between atoms: C_2  and  N_10
REMARK    2  A    between atoms: C_3  and  O_25
REMARK    3  A    between atoms: N_9  and  C_15
REMARK    4  A    between atoms: C_16  and  C_24
REMARK    5  A    between atoms: O_25  and  C_27
REMARK    6  A    between atoms: C_29  and  C_34
REMARK                            x       y       z     vdW  Elec       q    Type
REMARK                         _______ _______ _______ _____ _____    ______ ____
ROOT
ATOM      1  F   UNL     1      33.337 -14.030 -26.171  0.00  0.00    -0.203 F 
ATOM      2  C   UNL     1      34.107 -13.904 -23.928  0.00  0.00    +0.079 C 
ATOM      3  C   UNL     1      34.254 -16.669 -23.845  0.00  0.00    +0.148 C 
ATOM      4  C   UNL     1      33.750 -14.636 -25.049  0.00  0.00    +0.157 C 
ATOM      5  C   UNL     1      34.537 -14.526 -22.767  0.00  0.00    +0.020 C 
ATOM      6  C   UNL     1      33.824 -16.027 -25.007  0.00  0.00    +0.068 C 
ATOM      7  C   UNL     1      34.609 -15.918 -22.725  0.00  0.00    +0.039 C 
ENDROOT
BRANCH   2  10
ATOM      8  O   UNL     1      32.297 -12.024 -22.475  0.00  0.00    -0.252 OA
ATOM      9  N   UNL     1      33.420 -10.297 -23.590  0.00  0.00    -0.268 N 
ATOM     10  N   UNL     1      34.035 -12.491 -23.968  0.00  0.00    -0.266 N 
ATOM     11  C   UNL     1      33.160 -11.650 -23.262  0.00  0.00    +0.308 C 
ATOM     12  H   UNL     1      34.146 -10.147 -24.238  0.00  0.00    +0.156 HD
ATOM     13  H   UNL     1      34.677 -12.044 -24.565  0.00  0.00    +0.156 HD
BRANCH   9  15
ATOM     14 CL   UNL     1      30.721  -5.452 -21.546  0.00  0.00    -0.082 Cl
ATOM     15  C   UNL     1      32.785  -9.149 -23.116  0.00  0.00    +0.052 C 
ATOM     16  C   UNL     1      31.961  -6.908 -23.487  0.00  0.00    +0.083 C 
ATOM     17  C   UNL     1      32.597  -8.056 -23.962  0.00  0.00    +0.019 C 
ATOM     18  C   UNL     1      32.339  -9.094 -21.796  0.00  0.00    +0.016 C 
ATOM     19  C   UNL     1      31.514  -6.854 -22.168  0.00  0.00    +0.062 C 
ATOM     20  C   UNL     1      31.702  -7.947 -21.322  0.00  0.00    +0.013 C 
BRANCH  16  24
ATOM     21  F   UNL     1      32.187  -4.565 -23.913  0.00  0.00    -0.166 F 
ATOM     22  F   UNL     1      32.460  -5.902 -25.600  0.00  0.00    -0.166 F 
ATOM     23  F   UNL     1      30.471  -5.581 -24.779  0.00  0.00    -0.166 F 
ATOM     24  C   UNL     1      31.777  -5.760 -24.426  0.00  0.00    +0.419 C 
ENDBRANCH  16  24
ENDBRANCH   9  15
ENDBRANCH   2  10
BRANCH   3  25
ATOM     25  O   UNL     1      34.326 -18.028 -23.804  0.00  0.00    -0.453 OA
BRANCH  25  27
ATOM     26  N   UNL     1      35.819 -19.780 -20.344  0.00  0.00    -0.239 NA
ATOM     27  C   UNL     1      34.822 -18.611 -22.650  0.00  0.00    +0.149 C 
ATOM     28  C   UNL     1      33.991 -19.392 -21.878  0.00  0.00    +0.061 C 
ATOM     29  C   UNL     1      34.536 -19.955 -20.734  0.00  0.00    +0.137 C 
ATOM     30  C   UNL     1      36.139 -18.398 -22.302  0.00  0.00    +0.058 C 
ATOM     31  C   UNL     1      36.588 -19.003 -21.140  0.00  0.00    +0.102 C 
BRANCH  29  34
ATOM     32  O   UNL     1      32.505 -20.567 -19.737  0.00  0.00    -0.268 OA
ATOM     33  N   UNL     1      34.365 -21.853 -19.222  0.00  0.00    -0.298 N 
ATOM     34  C   UNL     1      33.722 -20.790 -19.869  0.00  0.00    +0.264 C 
ATOM     35  C   UNL     1      33.688 -22.785 -18.349  0.00  0.00    +0.111 C 
ATOM     36  H   UNL     1      35.331 -21.972 -19.369  0.00  0.00    +0.150 HD
ENDBRANCH  29  34
ENDBRANCH  25  27
ENDBRANCH   3  25
TORSDOF 6
ENDMDL
MODEL 9
REMARK VINA RESULT:     -12.2      2.654      3.676
REMARK  Name = 11167602
REMARK  6 active torsions:
REMARK  status: ('A' for Active; 'I' for Inactive)
REMARK    1  A    between atoms: C_2  and  N_10
REMARK    2  A    between atoms: C_3  and  O_25
REMARK    3  A    between atoms: N_9  and  C_15
REMARK    4  A    between atoms: C_16  and  C_24
REMARK    5  A    between atoms: O_25  and  C_27
REMARK    6  A    between atoms: C_29  and  C_34
REMARK                            x       y       z     vdW  Elec       q    Type
REMARK                         _______ _______ _______ _____ _____    ______ ____
ROOT
ATOM      1  F   UNL     1      36.979 -20.642 -19.995  0.00  0.00    -0.203 F 
ATOM      2  C   UNL     1      34.684 -20.226 -20.438  0.00  0.00    +0.079 C 
ATOM      3  C   UNL     1      34.017 -22.510 -19.020  0.00  0.00    +0.148 C 
ATOM      4  C   UNL     1      35.691 -20.989 -19.871  0.00  0.00    +0.157 C 
ATOM      5  C   UNL     1      33.350 -20.580 -20.310  0.00  0.00    +0.020 C 
ATOM      6  C   UNL     1      35.355 -22.139 -19.157  0.00  0.00    +0.068 C 
ATOM      7  C   UNL     1      33.015 -21.731 -19.597  0.00  0.00    +0.039 C 
ENDROOT
BRANCH   2  10
ATOM      8  O   UNL     1      33.064 -17.785 -21.021  0.00  0.00    -0.252 OA
ATOM      9  N   UNL     1      34.939 -16.984 -22.176  0.00  0.00    -0.268 N 
ATOM     10  N   UNL     1      35.020 -19.057 -21.162  0.00  0.00    -0.266 N 
ATOM     11  C   UNL     1      34.219 -17.932 -21.409  0.00  0.00    +0.308 C 
ATOM     12  H   UNL     1      35.859 -17.239 -22.415  0.00  0.00    +0.156 HD
ATOM     13  H   UNL     1      35.930 -19.031 -21.538  0.00  0.00    +0.156 HD
BRANCH   9  15
ATOM     14 CL   UNL     1      33.156 -11.683 -24.090  0.00  0.00    -0.082 Cl
ATOM     15  C   UNL     1      34.518 -15.736 -22.637  0.00  0.00    +0.052 C 
ATOM     16  C   UNL     1      33.695 -14.334 -24.423  0.00  0.00    +0.083 C 
ATOM     17  C   UNL     1      34.116 -15.582 -23.964  0.00  0.00    +0.019 C 
ATOM     18  C   UNL     1      34.498 -14.644 -21.770  0.00  0.00    +0.016 C 
ATOM     19  C   UNL     1      33.674 -13.242 -23.556  0.00  0.00    +0.062 C 
ATOM     20  C   UNL     1      34.076 -13.396 -22.230  0.00  0.00    +0.013 C 
BRANCH  16  24
ATOM     21  F   UNL     1      33.819 -13.139 -26.492  0.00  0.00    -0.166 F 
ATOM     22  F   UNL     1      33.602 -15.293 -26.613  0.00  0.00    -0.166 F 
ATOM     23  F   UNL     1      31.920 -14.067 -25.982  0.00  0.00    -0.166 F 
ATOM     24  C   UNL     1      33.270 -14.211 -25.851  0.00  0.00    +0.419 C 
ENDBRANCH  16  24
ENDBRANCH   9  15
ENDBRANCH   2  10
BRANCH   3  25
ATOM     25  O   UNL     1      33.689 -23.633 -18.323  0.00  0.00    -0.453 OA
BRANCH  25  27
ATOM     26  N   UNL     1      32.345 -23.157 -14.420  0.00  0.00    -0.239 NA
ATOM     27  C   UNL     1      33.242 -23.475 -17.023  0.00  0.00    +0.149 C 
ATOM     28  C   UNL     1      34.112 -23.698 -15.978  0.00  0.00    +0.061 C 
ATOM     29  C   UNL     1      33.616 -23.525 -14.696  0.00  0.00    +0.137 C 
ATOM     30  C   UNL     1      31.934 -23.098 -16.802  0.00  0.00    +0.058 C 
ATOM     31  C   UNL     1      31.535 -22.953 -15.484  0.00  0.00    +0.102 C 
BRANCH  29  34
ATOM     32  O   UNL     1      34.073 -24.413 -12.574  0.00  0.00    -0.268 OA
ATOM     33  N   UNL     1      35.757 -23.183 -13.590  0.00  0.00    -0.298 N 
ATOM     34  C   UNL     1      34.473 -23.741 -13.543  0.00  0.00    +0.264 C 
ATOM     35  C   UNL     1      36.732 -23.329 -12.534  0.00  0.00    +0.111 C 
ATOM     36  H   UNL     1      36.008 -22.662 -14.386  0.00  0.00    +0.150 HD
ENDBRANCH  29  34
ENDBRANCH  25  27
ENDBRANCH   3  25
TORSDOF 6
ENDMDL
