MODEL 1
REMARK VINA RESULT:     -11.1      0.000      0.000
REMARK  Name = 9811834
REMARK  13 active torsions:
REMARK  status: ('A' for Active; 'I' for Inactive)
REMARK    1  A    between atoms: C_1  and  N_3
REMARK    2  A    between atoms: C_1  and  C_12
REMARK    3  A    between atoms: C_1  and  C_20
REMARK    4  A    between atoms: C_4  and  C_6
REMARK    5  A    between atoms: C_6  and  C_7
REMARK    6  A    between atoms: C_7  and  C_9
REMARK    7  A    between atoms: C_9  and  O_10
REMARK    8  A    between atoms: C_12  and  C_13
REMARK    9  A    between atoms: C_13  and  C_16
REMARK   10  A    between atoms: C_16  and  O_17
REMARK   11  A    between atoms: O_17  and  C_18
REMARK   12  A    between atoms: C_20  and  C_21
REMARK   13  A    between atoms: C_24  and  C_27
REMARK                            x       y       z     vdW  Elec       q    Type
REMARK                         _______ _______ _______ _____ _____    ______ ____
ROOT
ATOM      1  C   UNL     1      33.755 -22.918 -16.631  0.00  0.00    +0.076 C 
ENDROOT
BRANCH   1   3
ATOM      2  O   UNL     1      30.976 -22.322 -17.174  0.00  0.00    -0.275 OA
ATOM      3  N   UNL     1      32.594 -23.597 -16.100  0.00  0.00    -0.306 N 
ATOM      4  C   UNL     1      31.295 -23.238 -16.421  0.00  0.00    +0.223 C 
ATOM      5  H   UNL     1      32.734 -24.351 -15.481  0.00  0.00    +0.149 HD
BRANCH   4   6
ATOM      6  C   UNL     1      30.282 -24.123 -15.716  0.00  0.00    +0.097 C 
BRANCH   6   7
ATOM      7  C   UNL     1      28.936 -23.431 -15.525  0.00  0.00    +0.119 C 
BRANCH   7   9
ATOM      8  O   UNL     1      27.734 -24.212 -17.493  0.00  0.00    -0.250 OA
ATOM      9  C   UNL     1      28.185 -23.289 -16.829  0.00  0.00    +0.314 C 
BRANCH   9  10
ATOM     10  O   UNL     1      28.058 -21.985 -17.189  0.00  0.00    -0.480 OA
ATOM     11  H   UNL     1      28.659 -21.347 -16.856  0.00  0.00    +0.295 HD
ENDBRANCH   9  10
ENDBRANCH   7   9
ENDBRANCH   6   7
ENDBRANCH   4   6
ENDBRANCH   1   3
BRANCH   1  12
ATOM     12  C   UNL     1      34.998 -23.210 -15.768  0.00  0.00    +0.031 C 
BRANCH  12  13
ATOM     13  C   UNL     1      34.838 -24.412 -14.821  0.00  0.00    +0.101 C 
ATOM     14  C   UNL     1      35.879 -25.489 -15.124  0.00  0.00    +0.012 C 
BRANCH  13  16
ATOM     15  O   UNL     1      34.256 -24.328 -12.464  0.00  0.00    -0.250 OA
ATOM     16  C   UNL     1      34.993 -23.975 -13.375  0.00  0.00    +0.316 C 
BRANCH  16  17
ATOM     17  O   UNL     1      36.078 -23.155 -13.255  0.00  0.00    -0.449 OA
BRANCH  17  18
ATOM     18  C   UNL     1      36.731 -23.179 -11.982  0.00  0.00    +0.209 C 
ATOM     19  C   UNL     1      37.894 -24.145 -12.043  0.00  0.00    +0.051 C 
ENDBRANCH  17  18
ENDBRANCH  16  17
ENDBRANCH  13  16
ENDBRANCH  12  13
ENDBRANCH   1  12
BRANCH   1  20
ATOM     20  C   UNL     1      34.010 -23.340 -18.089  0.00  0.00    +0.046 C 
BRANCH  20  21
ATOM     21  C   UNL     1      34.205 -22.166 -19.019  0.00  0.00    -0.021 C 
ATOM     22  C   UNL     1      33.097 -21.472 -19.507  0.00  0.00    -0.004 C 
ATOM     23  C   UNL     1      35.491 -21.775 -19.389  0.00  0.00    -0.004 C 
ATOM     24  C   UNL     1      34.563 -19.997 -20.737  0.00  0.00    -0.000 C 
ATOM     25  C   UNL     1      33.277 -20.388 -20.367  0.00  0.00    -0.000 C 
ATOM     26  C   UNL     1      35.670 -20.691 -20.249  0.00  0.00    -0.000 C 
BRANCH  24  27
ATOM     27  C   UNL     1      34.749 -18.873 -21.629  0.00  0.00    -0.000 C 
ATOM     28  C   UNL     1      34.918 -19.090 -22.997  0.00  0.00    -0.000 C 
ATOM     29  C   UNL     1      34.759 -17.574 -21.122  0.00  0.00    -0.000 C 
ATOM     30  C   UNL     1      35.097 -18.007 -23.857  0.00  0.00    +0.000 C 
ATOM     31  C   UNL     1      34.938 -16.491 -21.982  0.00  0.00    +0.000 C 
ATOM     32  C   UNL     1      35.107 -16.708 -23.350  0.00  0.00    +0.000 C 
ENDBRANCH  24  27
ENDBRANCH  20  21
ENDBRANCH   1  20
TORSDOF 13
ENDMDL
MODEL 2
REMARK VINA RESULT:     -11.0      1.247      1.914
REMARK  Name = 9811834
REMARK  13 active torsions:
REMARK  status: ('A' for Active; 'I' for Inactive)
REMARK    1  A    between atoms: C_1  and  N_3
REMARK    2  A    between atoms: C_1  and  C_12
REMARK    3  A    between atoms: C_1  and  C_20
REMARK    4  A    between atoms: C_4  and  C_6
REMARK    5  A    between atoms: C_6  and  C_7
REMARK    6  A    between atoms: C_7  and  C_9
REMARK    7  A    between atoms: C_9  and  O_10
REMARK    8  A    between atoms: C_12  and  C_13
REMARK    9  A    between atoms: C_13  and  C_16
REMARK   10  A    between atoms: C_16  and  O_17
REMARK   11  A    between atoms: O_17  and  C_18
REMARK   12  A    between atoms: C_20  and  C_21
REMARK   13  A    between atoms: C_24  and  C_27
REMARK                            x       y       z     vdW  Elec       q    Type
REMARK                         _______ _______ _______ _____ _____    ______ ____
ROOT
ATOM      1  C   UNL     1      33.259 -23.006 -16.569  0.00  0.00    +0.076 C 
ENDROOT
BRANCH   1   3
ATOM      2  O   UNL     1      31.367 -22.335 -14.485  0.00  0.00    -0.275 OA
ATOM      3  N   UNL     1      31.873 -23.406 -16.484  0.00  0.00    -0.306 N 
ATOM      4  C   UNL     1      31.040 -23.033 -15.441  0.00  0.00    +0.223 C 
ATOM      5  H   UNL     1      31.503 -23.972 -17.201  0.00  0.00    +0.149 HD
BRANCH   4   6
ATOM      6  C   UNL     1      29.642 -23.601 -15.615  0.00  0.00    +0.097 C 
BRANCH   6   7
ATOM      7  C   UNL     1      28.580 -22.511 -15.725  0.00  0.00    +0.119 C 
BRANCH   7   9
ATOM      8  O   UNL     1      27.654 -23.661 -17.661  0.00  0.00    -0.250 OA
ATOM      9  C   UNL     1      27.764 -22.643 -16.991  0.00  0.00    +0.314 C 
BRANCH   9  10
ATOM     10  O   UNL     1      27.147 -21.475 -17.307  0.00  0.00    -0.480 OA
ATOM     11  H   UNL     1      26.214 -21.405 -17.241  0.00  0.00    +0.295 HD
ENDBRANCH   9  10
ENDBRANCH   7   9
ENDBRANCH   6   7
ENDBRANCH   4   6
ENDBRANCH   1   3
BRANCH   1  12
ATOM     12  C   UNL     1      34.070 -23.606 -15.405  0.00  0.00    +0.031 C 
BRANCH  12  13
ATOM     13  C   UNL     1      35.528 -23.945 -15.762  0.00  0.00    +0.101 C 
ATOM     14  C   UNL     1      36.471 -22.820 -15.335  0.00  0.00    +0.012 C 
BRANCH  13  16
ATOM     15  O   UNL     1      35.944 -26.334 -15.609  0.00  0.00    -0.250 OA
ATOM     16  C   UNL     1      35.958 -25.231 -15.078  0.00  0.00    +0.316 C 
BRANCH  16  17
ATOM     17  O   UNL     1      36.371 -24.960 -13.806  0.00  0.00    -0.449 OA
BRANCH  17  18
ATOM     18  C   UNL     1      37.130 -25.994 -13.171  0.00  0.00    +0.209 C 
ATOM     19  C   UNL     1      38.592 -25.601 -13.170  0.00  0.00    +0.051 C 
ENDBRANCH  17  18
ENDBRANCH  16  17
ENDBRANCH  13  16
ENDBRANCH  12  13
ENDBRANCH   1  12
BRANCH   1  20
ATOM     20  C   UNL     1      33.866 -23.437 -17.917  0.00  0.00    +0.046 C 
BRANCH  20  21
ATOM     21  C   UNL     1      34.085 -22.281 -18.864  0.00  0.00    -0.021 C 
ATOM     22  C   UNL     1      35.378 -21.946 -19.268  0.00  0.00    -0.004 C 
ATOM     23  C   UNL     1      32.996 -21.548 -19.334  0.00  0.00    -0.004 C 
ATOM     24  C   UNL     1      34.491 -20.145 -20.612  0.00  0.00    -0.000 C 
ATOM     25  C   UNL     1      35.580 -20.878 -20.142  0.00  0.00    -0.000 C 
ATOM     26  C   UNL     1      33.198 -20.480 -20.208  0.00  0.00    -0.000 C 
BRANCH  24  27
ATOM     27  C   UNL     1      34.701 -19.037 -21.518  0.00  0.00    -0.000 C 
ATOM     28  C   UNL     1      34.762 -17.734 -21.023  0.00  0.00    -0.000 C 
ATOM     29  C   UNL     1      34.843 -19.271 -22.886  0.00  0.00    -0.000 C 
ATOM     30  C   UNL     1      34.965 -16.665 -21.896  0.00  0.00    +0.000 C 
ATOM     31  C   UNL     1      35.046 -18.202 -23.759  0.00  0.00    +0.000 C 
ATOM     32  C   UNL     1      35.107 -16.899 -23.264  0.00  0.00    +0.000 C 
ENDBRANCH  24  27
ENDBRANCH  20  21
ENDBRANCH   1  20
TORSDOF 13
ENDMDL
MODEL 3
REMARK VINA RESULT:     -10.6      1.576      2.698
REMARK  Name = 9811834
REMARK  13 active torsions:
REMARK  status: ('A' for Active; 'I' for Inactive)
REMARK    1  A    between atoms: C_1  and  N_3
REMARK    2  A    between atoms: C_1  and  C_12
REMARK    3  A    between atoms: C_1  and  C_20
REMARK    4  A    between atoms: C_4  and  C_6
REMARK    5  A    between atoms: C_6  and  C_7
REMARK    6  A    between atoms: C_7  and  C_9
REMARK    7  A    between atoms: C_9  and  O_10
REMARK    8  A    between atoms: C_12  and  C_13
REMARK    9  A    between atoms: C_13  and  C_16
REMARK   10  A    between atoms: C_16  and  O_17
REMARK   11  A    between atoms: O_17  and  C_18
REMARK   12  A    between atoms: C_20  and  C_21
REMARK   13  A    between atoms: C_24  and  C_27
REMARK                            x       y       z     vdW  Elec       q    Type
REMARK                         _______ _______ _______ _____ _____    ______ ____
ROOT
ATOM      1  C   UNL     1      33.814 -22.775 -16.453  0.00  0.00    +0.076 C 
ENDROOT
BRANCH   1   3
ATOM      2  O   UNL     1      31.012 -22.444 -17.096  0.00  0.00    -0.275 OA
ATOM      3  N   UNL     1      32.709 -23.586 -15.993  0.00  0.00    -0.306 N 
ATOM      4  C   UNL     1      31.393 -23.349 -16.357  0.00  0.00    +0.223 C 
ATOM      5  H   UNL     1      32.900 -24.342 -15.392  0.00  0.00    +0.149 HD
BRANCH   4   6
ATOM      6  C   UNL     1      30.449 -24.355 -15.723  0.00  0.00    +0.097 C 
BRANCH   6   7
ATOM      7  C   UNL     1      30.200 -24.069 -14.245  0.00  0.00    +0.119 C 
BRANCH   7   9
ATOM      8  O   UNL     1      32.070 -25.226 -13.200  0.00  0.00    -0.250 OA
ATOM      9  C   UNL     1      31.465 -24.187 -13.426  0.00  0.00    +0.314 C 
BRANCH   9  10
ATOM     10  O   UNL     1      31.868 -22.976 -12.960  0.00  0.00    -0.480 OA
ATOM     11  H   UNL     1      31.475 -22.192 -13.291  0.00  0.00    +0.295 HD
ENDBRANCH   9  10
ENDBRANCH   7   9
ENDBRANCH   6   7
ENDBRANCH   4   6
ENDBRANCH   1   3
BRANCH   1  12
ATOM     12  C   UNL     1      34.972 -22.807 -15.436  0.00  0.00    +0.031 C 
BRANCH  12  13
ATOM     13  C   UNL     1      36.323 -23.233 -16.036  0.00  0.00    +0.101 C 
ATOM     14  C   UNL     1      37.326 -22.080 -15.996  0.00  0.00    +0.012 C 
BRANCH  13  16
ATOM     15  O   UNL     1      36.452 -25.547 -15.307  0.00  0.00    -0.250 OA
ATOM     16  C   UNL     1      36.900 -24.409 -15.266  0.00  0.00    +0.316 C 
BRANCH  16  17
ATOM     17  O   UNL     1      37.987 -24.001 -14.548  0.00  0.00    -0.449 OA
BRANCH  17  18
ATOM     18  C   UNL     1      38.754 -25.047 -13.944  0.00  0.00    +0.209 C 
ATOM     19  C   UNL     1      39.968 -25.328 -14.804  0.00  0.00    +0.051 C 
ENDBRANCH  17  18
ENDBRANCH  16  17
ENDBRANCH  13  16
ENDBRANCH  12  13
ENDBRANCH   1  12
BRANCH   1  20
ATOM     20  C   UNL     1      34.303 -23.257 -17.831  0.00  0.00    +0.046 C 
BRANCH  20  21
ATOM     21  C   UNL     1      34.430 -22.139 -18.838  0.00  0.00    -0.021 C 
ATOM     22  C   UNL     1      35.691 -21.736 -19.277  0.00  0.00    -0.004 C 
ATOM     23  C   UNL     1      33.286 -21.511 -19.330  0.00  0.00    -0.004 C 
ATOM     24  C   UNL     1      34.665 -20.074 -20.699  0.00  0.00    -0.000 C 
ATOM     25  C   UNL     1      35.808 -20.703 -20.207  0.00  0.00    -0.000 C 
ATOM     26  C   UNL     1      33.403 -20.478 -20.260  0.00  0.00    -0.000 C 
BRANCH  24  27
ATOM     27  C   UNL     1      34.786 -19.002 -21.663  0.00  0.00    -0.000 C 
ATOM     28  C   UNL     1      34.849 -17.678 -21.228  0.00  0.00    -0.000 C 
ATOM     29  C   UNL     1      34.842 -19.292 -23.026  0.00  0.00    -0.000 C 
ATOM     30  C   UNL     1      34.966 -16.644 -22.157  0.00  0.00    +0.000 C 
ATOM     31  C   UNL     1      34.959 -18.259 -23.954  0.00  0.00    +0.000 C 
ATOM     32  C   UNL     1      35.022 -16.935 -23.520  0.00  0.00    +0.000 C 
ENDBRANCH  24  27
ENDBRANCH  20  21
ENDBRANCH   1  20
TORSDOF 13
ENDMDL
MODEL 4
REMARK VINA RESULT:     -10.0      6.897     11.801
REMARK  Name = 9811834
REMARK  13 active torsions:
REMARK  status: ('A' for Active; 'I' for Inactive)
REMARK    1  A    between atoms: C_1  and  N_3
REMARK    2  A    between atoms: C_1  and  C_12
REMARK    3  A    between atoms: C_1  and  C_20
REMARK    4  A    between atoms: C_4  and  C_6
REMARK    5  A    between atoms: C_6  and  C_7
REMARK    6  A    between atoms: C_7  and  C_9
REMARK    7  A    between atoms: C_9  and  O_10
REMARK    8  A    between atoms: C_12  and  C_13
REMARK    9  A    between atoms: C_13  and  C_16
REMARK   10  A    between atoms: C_16  and  O_17
REMARK   11  A    between atoms: O_17  and  C_18
REMARK   12  A    between atoms: C_20  and  C_21
REMARK   13  A    between atoms: C_24  and  C_27
REMARK                            x       y       z     vdW  Elec       q    Type
REMARK                         _______ _______ _______ _____ _____    ______ ____
ROOT
ATOM      1  C   UNL     1      34.059 -13.904 -23.087  0.00  0.00    +0.076 C 
ENDROOT
BRANCH   1   3
ATOM      2  O   UNL     1      33.256 -13.350 -25.811  0.00  0.00    -0.275 OA
ATOM      3  N   UNL     1      34.259 -12.678 -23.826  0.00  0.00    -0.306 N 
ATOM      4  C   UNL     1      33.837 -12.505 -25.135  0.00  0.00    +0.223 C 
ATOM      5  H   UNL     1      34.718 -11.929 -23.378  0.00  0.00    +0.149 HD
BRANCH   4   6
ATOM      6  C   UNL     1      34.184 -11.121 -25.654  0.00  0.00    +0.097 C 
BRANCH   6   7
ATOM      7  C   UNL     1      35.176 -10.393 -24.753  0.00  0.00    +0.119 C 
BRANCH   7   9
ATOM      8  O   UNL     1      35.049  -8.244 -23.616  0.00  0.00    -0.250 OA
ATOM      9  C   UNL     1      34.514  -9.289 -23.960  0.00  0.00    +0.314 C 
BRANCH   9  10
ATOM     10  O   UNL     1      33.223  -9.594 -23.669  0.00  0.00    -0.480 OA
ATOM     11  H   UNL     1      32.942  -9.637 -22.776  0.00  0.00    +0.295 HD
ENDBRANCH   9  10
ENDBRANCH   7   9
ENDBRANCH   6   7
ENDBRANCH   4   6
ENDBRANCH   1   3
BRANCH   1  12
ATOM     12  C   UNL     1      32.555 -14.187 -22.903  0.00  0.00    +0.031 C 
BRANCH  12  13
ATOM     13  C   UNL     1      32.000 -13.775 -21.529  0.00  0.00    +0.101 C 
ATOM     14  C   UNL     1      32.939 -14.214 -20.406  0.00  0.00    +0.012 C 
BRANCH  13  16
ATOM     15  O   UNL     1      31.649 -11.546 -22.431  0.00  0.00    -0.250 OA
ATOM     16  C   UNL     1      31.824 -12.268 -21.457  0.00  0.00    +0.316 C 
BRANCH  16  17
ATOM     17  O   UNL     1      31.874 -11.859 -20.156  0.00  0.00    -0.449 OA
BRANCH  17  18
ATOM     18  C   UNL     1      30.986 -10.791 -19.811  0.00  0.00    +0.209 C 
ATOM     19  C   UNL     1      31.802  -9.567 -19.454  0.00  0.00    +0.051 C 
ENDBRANCH  17  18
ENDBRANCH  16  17
ENDBRANCH  13  16
ENDBRANCH  12  13
ENDBRANCH   1  12
BRANCH   1  20
ATOM     20  C   UNL     1      34.738 -15.085 -23.802  0.00  0.00    +0.046 C 
BRANCH  20  21
ATOM     21  C   UNL     1      34.742 -16.352 -22.980  0.00  0.00    -0.021 C 
ATOM     22  C   UNL     1      34.956 -16.288 -21.603  0.00  0.00    -0.004 C 
ATOM     23  C   UNL     1      34.532 -17.585 -23.596  0.00  0.00    -0.004 C 
ATOM     24  C   UNL     1      34.750 -18.691 -21.459  0.00  0.00    -0.000 C 
ATOM     25  C   UNL     1      34.960 -17.458 -20.843  0.00  0.00    -0.000 C 
ATOM     26  C   UNL     1      34.536 -18.755 -22.837  0.00  0.00    -0.000 C 
BRANCH  24  27
ATOM     27  C   UNL     1      34.755 -19.904 -20.672  0.00  0.00    -0.000 C 
ATOM     28  C   UNL     1      33.549 -20.484 -20.278  0.00  0.00    -0.000 C 
ATOM     29  C   UNL     1      35.965 -20.495 -20.307  0.00  0.00    -0.000 C 
ATOM     30  C   UNL     1      33.552 -21.654 -19.518  0.00  0.00    +0.000 C 
ATOM     31  C   UNL     1      35.968 -21.665 -19.548  0.00  0.00    +0.000 C 
ATOM     32  C   UNL     1      34.762 -22.245 -19.154  0.00  0.00    +0.000 C 
ENDBRANCH  24  27
ENDBRANCH  20  21
ENDBRANCH   1  20
TORSDOF 13
ENDMDL
MODEL 5
REMARK VINA RESULT:      -9.9      7.391     12.472
REMARK  Name = 9811834
REMARK  13 active torsions:
REMARK  status: ('A' for Active; 'I' for Inactive)
REMARK    1  A    between atoms: C_1  and  N_3
REMARK    2  A    between atoms: C_1  and  C_12
REMARK    3  A    between atoms: C_1  and  C_20
REMARK    4  A    between atoms: C_4  and  C_6
REMARK    5  A    between atoms: C_6  and  C_7
REMARK    6  A    between atoms: C_7  and  C_9
REMARK    7  A    between atoms: C_9  and  O_10
REMARK    8  A    between atoms: C_12  and  C_13
REMARK    9  A    between atoms: C_13  and  C_16
REMARK   10  A    between atoms: C_16  and  O_17
REMARK   11  A    between atoms: O_17  and  C_18
REMARK   12  A    between atoms: C_20  and  C_21
REMARK   13  A    between atoms: C_24  and  C_27
REMARK                            x       y       z     vdW  Elec       q    Type
REMARK                         _______ _______ _______ _____ _____    ______ ____
ROOT
ATOM      1  C   UNL     1      32.789 -13.295 -23.091  0.00  0.00    +0.076 C 
ENDROOT
BRANCH   1   3
ATOM      2  O   UNL     1      31.003 -11.845 -21.336  0.00  0.00    -0.275 OA
ATOM      3  N   UNL     1      32.736 -11.866 -22.884  0.00  0.00    -0.306 N 
ATOM      4  C   UNL     1      31.840 -11.259 -22.017  0.00  0.00    +0.223 C 
ATOM      5  H   UNL     1      33.366 -11.295 -23.382  0.00  0.00    +0.149 HD
BRANCH   4   6
ATOM      6  C   UNL     1      32.012  -9.751 -22.005  0.00  0.00    +0.097 C 
BRANCH   6   7
ATOM      7  C   UNL     1      32.057  -9.181 -20.590  0.00  0.00    +0.119 C 
BRANCH   7   9
ATOM      8  O   UNL     1      32.035  -6.882 -21.392  0.00  0.00    -0.250 OA
ATOM      9  C   UNL     1      32.423  -7.714 -20.583  0.00  0.00    +0.314 C 
BRANCH   9  10
ATOM     10  O   UNL     1      33.249  -7.414 -19.548  0.00  0.00    -0.480 OA
ATOM     11  H   UNL     1      33.179  -6.585 -19.117  0.00  0.00    +0.295 HD
ENDBRANCH   9  10
ENDBRANCH   7   9
ENDBRANCH   6   7
ENDBRANCH   4   6
ENDBRANCH   1   3
BRANCH   1  12
ATOM     12  C   UNL     1      32.239 -13.663 -24.483  0.00  0.00    +0.031 C 
BRANCH  12  13
ATOM     13  C   UNL     1      33.325 -13.996 -25.521  0.00  0.00    +0.101 C 
ATOM     14  C   UNL     1      33.009 -15.308 -26.240  0.00  0.00    +0.012 C 
BRANCH  13  16
ATOM     15  O   UNL     1      33.392 -13.063 -27.763  0.00  0.00    -0.250 OA
ATOM     16  C   UNL     1      33.432 -12.886 -26.553  0.00  0.00    +0.316 C 
BRANCH  16  17
ATOM     17  O   UNL     1      33.560 -11.682 -25.923  0.00  0.00    -0.449 OA
BRANCH  17  18
ATOM     18  C   UNL     1      34.881 -11.131 -25.911  0.00  0.00    +0.209 C 
ATOM     19  C   UNL     1      34.960 -10.064 -24.840  0.00  0.00    +0.051 C 
ENDBRANCH  17  18
ENDBRANCH  16  17
ENDBRANCH  13  16
ENDBRANCH  12  13
ENDBRANCH   1  12
BRANCH   1  20
ATOM     20  C   UNL     1      34.231 -13.812 -22.937  0.00  0.00    +0.046 C 
BRANCH  20  21
ATOM     21  C   UNL     1      34.300 -15.217 -22.387  0.00  0.00    -0.021 C 
ATOM     22  C   UNL     1      33.717 -15.514 -21.155  0.00  0.00    -0.004 C 
ATOM     23  C   UNL     1      34.946 -16.219 -23.112  0.00  0.00    -0.004 C 
ATOM     24  C   UNL     1      34.427 -17.813 -21.371  0.00  0.00    -0.000 C 
ATOM     25  C   UNL     1      33.781 -16.811 -20.647  0.00  0.00    -0.000 C 
ATOM     26  C   UNL     1      35.010 -17.516 -22.604  0.00  0.00    -0.000 C 
BRANCH  24  27
ATOM     27  C   UNL     1      34.494 -19.158 -20.844  0.00  0.00    -0.000 C 
ATOM     28  C   UNL     1      35.733 -19.763 -20.635  0.00  0.00    -0.000 C 
ATOM     29  C   UNL     1      33.320 -19.850 -20.545  0.00  0.00    -0.000 C 
ATOM     30  C   UNL     1      35.799 -21.060 -20.127  0.00  0.00    +0.000 C 
ATOM     31  C   UNL     1      33.386 -21.147 -20.037  0.00  0.00    +0.000 C 
ATOM     32  C   UNL     1      34.625 -21.752 -19.827  0.00  0.00    +0.000 C 
ENDBRANCH  24  27
ENDBRANCH  20  21
ENDBRANCH   1  20
TORSDOF 13
ENDMDL
MODEL 6
REMARK VINA RESULT:      -9.6      7.404     12.390
REMARK  Name = 9811834
REMARK  13 active torsions:
REMARK  status: ('A' for Active; 'I' for Inactive)
REMARK    1  A    between atoms: C_1  and  N_3
REMARK    2  A    between atoms: C_1  and  C_12
REMARK    3  A    between atoms: C_1  and  C_20
REMARK    4  A    between atoms: C_4  and  C_6
REMARK    5  A    between atoms: C_6  and  C_7
REMARK    6  A    between atoms: C_7  and  C_9
REMARK    7  A    between atoms: C_9  and  O_10
REMARK    8  A    between atoms: C_12  and  C_13
REMARK    9  A    between atoms: C_13  and  C_16
REMARK   10  A    between atoms: C_16  and  O_17
REMARK   11  A    between atoms: O_17  and  C_18
REMARK   12  A    between atoms: C_20  and  C_21
REMARK   13  A    between atoms: C_24  and  C_27
REMARK                            x       y       z     vdW  Elec       q    Type
REMARK                         _______ _______ _______ _____ _____    ______ ____
ROOT
ATOM      1  C   UNL     1      32.977 -13.417 -23.368  0.00  0.00    +0.076 C 
ENDROOT
BRANCH   1   3
ATOM      2  O   UNL     1      30.828 -11.830 -22.255  0.00  0.00    -0.275 OA
ATOM      3  N   UNL     1      32.844 -12.958 -22.003  0.00  0.00    -0.306 N 
ATOM      4  C   UNL     1      31.773 -12.198 -21.561  0.00  0.00    +0.223 C 
ATOM      5  H   UNL     1      33.549 -13.195 -21.357  0.00  0.00    +0.149 HD
BRANCH   4   6
ATOM      6  C   UNL     1      31.901 -11.860 -20.086  0.00  0.00    +0.097 C 
BRANCH   6   7
ATOM      7  C   UNL     1      31.128 -10.600 -19.709  0.00  0.00    +0.119 C 
BRANCH   7   9
ATOM      8  O   UNL     1      32.662  -8.739 -19.381  0.00  0.00    -0.250 OA
ATOM      9  C   UNL     1      31.873  -9.343 -20.095  0.00  0.00    +0.314 C 
BRANCH   9  10
ATOM     10  O   UNL     1      31.564  -8.951 -21.358  0.00  0.00    -0.480 OA
ATOM     11  H   UNL     1      31.450  -8.041 -21.552  0.00  0.00    +0.295 HD
ENDBRANCH   9  10
ENDBRANCH   7   9
ENDBRANCH   6   7
ENDBRANCH   4   6
ENDBRANCH   1   3
BRANCH   1  12
ATOM     12  C   UNL     1      32.858 -12.237 -24.352  0.00  0.00    +0.031 C 
BRANCH  12  13
ATOM     13  C   UNL     1      34.075 -11.296 -24.356  0.00  0.00    +0.101 C 
ATOM     14  C   UNL     1      34.706 -11.224 -25.747  0.00  0.00    +0.012 C 
BRANCH  13  16
ATOM     15  O   UNL     1      32.507  -9.518 -23.827  0.00  0.00    -0.250 OA
ATOM     16  C   UNL     1      33.667  -9.896 -23.931  0.00  0.00    +0.316 C 
BRANCH  16  17
ATOM     17  O   UNL     1      34.779  -9.149 -23.673  0.00  0.00    -0.449 OA
BRANCH  17  18
ATOM     18  C   UNL     1      34.537  -7.782 -23.328  0.00  0.00    +0.209 C 
ATOM     19  C   UNL     1      34.607  -6.938 -24.583  0.00  0.00    +0.051 C 
ENDBRANCH  17  18
ENDBRANCH  16  17
ENDBRANCH  13  16
ENDBRANCH  12  13
ENDBRANCH   1  12
BRANCH   1  20
ATOM     20  C   UNL     1      34.321 -14.142 -23.567  0.00  0.00    +0.046 C 
BRANCH  20  21
ATOM     21  C   UNL     1      34.378 -15.482 -22.874  0.00  0.00    -0.021 C 
ATOM     22  C   UNL     1      34.636 -16.638 -23.611  0.00  0.00    -0.004 C 
ATOM     23  C   UNL     1      34.175 -15.565 -21.497  0.00  0.00    -0.004 C 
ATOM     24  C   UNL     1      34.485 -17.959 -21.594  0.00  0.00    -0.000 C 
ATOM     25  C   UNL     1      34.688 -17.876 -22.971  0.00  0.00    -0.000 C 
ATOM     26  C   UNL     1      34.227 -16.803 -20.857  0.00  0.00    -0.000 C 
BRANCH  24  27
ATOM     27  C   UNL     1      34.539 -19.243 -20.930  0.00  0.00    -0.000 C 
ATOM     28  C   UNL     1      33.359 -19.877 -20.542  0.00  0.00    -0.000 C 
ATOM     29  C   UNL     1      35.771 -19.848 -20.679  0.00  0.00    -0.000 C 
ATOM     30  C   UNL     1      33.410 -21.115 -19.903  0.00  0.00    +0.000 C 
ATOM     31  C   UNL     1      35.822 -21.086 -20.040  0.00  0.00    +0.000 C 
ATOM     32  C   UNL     1      34.642 -21.720 -19.652  0.00  0.00    +0.000 C 
ENDBRANCH  24  27
ENDBRANCH  20  21
ENDBRANCH   1  20
TORSDOF 13
ENDMDL
MODEL 7
REMARK VINA RESULT:      -9.5      1.386      5.355
REMARK  Name = 9811834
REMARK  13 active torsions:
REMARK  status: ('A' for Active; 'I' for Inactive)
REMARK    1  A    between atoms: C_1  and  N_3
REMARK    2  A    between atoms: C_1  and  C_12
REMARK    3  A    between atoms: C_1  and  C_20
REMARK    4  A    between atoms: C_4  and  C_6
REMARK    5  A    between atoms: C_6  and  C_7
REMARK    6  A    between atoms: C_7  and  C_9
REMARK    7  A    between atoms: C_9  and  O_10
REMARK    8  A    between atoms: C_12  and  C_13
REMARK    9  A    between atoms: C_13  and  C_16
REMARK   10  A    between atoms: C_16  and  O_17
REMARK   11  A    between atoms: O_17  and  C_18
REMARK   12  A    between atoms: C_20  and  C_21
REMARK   13  A    between atoms: C_24  and  C_27
REMARK                            x       y       z     vdW  Elec       q    Type
REMARK                         _______ _______ _______ _____ _____    ______ ____
ROOT
ATOM      1  C   UNL     1      33.662 -23.436 -17.377  0.00  0.00    +0.076 C 
ENDROOT
BRANCH   1   3
ATOM      2  O   UNL     1      35.421 -24.676 -15.443  0.00  0.00    -0.275 OA
ATOM      3  N   UNL     1      34.794 -22.832 -16.711  0.00  0.00    -0.306 N 
ATOM      4  C   UNL     1      35.582 -23.510 -15.794  0.00  0.00    +0.223 C 
ATOM      5  H   UNL     1      35.015 -21.895 -16.918  0.00  0.00    +0.149 HD
BRANCH   4   6
ATOM      6  C   UNL     1      36.694 -22.627 -15.256  0.00  0.00    +0.097 C 
BRANCH   6   7
ATOM      7  C   UNL     1      37.563 -23.346 -14.228  0.00  0.00    +0.119 C 
BRANCH   7   9
ATOM      8  O   UNL     1      37.905 -22.559 -11.950  0.00  0.00    -0.250 OA
ATOM      9  C   UNL     1      37.160 -23.006 -12.812  0.00  0.00    +0.314 C 
BRANCH   9  10
ATOM     10  O   UNL     1      35.842 -23.256 -12.598  0.00  0.00    -0.480 OA
ATOM     11  H   UNL     1      35.414 -22.899 -11.844  0.00  0.00    +0.295 HD
ENDBRANCH   9  10
ENDBRANCH   7   9
ENDBRANCH   6   7
ENDBRANCH   4   6
ENDBRANCH   1   3
BRANCH   1  12
ATOM     12  C   UNL     1      32.377 -22.630 -17.104  0.00  0.00    +0.031 C 
BRANCH  12  13
ATOM     13  C   UNL     1      31.492 -23.214 -15.990  0.00  0.00    +0.101 C 
ATOM     14  C   UNL     1      31.943 -22.716 -14.617  0.00  0.00    +0.012 C 
BRANCH  13  16
ATOM     15  O   UNL     1      29.628 -22.204 -17.175  0.00  0.00    -0.250 OA
ATOM     16  C   UNL     1      30.041 -22.820 -16.201  0.00  0.00    +0.316 C 
BRANCH  16  17
ATOM     17  O   UNL     1      29.284 -23.271 -15.159  0.00  0.00    -0.449 OA
BRANCH  17  18
ATOM     18  C   UNL     1      28.592 -24.502 -15.388  0.00  0.00    +0.209 C 
ATOM     19  C   UNL     1      29.317 -25.617 -14.666  0.00  0.00    +0.051 C 
ENDBRANCH  17  18
ENDBRANCH  16  17
ENDBRANCH  13  16
ENDBRANCH  12  13
ENDBRANCH   1  12
BRANCH   1  20
ATOM     20  C   UNL     1      33.915 -23.534 -18.893  0.00  0.00    +0.046 C 
BRANCH  20  21
ATOM     21  C   UNL     1      34.093 -22.187 -19.552  0.00  0.00    -0.021 C 
ATOM     22  C   UNL     1      35.374 -21.706 -19.821  0.00  0.00    -0.004 C 
ATOM     23  C   UNL     1      32.976 -21.424 -19.891  0.00  0.00    -0.004 C 
ATOM     24  C   UNL     1      34.423 -19.698 -20.768  0.00  0.00    -0.000 C 
ATOM     25  C   UNL     1      35.539 -20.462 -20.428  0.00  0.00    -0.000 C 
ATOM     26  C   UNL     1      33.141 -20.179 -20.499  0.00  0.00    -0.000 C 
BRANCH  24  27
ATOM     27  C   UNL     1      34.593 -18.407 -21.398  0.00  0.00    -0.000 C 
ATOM     28  C   UNL     1      34.964 -18.330 -22.741  0.00  0.00    -0.000 C 
ATOM     29  C   UNL     1      34.386 -17.239 -20.664  0.00  0.00    -0.000 C 
ATOM     30  C   UNL     1      35.128 -17.086 -23.349  0.00  0.00    +0.000 C 
ATOM     31  C   UNL     1      34.551 -15.995 -21.272  0.00  0.00    +0.000 C 
ATOM     32  C   UNL     1      34.921 -15.919 -22.615  0.00  0.00    +0.000 C 
ENDBRANCH  24  27
ENDBRANCH  20  21
ENDBRANCH   1  20
TORSDOF 13
ENDMDL
MODEL 8
REMARK VINA RESULT:      -9.5      7.611     12.712
REMARK  Name = 9811834
REMARK  13 active torsions:
REMARK  status: ('A' for Active; 'I' for Inactive)
REMARK    1  A    between atoms: C_1  and  N_3
REMARK    2  A    between atoms: C_1  and  C_12
REMARK    3  A    between atoms: C_1  and  C_20
REMARK    4  A    between atoms: C_4  and  C_6
REMARK    5  A    between atoms: C_6  and  C_7
REMARK    6  A    between atoms: C_7  and  C_9
REMARK    7  A    between atoms: C_9  and  O_10
REMARK    8  A    between atoms: C_12  and  C_13
REMARK    9  A    between atoms: C_13  and  C_16
REMARK   10  A    between atoms: C_16  and  O_17
REMARK   11  A    between atoms: O_17  and  C_18
REMARK   12  A    between atoms: C_20  and  C_21
REMARK   13  A    between atoms: C_24  and  C_27
REMARK                            x       y       z     vdW  Elec       q    Type
REMARK                         _______ _______ _______ _____ _____    ______ ____
ROOT
ATOM      1  C   UNL     1      33.179 -12.457 -23.780  0.00  0.00    +0.076 C 
ENDROOT
BRANCH   1   3
ATOM      2  O   UNL     1      32.563  -9.637 -23.984  0.00  0.00    -0.275 OA
ATOM      3  N   UNL     1      34.117 -11.363 -23.890  0.00  0.00    -0.306 N 
ATOM      4  C   UNL     1      33.725 -10.037 -23.983  0.00  0.00    +0.223 C 
ATOM      5  H   UNL     1      35.080 -11.569 -23.899  0.00  0.00    +0.149 HD
BRANCH   4   6
ATOM      6  C   UNL     1      34.922  -9.108 -24.089  0.00  0.00    +0.097 C 
BRANCH   6   7
ATOM      7  C   UNL     1      34.669  -7.755 -23.432  0.00  0.00    +0.119 C 
BRANCH   7   9
ATOM      8  O   UNL     1      34.571  -6.291 -25.375  0.00  0.00    -0.250 OA
ATOM      9  C   UNL     1      34.031  -6.773 -24.389  0.00  0.00    +0.314 C 
BRANCH   9  10
ATOM     10  O   UNL     1      32.755  -6.483 -24.024  0.00  0.00    -0.480 OA
ATOM     11  H   UNL     1      32.544  -5.631 -23.695  0.00  0.00    +0.295 HD
ENDBRANCH   9  10
ENDBRANCH   7   9
ENDBRANCH   6   7
ENDBRANCH   4   6
ENDBRANCH   1   3
BRANCH   1  12
ATOM     12  C   UNL     1      33.696 -13.694 -24.540  0.00  0.00    +0.031 C 
BRANCH  12  13
ATOM     13  C   UNL     1      32.861 -14.067 -25.777  0.00  0.00    +0.101 C 
ATOM     14  C   UNL     1      33.368 -13.333 -27.019  0.00  0.00    +0.012 C 
BRANCH  13  16
ATOM     15  O   UNL     1      32.403 -16.123 -26.987  0.00  0.00    -0.250 OA
ATOM     16  C   UNL     1      32.926 -15.563 -26.033  0.00  0.00    +0.316 C 
BRANCH  16  17
ATOM     17  O   UNL     1      33.662 -16.165 -25.054  0.00  0.00    -0.449 OA
BRANCH  17  18
ATOM     18  C   UNL     1      34.650 -17.094 -25.510  0.00  0.00    +0.209 C 
ATOM     19  C   UNL     1      34.541 -18.368 -24.699  0.00  0.00    +0.051 C 
ENDBRANCH  17  18
ENDBRANCH  16  17
ENDBRANCH  13  16
ENDBRANCH  12  13
ENDBRANCH   1  12
BRANCH   1  20
ATOM     20  C   UNL     1      32.928 -12.810 -22.302  0.00  0.00    +0.046 C 
BRANCH  20  21
ATOM     21  C   UNL     1      33.313 -14.228 -21.958  0.00  0.00    -0.021 C 
ATOM     22  C   UNL     1      32.358 -15.106 -21.445  0.00  0.00    -0.004 C 
ATOM     23  C   UNL     1      34.624 -14.662 -22.154  0.00  0.00    -0.004 C 
ATOM     24  C   UNL     1      34.025 -16.850 -21.322  0.00  0.00    -0.000 C 
ATOM     25  C   UNL     1      32.714 -16.416 -21.127  0.00  0.00    -0.000 C 
ATOM     26  C   UNL     1      34.980 -15.973 -21.836  0.00  0.00    -0.000 C 
BRANCH  24  27
ATOM     27  C   UNL     1      34.395 -18.209 -20.992  0.00  0.00    -0.000 C 
ATOM     28  C   UNL     1      35.741 -18.563 -20.904  0.00  0.00    -0.000 C 
ATOM     29  C   UNL     1      33.405 -19.165 -20.760  0.00  0.00    -0.000 C 
ATOM     30  C   UNL     1      36.098 -19.873 -20.585  0.00  0.00    +0.000 C 
ATOM     31  C   UNL     1      33.763 -20.475 -20.442  0.00  0.00    +0.000 C 
ATOM     32  C   UNL     1      35.109 -20.829 -20.353  0.00  0.00    +0.000 C 
ENDBRANCH  24  27
ENDBRANCH  20  21
ENDBRANCH   1  20
TORSDOF 13
ENDMDL
MODEL 9
REMARK VINA RESULT:      -9.4      7.227     11.781
REMARK  Name = 9811834
REMARK  13 active torsions:
REMARK  status: ('A' for Active; 'I' for Inactive)
REMARK    1  A    between atoms: C_1  and  N_3
REMARK    2  A    between atoms: C_1  and  C_12
REMARK    3  A    between atoms: C_1  and  C_20
REMARK    4  A    between atoms: C_4  and  C_6
REMARK    5  A    between atoms: C_6  and  C_7
REMARK    6  A    between atoms: C_7  and  C_9
REMARK    7  A    between atoms: C_9  and  O_10
REMARK    8  A    between atoms: C_12  and  C_13
REMARK    9  A    between atoms: C_13  and  C_16
REMARK   10  A    between atoms: C_16  and  O_17
REMARK   11  A    between atoms: O_17  and  C_18
REMARK   12  A    between atoms: C_20  and  C_21
REMARK   13  A    between atoms: C_24  and  C_27
REMARK                            x       y       z     vdW  Elec       q    Type
REMARK                         _______ _______ _______ _____ _____    ______ ____
ROOT
ATOM      1  C   UNL     1      32.408 -12.749 -22.780  0.00  0.00    +0.076 C 
ENDROOT
BRANCH   1   3
ATOM      2  O   UNL     1      30.704 -10.463 -22.290  0.00  0.00    -0.275 OA
ATOM      3  N   UNL     1      32.796 -11.357 -22.762  0.00  0.00    -0.306 N 
ATOM      4  C   UNL     1      31.904 -10.325 -22.516  0.00  0.00    +0.223 C 
ATOM      5  H   UNL     1      33.740 -11.130 -22.932  0.00  0.00    +0.149 HD
BRANCH   4   6
ATOM      6  C   UNL     1      32.590  -8.972 -22.562  0.00  0.00    +0.097 C 
BRANCH   6   7
ATOM      7  C   UNL     1      32.008  -7.989 -21.551  0.00  0.00    +0.119 C 
BRANCH   7   9
ATOM      8  O   UNL     1      32.176  -9.239 -19.469  0.00  0.00    -0.250 OA
ATOM      9  C   UNL     1      32.491  -8.271 -20.147  0.00  0.00    +0.314 C 
BRANCH   9  10
ATOM     10  O   UNL     1      33.341  -7.305 -19.711  0.00  0.00    -0.480 OA
ATOM     11  H   UNL     1      34.264  -7.465 -19.697  0.00  0.00    +0.295 HD
ENDBRANCH   9  10
ENDBRANCH   7   9
ENDBRANCH   6   7
ENDBRANCH   4   6
ENDBRANCH   1   3
BRANCH   1  12
ATOM     12  C   UNL     1      33.400 -13.579 -23.618  0.00  0.00    +0.031 C 
BRANCH  12  13
ATOM     13  C   UNL     1      32.921 -13.876 -25.049  0.00  0.00    +0.101 C 
ATOM     14  C   UNL     1      33.439 -12.823 -26.028  0.00  0.00    +0.012 C 
BRANCH  13  16
ATOM     15  O   UNL     1      33.427 -15.618 -26.665  0.00  0.00    -0.250 OA
ATOM     16  C   UNL     1      33.406 -15.243 -25.500  0.00  0.00    +0.316 C 
BRANCH  16  17
ATOM     17  O   UNL     1      33.822 -15.964 -24.418  0.00  0.00    -0.449 OA
BRANCH  17  18
ATOM     18  C   UNL     1      34.963 -16.799 -24.637  0.00  0.00    +0.209 C 
ATOM     19  C   UNL     1      34.543 -18.249 -24.515  0.00  0.00    +0.051 C 
ENDBRANCH  17  18
ENDBRANCH  16  17
ENDBRANCH  13  16
ENDBRANCH  12  13
ENDBRANCH   1  12
BRANCH   1  20
ATOM     20  C   UNL     1      32.327 -13.308 -21.347  0.00  0.00    +0.046 C 
BRANCH  20  21
ATOM     21  C   UNL     1      32.959 -14.672 -21.207  0.00  0.00    -0.021 C 
ATOM     22  C   UNL     1      32.155 -15.811 -21.153  0.00  0.00    -0.004 C 
ATOM     23  C   UNL     1      34.346 -14.794 -21.133  0.00  0.00    -0.004 C 
ATOM     24  C   UNL     1      34.126 -17.193 -20.948  0.00  0.00    -0.000 C 
ATOM     25  C   UNL     1      32.739 -17.071 -21.023  0.00  0.00    -0.000 C 
ATOM     26  C   UNL     1      34.930 -16.054 -21.002  0.00  0.00    -0.000 C 
BRANCH  24  27
ATOM     27  C   UNL     1      34.732 -18.500 -20.813  0.00  0.00    -0.000 C 
ATOM     28  C   UNL     1      36.118 -18.636 -20.888  0.00  0.00    -0.000 C 
ATOM     29  C   UNL     1      33.930 -19.622 -20.606  0.00  0.00    -0.000 C 
ATOM     30  C   UNL     1      36.702 -19.895 -20.758  0.00  0.00    +0.000 C 
ATOM     31  C   UNL     1      34.515 -20.881 -20.475  0.00  0.00    +0.000 C 
ATOM     32  C   UNL     1      35.901 -21.018 -20.551  0.00  0.00    +0.000 C 
ENDBRANCH  24  27
ENDBRANCH  20  21
ENDBRANCH   1  20
TORSDOF 13
ENDMDL
