MODEL 1
REMARK VINA RESULT:      -9.2      0.000      0.000
REMARK  Name = 5505
REMARK  5 active torsions:
REMARK  status: ('A' for Active; 'I' for Inactive)
REMARK    1  A    between atoms: S_1  and  C_4
REMARK    2  A    between atoms: S_1  and  N_13
REMARK    3  A    between atoms: N_12  and  C_17
REMARK    4  A    between atoms: C_17  and  C_18
REMARK    5  A    between atoms: C_18  and  C_19
REMARK                            x       y       z     vdW  Elec       q    Type
REMARK                         _______ _______ _______ _____ _____    ______ ____
ROOT
ATOM      1  S   UNL     1      34.019 -22.777 -18.680  0.00  0.00    +0.077 S 
ATOM      2  O   UNL     1      34.938 -22.711 -17.559  0.00  0.00    -0.150 OA
ATOM      3  O   UNL     1      34.030 -23.918 -19.573  0.00  0.00    -0.150 OA
ENDROOT
BRANCH   1   4
ATOM      4  C   UNL     1      34.270 -21.342 -19.681  0.00  0.00    +0.125 C 
ATOM      5  C   UNL     1      33.172 -20.624 -20.119  0.00  0.00    +0.020 C 
ATOM      6  C   UNL     1      35.561 -20.962 -20.008  0.00  0.00    +0.020 C 
ATOM      7  C   UNL     1      34.663 -19.095 -21.249  0.00  0.00    -0.022 C 
ATOM      8  C   UNL     1      33.369 -19.491 -20.910  0.00  0.00    -0.003 C 
ATOM      9  C   UNL     1      35.759 -19.830 -20.798  0.00  0.00    -0.003 C 
ATOM     10  C   UNL     1      34.874 -17.884 -22.093  0.00  0.00    +0.031 C 
ENDBRANCH   1   4
BRANCH   1  13
ATOM     11  O   UNL     1      32.549 -23.649 -16.086  0.00  0.00    -0.251 OA
ATOM     12  N   UNL     1      30.567 -22.625 -16.693  0.00  0.00    -0.288 N 
ATOM     13  N   UNL     1      32.425 -22.512 -18.123  0.00  0.00    -0.169 N 
ATOM     14  C   UNL     1      31.890 -22.991 -16.884  0.00  0.00    +0.319 C 
ATOM     15  H   UNL     1      30.122 -22.094 -17.393  0.00  0.00    +0.151 HD
ATOM     16  H   UNL     1      31.826 -21.987 -18.701  0.00  0.00    +0.178 HD
BRANCH  12  17
ATOM     17  C   UNL     1      29.813 -22.982 -15.523  0.00  0.00    +0.091 C 
BRANCH  17  18
ATOM     18  C   UNL     1      29.152 -24.350 -15.652  0.00  0.00    +0.021 C 
BRANCH  18  19
ATOM     19  C   UNL     1      29.815 -25.408 -14.768  0.00  0.00    +0.002 C 
ATOM     20  C   UNL     1      30.586 -24.771 -13.623  0.00  0.00    +0.000 C 
ENDBRANCH  18  19
ENDBRANCH  17  18
ENDBRANCH  12  17
ENDBRANCH   1  13
TORSDOF 5
ENDMDL
MODEL 2
REMARK VINA RESULT:      -9.0      0.838      1.843
REMARK  Name = 5505
REMARK  5 active torsions:
REMARK  status: ('A' for Active; 'I' for Inactive)
REMARK    1  A    between atoms: S_1  and  C_4
REMARK    2  A    between atoms: S_1  and  N_13
REMARK    3  A    between atoms: N_12  and  C_17
REMARK    4  A    between atoms: C_17  and  C_18
REMARK    5  A    between atoms: C_18  and  C_19
REMARK                            x       y       z     vdW  Elec       q    Type
REMARK                         _______ _______ _______ _____ _____    ______ ____
ROOT
ATOM      1  S   UNL     1      34.133 -22.678 -18.807  0.00  0.00    +0.077 S 
ATOM      2  O   UNL     1      35.108 -22.617 -17.735  0.00  0.00    -0.150 OA
ATOM      3  O   UNL     1      34.121 -23.799 -19.727  0.00  0.00    -0.150 OA
ENDROOT
BRANCH   1   4
ATOM      4  C   UNL     1      34.300 -21.216 -19.786  0.00  0.00    +0.125 C 
ATOM      5  C   UNL     1      35.564 -20.784 -20.144  0.00  0.00    +0.020 C 
ATOM      6  C   UNL     1      33.163 -20.531 -20.177  0.00  0.00    +0.020 C 
ATOM      7  C   UNL     1      34.562 -18.926 -21.319  0.00  0.00    -0.022 C 
ATOM      8  C   UNL     1      35.697 -19.629 -20.916  0.00  0.00    -0.003 C 
ATOM      9  C   UNL     1      33.294 -19.377 -20.950  0.00  0.00    -0.003 C 
ATOM     10  C   UNL     1      34.702 -17.692 -22.145  0.00  0.00    +0.031 C 
ENDBRANCH   1   4
BRANCH   1  13
ATOM     11  O   UNL     1      32.819 -23.649 -16.165  0.00  0.00    -0.251 OA
ATOM     12  N   UNL     1      30.787 -22.652 -16.641  0.00  0.00    -0.288 N 
ATOM     13  N   UNL     1      32.566 -22.462 -18.161  0.00  0.00    -0.169 N 
ATOM     14  C   UNL     1      32.105 -22.985 -16.910  0.00  0.00    +0.319 C 
ATOM     15  H   UNL     1      30.296 -22.114 -17.302  0.00  0.00    +0.151 HD
ATOM     16  H   UNL     1      31.926 -21.936 -18.694  0.00  0.00    +0.178 HD
BRANCH  12  17
ATOM     17  C   UNL     1      30.103 -23.055 -15.443  0.00  0.00    +0.091 C 
BRANCH  17  18
ATOM     18  C   UNL     1      28.915 -23.967 -15.731  0.00  0.00    +0.021 C 
BRANCH  18  19
ATOM     19  C   UNL     1      28.011 -23.421 -16.839  0.00  0.00    +0.002 C 
ATOM     20  C   UNL     1      27.188 -22.238 -16.352  0.00  0.00    +0.000 C 
ENDBRANCH  18  19
ENDBRANCH  17  18
ENDBRANCH  12  17
ENDBRANCH   1  13
TORSDOF 5
ENDMDL
MODEL 3
REMARK VINA RESULT:      -8.7      5.127      8.498
REMARK  Name = 5505
REMARK  5 active torsions:
REMARK  status: ('A' for Active; 'I' for Inactive)
REMARK    1  A    between atoms: S_1  and  C_4
REMARK    2  A    between atoms: S_1  and  N_13
REMARK    3  A    between atoms: N_12  and  C_17
REMARK    4  A    between atoms: C_17  and  C_18
REMARK    5  A    between atoms: C_18  and  C_19
REMARK                            x       y       z     vdW  Elec       q    Type
REMARK                         _______ _______ _______ _____ _____    ______ ____
ROOT
ATOM      1  S   UNL     1      35.369 -18.594 -22.376  0.00  0.00    +0.077 S 
ATOM      2  O   UNL     1      35.042 -19.091 -23.699  0.00  0.00    -0.150 OA
ATOM      3  O   UNL     1      36.744 -18.304 -22.019  0.00  0.00    -0.150 OA
ENDROOT
BRANCH   1   4
ATOM      4  C   UNL     1      34.766 -19.755 -21.188  0.00  0.00    +0.125 C 
ATOM      5  C   UNL     1      33.404 -19.841 -20.959  0.00  0.00    +0.020 C 
ATOM      6  C   UNL     1      35.666 -20.558 -20.509  0.00  0.00    +0.020 C 
ATOM      7  C   UNL     1      33.819 -21.574 -19.328  0.00  0.00    -0.022 C 
ATOM      8  C   UNL     1      32.926 -20.757 -20.022  0.00  0.00    -0.003 C 
ATOM      9  C   UNL     1      35.189 -21.475 -19.571  0.00  0.00    -0.003 C 
ATOM     10  C   UNL     1      33.310 -22.553 -18.326  0.00  0.00    +0.031 C 
ENDBRANCH   1   4
BRANCH   1  13
ATOM     11  O   UNL     1      35.318 -15.717 -23.547  0.00  0.00    -0.251 OA
ATOM     12  N   UNL     1      33.583 -15.036 -22.178  0.00  0.00    -0.288 N 
ATOM     13  N   UNL     1      34.397 -17.233 -22.026  0.00  0.00    -0.169 N 
ATOM     14  C   UNL     1      34.500 -15.955 -22.662  0.00  0.00    +0.319 C 
ATOM     15  H   UNL     1      32.966 -15.322 -21.465  0.00  0.00    +0.151 HD
ATOM     16  H   UNL     1      33.710 -17.336 -21.329  0.00  0.00    +0.178 HD
BRANCH  12  17
ATOM     17  C   UNL     1      33.487 -13.687 -22.664  0.00  0.00    +0.091 C 
BRANCH  17  18
ATOM     18  C   UNL     1      32.210 -12.993 -22.204  0.00  0.00    +0.021 C 
BRANCH  18  19
ATOM     19  C   UNL     1      32.120 -12.876 -20.681  0.00  0.00    +0.002 C 
ATOM     20  C   UNL     1      31.471 -11.565 -20.263  0.00  0.00    +0.000 C 
ENDBRANCH  18  19
ENDBRANCH  17  18
ENDBRANCH  12  17
ENDBRANCH   1  13
TORSDOF 5
ENDMDL
MODEL 4
REMARK VINA RESULT:      -8.6      4.790      8.722
REMARK  Name = 5505
REMARK  5 active torsions:
REMARK  status: ('A' for Active; 'I' for Inactive)
REMARK    1  A    between atoms: S_1  and  C_4
REMARK    2  A    between atoms: S_1  and  N_13
REMARK    3  A    between atoms: N_12  and  C_17
REMARK    4  A    between atoms: C_17  and  C_18
REMARK    5  A    between atoms: C_18  and  C_19
REMARK                            x       y       z     vdW  Elec       q    Type
REMARK                         _______ _______ _______ _____ _____    ______ ____
ROOT
ATOM      1  S   UNL     1      35.414 -18.771 -22.118  0.00  0.00    +0.077 S 
ATOM      2  O   UNL     1      35.070 -19.245 -23.445  0.00  0.00    -0.150 OA
ATOM      3  O   UNL     1      36.794 -18.495 -21.771  0.00  0.00    -0.150 OA
ENDROOT
BRANCH   1   4
ATOM      4  C   UNL     1      34.816 -19.947 -20.943  0.00  0.00    +0.125 C 
ATOM      5  C   UNL     1      33.462 -19.994 -20.663  0.00  0.00    +0.020 C 
ATOM      6  C   UNL     1      35.713 -20.801 -20.323  0.00  0.00    +0.020 C 
ATOM      7  C   UNL     1      33.879 -21.789 -19.101  0.00  0.00    -0.022 C 
ATOM      8  C   UNL     1      32.989 -20.922 -19.734  0.00  0.00    -0.003 C 
ATOM      9  C   UNL     1      35.241 -21.729 -19.395  0.00  0.00    -0.003 C 
ATOM     10  C   UNL     1      33.374 -22.782 -18.109  0.00  0.00    +0.031 C 
ENDBRANCH   1   4
BRANCH   1  13
ATOM     11  O   UNL     1      35.364 -15.877 -23.246  0.00  0.00    -0.251 OA
ATOM     12  N   UNL     1      33.649 -15.207 -21.845  0.00  0.00    -0.288 N 
ATOM     13  N   UNL     1      34.453 -17.410 -21.736  0.00  0.00    -0.169 N 
ATOM     14  C   UNL     1      34.556 -16.123 -22.355  0.00  0.00    +0.319 C 
ATOM     15  H   UNL     1      33.040 -15.500 -21.129  0.00  0.00    +0.151 HD
ATOM     16  H   UNL     1      33.774 -17.520 -21.032  0.00  0.00    +0.178 HD
BRANCH  12  17
ATOM     17  C   UNL     1      33.555 -13.851 -22.310  0.00  0.00    +0.091 C 
BRANCH  17  18
ATOM     18  C   UNL     1      32.595 -13.704 -23.486  0.00  0.00    +0.021 C 
BRANCH  18  19
ATOM     19  C   UNL     1      33.322 -13.491 -24.816  0.00  0.00    +0.002 C 
ATOM     20  C   UNL     1      32.951 -14.564 -25.829  0.00  0.00    +0.000 C 
ENDBRANCH  18  19
ENDBRANCH  17  18
ENDBRANCH  12  17
ENDBRANCH   1  13
TORSDOF 5
ENDMDL
MODEL 5
REMARK VINA RESULT:      -8.6      3.468      4.141
REMARK  Name = 5505
REMARK  5 active torsions:
REMARK  status: ('A' for Active; 'I' for Inactive)
REMARK    1  A    between atoms: S_1  and  C_4
REMARK    2  A    between atoms: S_1  and  N_13
REMARK    3  A    between atoms: N_12  and  C_17
REMARK    4  A    between atoms: C_17  and  C_18
REMARK    5  A    between atoms: C_18  and  C_19
REMARK                            x       y       z     vdW  Elec       q    Type
REMARK                         _______ _______ _______ _____ _____    ______ ____
ROOT
ATOM      1  S   UNL     1      33.835 -22.614 -18.729  0.00  0.00    +0.077 S 
ATOM      2  O   UNL     1      34.118 -23.800 -19.514  0.00  0.00    -0.150 OA
ATOM      3  O   UNL     1      32.538 -22.437 -18.107  0.00  0.00    -0.150 OA
ENDROOT
BRANCH   1   4
ATOM      4  C   UNL     1      34.109 -21.200 -19.752  0.00  0.00    +0.125 C 
ATOM      5  C   UNL     1      33.023 -20.471 -20.202  0.00  0.00    +0.020 C 
ATOM      6  C   UNL     1      35.406 -20.846 -20.084  0.00  0.00    +0.020 C 
ATOM      7  C   UNL     1      34.538 -18.983 -21.354  0.00  0.00    -0.022 C 
ATOM      8  C   UNL     1      33.238 -19.354 -21.010  0.00  0.00    -0.003 C 
ATOM      9  C   UNL     1      35.622 -19.729 -20.892  0.00  0.00    -0.003 C 
ATOM     10  C   UNL     1      34.769 -17.789 -22.217  0.00  0.00    +0.031 C 
ENDBRANCH   1   4
BRANCH   1  13
ATOM     11  O   UNL     1      34.578 -24.248 -16.193  0.00  0.00    -0.251 OA
ATOM     12  N   UNL     1      36.336 -22.852 -15.634  0.00  0.00    -0.288 N 
ATOM     13  N   UNL     1      35.057 -22.409 -17.552  0.00  0.00    -0.169 N 
ATOM     14  C   UNL     1      35.271 -23.260 -16.421  0.00  0.00    +0.319 C 
ATOM     15  H   UNL     1      36.833 -22.045 -15.901  0.00  0.00    +0.151 HD
ATOM     16  H   UNL     1      35.664 -21.641 -17.660  0.00  0.00    +0.178 HD
BRANCH  12  17
ATOM     17  C   UNL     1      36.750 -23.550 -14.448  0.00  0.00    +0.091 C 
BRANCH  17  18
ATOM     18  C   UNL     1      37.973 -24.429 -14.687  0.00  0.00    +0.021 C 
BRANCH  18  19
ATOM     19  C   UNL     1      37.775 -25.861 -14.186  0.00  0.00    +0.002 C 
ATOM     20  C   UNL     1      36.905 -26.666 -15.139  0.00  0.00    +0.000 C 
ENDBRANCH  18  19
ENDBRANCH  17  18
ENDBRANCH  12  17
ENDBRANCH   1  13
TORSDOF 5
ENDMDL
MODEL 6
REMARK VINA RESULT:      -8.4      3.534      4.295
REMARK  Name = 5505
REMARK  5 active torsions:
REMARK  status: ('A' for Active; 'I' for Inactive)
REMARK    1  A    between atoms: S_1  and  C_4
REMARK    2  A    between atoms: S_1  and  N_13
REMARK    3  A    between atoms: N_12  and  C_17
REMARK    4  A    between atoms: C_17  and  C_18
REMARK    5  A    between atoms: C_18  and  C_19
REMARK                            x       y       z     vdW  Elec       q    Type
REMARK                         _______ _______ _______ _____ _____    ______ ____
ROOT
ATOM      1  S   UNL     1      33.671 -22.750 -18.559  0.00  0.00    +0.077 S 
ATOM      2  O   UNL     1      33.928 -23.982 -19.280  0.00  0.00    -0.150 OA
ATOM      3  O   UNL     1      32.340 -22.446 -18.073  0.00  0.00    -0.150 OA
ENDROOT
BRANCH   1   4
ATOM      4  C   UNL     1      34.161 -21.399 -19.588  0.00  0.00    +0.125 C 
ATOM      5  C   UNL     1      35.508 -21.160 -19.793  0.00  0.00    +0.020 C 
ATOM      6  C   UNL     1      33.188 -20.606 -20.171  0.00  0.00    +0.020 C 
ATOM      7  C   UNL     1      34.928 -19.284 -21.201  0.00  0.00    -0.022 C 
ATOM      8  C   UNL     1      35.896 -20.094 -20.605  0.00  0.00    -0.003 C 
ATOM      9  C   UNL     1      33.574 -19.539 -20.984  0.00  0.00    -0.003 C 
ATOM     10  C   UNL     1      35.342 -18.144 -22.069  0.00  0.00    +0.031 C 
ENDBRANCH   1   4
BRANCH   1  13
ATOM     11  O   UNL     1      33.701 -23.925 -15.683  0.00  0.00    -0.251 OA
ATOM     12  N   UNL     1      35.713 -22.921 -15.139  0.00  0.00    -0.288 N 
ATOM     13  N   UNL     1      34.788 -22.602 -17.273  0.00  0.00    -0.169 N 
ATOM     14  C   UNL     1      34.655 -23.214 -15.986  0.00  0.00    +0.319 C 
ATOM     15  H   UNL     1      36.434 -22.339 -15.474  0.00  0.00    +0.151 HD
ATOM     16  H   UNL     1      35.588 -22.051 -17.431  0.00  0.00    +0.178 HD
BRANCH  12  17
ATOM     17  C   UNL     1      35.809 -23.424 -13.796  0.00  0.00    +0.091 C 
BRANCH  17  18
ATOM     18  C   UNL     1      37.254 -23.622 -13.352  0.00  0.00    +0.021 C 
BRANCH  18  19
ATOM     19  C   UNL     1      38.012 -24.610 -14.241  0.00  0.00    +0.002 C 
ATOM     20  C   UNL     1      38.994 -25.444 -13.432  0.00  0.00    +0.000 C 
ENDBRANCH  18  19
ENDBRANCH  17  18
ENDBRANCH  12  17
ENDBRANCH   1  13
TORSDOF 5
ENDMDL
MODEL 7
REMARK VINA RESULT:      -8.1      7.657     11.067
REMARK  Name = 5505
REMARK  5 active torsions:
REMARK  status: ('A' for Active; 'I' for Inactive)
REMARK    1  A    between atoms: S_1  and  C_4
REMARK    2  A    between atoms: S_1  and  N_13
REMARK    3  A    between atoms: N_12  and  C_17
REMARK    4  A    between atoms: C_17  and  C_18
REMARK    5  A    between atoms: C_18  and  C_19
REMARK                            x       y       z     vdW  Elec       q    Type
REMARK                         _______ _______ _______ _____ _____    ______ ____
ROOT
ATOM      1  S   UNL     1      34.023 -15.411 -21.481  0.00  0.00    +0.077 S 
ATOM      2  O   UNL     1      34.922 -15.493 -20.346  0.00  0.00    -0.150 OA
ATOM      3  O   UNL     1      32.590 -15.337 -21.280  0.00  0.00    -0.150 OA
ENDROOT
BRANCH   1   4
ATOM      4  C   UNL     1      34.323 -16.808 -22.521  0.00  0.00    +0.125 C 
ATOM      5  C   UNL     1      34.442 -18.062 -21.950  0.00  0.00    +0.020 C 
ATOM      6  C   UNL     1      34.432 -16.622 -23.889  0.00  0.00    +0.020 C 
ATOM      7  C   UNL     1      34.791 -18.996 -24.150  0.00  0.00    -0.022 C 
ATOM      8  C   UNL     1      34.678 -19.166 -22.771  0.00  0.00    -0.003 C 
ATOM      9  C   UNL     1      34.669 -17.724 -24.710  0.00  0.00    -0.003 C 
ATOM     10  C   UNL     1      35.044 -20.175 -25.028  0.00  0.00    +0.031 C 
ENDBRANCH   1   4
BRANCH   1  13
ATOM     11  O   UNL     1      32.417 -13.264 -23.050  0.00  0.00    -0.251 OA
ATOM     12  N   UNL     1      34.315 -12.279 -23.929  0.00  0.00    -0.288 N 
ATOM     13  N   UNL     1      34.516 -14.132 -22.502  0.00  0.00    -0.169 N 
ATOM     14  C   UNL     1      33.638 -13.215 -23.164  0.00  0.00    +0.319 C 
ATOM     15  H   UNL     1      35.299 -12.321 -23.958  0.00  0.00    +0.151 HD
ATOM     16  H   UNL     1      35.483 -14.016 -22.647  0.00  0.00    +0.178 HD
BRANCH  12  17
ATOM     17  C   UNL     1      33.653 -11.250 -24.683  0.00  0.00    +0.091 C 
BRANCH  17  18
ATOM     18  C   UNL     1      33.604  -9.922 -23.936  0.00  0.00    +0.021 C 
BRANCH  18  19
ATOM     19  C   UNL     1      34.844  -9.060 -24.188  0.00  0.00    +0.002 C 
ATOM     20  C   UNL     1      34.753  -7.730 -23.456  0.00  0.00    +0.000 C 
ENDBRANCH  18  19
ENDBRANCH  17  18
ENDBRANCH  12  17
ENDBRANCH   1  13
TORSDOF 5
ENDMDL
MODEL 8
REMARK VINA RESULT:      -8.0      3.125      7.387
REMARK  Name = 5505
REMARK  5 active torsions:
REMARK  status: ('A' for Active; 'I' for Inactive)
REMARK    1  A    between atoms: S_1  and  C_4
REMARK    2  A    between atoms: S_1  and  N_13
REMARK    3  A    between atoms: N_12  and  C_17
REMARK    4  A    between atoms: C_17  and  C_18
REMARK    5  A    between atoms: C_18  and  C_19
REMARK                            x       y       z     vdW  Elec       q    Type
REMARK                         _______ _______ _______ _____ _____    ______ ____
ROOT
ATOM      1  S   UNL     1      33.699 -22.689 -18.597  0.00  0.00    +0.077 S 
ATOM      2  O   UNL     1      32.346 -22.312 -18.234  0.00  0.00    -0.150 OA
ATOM      3  O   UNL     1      33.943 -23.875 -19.394  0.00  0.00    -0.150 OA
ENDROOT
BRANCH   1   4
ATOM      4  C   UNL     1      34.635 -22.871 -17.109  0.00  0.00    +0.125 C 
ATOM      5  C   UNL     1      35.933 -22.393 -17.065  0.00  0.00    +0.020 C 
ATOM      6  C   UNL     1      34.054 -23.489 -16.015  0.00  0.00    +0.020 C 
ATOM      7  C   UNL     1      36.103 -23.157 -14.779  0.00  0.00    -0.022 C 
ATOM      8  C   UNL     1      36.673 -22.537 -15.891  0.00  0.00    -0.003 C 
ATOM      9  C   UNL     1      34.793 -23.633 -14.841  0.00  0.00    -0.003 C 
ATOM     10  C   UNL     1      36.894 -23.310 -13.524  0.00  0.00    +0.031 C 
ENDBRANCH   1   4
BRANCH   1  13
ATOM     11  O   UNL     1      32.763 -20.614 -20.711  0.00  0.00    -0.251 OA
ATOM     12  N   UNL     1      34.780 -19.482 -20.702  0.00  0.00    -0.288 N 
ATOM     13  N   UNL     1      34.486 -21.354 -19.317  0.00  0.00    -0.169 N 
ATOM     14  C   UNL     1      33.910 -20.480 -20.294  0.00  0.00    +0.319 C 
ATOM     15  H   UNL     1      35.683 -19.457 -20.309  0.00  0.00    +0.151 HD
ATOM     16  H   UNL     1      35.412 -21.170 -19.037  0.00  0.00    +0.178 HD
BRANCH  12  17
ATOM     17  C   UNL     1      34.429 -18.480 -21.672  0.00  0.00    +0.091 C 
BRANCH  17  18
ATOM     18  C   UNL     1      34.899 -18.841 -23.077  0.00  0.00    +0.021 C 
BRANCH  18  19
ATOM     19  C   UNL     1      34.916 -17.635 -24.019  0.00  0.00    +0.002 C 
ATOM     20  C   UNL     1      35.069 -16.332 -23.249  0.00  0.00    +0.000 C 
ENDBRANCH  18  19
ENDBRANCH  17  18
ENDBRANCH  12  17
ENDBRANCH   1  13
TORSDOF 5
ENDMDL
MODEL 9
REMARK VINA RESULT:      -7.8      3.670      5.385
REMARK  Name = 5505
REMARK  5 active torsions:
REMARK  status: ('A' for Active; 'I' for Inactive)
REMARK    1  A    between atoms: S_1  and  C_4
REMARK    2  A    between atoms: S_1  and  N_13
REMARK    3  A    between atoms: N_12  and  C_17
REMARK    4  A    between atoms: C_17  and  C_18
REMARK    5  A    between atoms: C_18  and  C_19
REMARK                            x       y       z     vdW  Elec       q    Type
REMARK                         _______ _______ _______ _____ _____    ______ ____
ROOT
ATOM      1  S   UNL     1      35.620 -17.938 -21.513  0.00  0.00    +0.077 S 
ATOM      2  O   UNL     1      35.530 -17.018 -20.396  0.00  0.00    -0.150 OA
ATOM      3  O   UNL     1      36.907 -18.448 -21.944  0.00  0.00    -0.150 OA
ENDROOT
BRANCH   1   4
ATOM      4  C   UNL     1      34.879 -17.167 -22.921  0.00  0.00    +0.125 C 
ATOM      5  C   UNL     1      34.851 -17.846 -24.126  0.00  0.00    +0.020 C 
ATOM      6  C   UNL     1      34.339 -15.899 -22.792  0.00  0.00    +0.020 C 
ATOM      7  C   UNL     1      33.718 -15.961 -25.125  0.00  0.00    -0.022 C 
ATOM      8  C   UNL     1      34.267 -17.239 -25.237  0.00  0.00    -0.003 C 
ATOM      9  C   UNL     1      33.754 -15.291 -23.903  0.00  0.00    -0.003 C 
ATOM     10  C   UNL     1      33.092 -15.312 -26.313  0.00  0.00    +0.031 C 
ENDBRANCH   1   4
BRANCH   1  13
ATOM     11  O   UNL     1      35.789 -20.431 -19.667  0.00  0.00    -0.251 OA
ATOM     12  N   UNL     1      33.741 -21.257 -20.355  0.00  0.00    -0.288 N 
ATOM     13  N   UNL     1      34.552 -19.247 -21.257  0.00  0.00    -0.169 N 
ATOM     14  C   UNL     1      34.779 -20.338 -20.359  0.00  0.00    +0.319 C 
ATOM     15  H   UNL     1      32.970 -21.095 -20.946  0.00  0.00    +0.151 HD
ATOM     16  H   UNL     1      33.711 -19.251 -21.770  0.00  0.00    +0.178 HD
BRANCH  12  17
ATOM     17  C   UNL     1      33.735 -22.434 -19.531  0.00  0.00    +0.091 C 
BRANCH  17  18
ATOM     18  C   UNL     1      32.946 -22.237 -18.241  0.00  0.00    +0.021 C 
BRANCH  18  19
ATOM     19  C   UNL     1      33.235 -23.324 -17.204  0.00  0.00    +0.002 C 
ATOM     20  C   UNL     1      32.130 -23.404 -16.161  0.00  0.00    +0.000 C 
ENDBRANCH  18  19
ENDBRANCH  17  18
ENDBRANCH  12  17
ENDBRANCH   1  13
TORSDOF 5
ENDMDL
