MODEL 1
REMARK VINA RESULT:     -11.2      0.000      0.000
REMARK  Name = 24958200
REMARK  3 active torsions:
REMARK  status: ('A' for Active; 'I' for Inactive)
REMARK    1  A    between atoms: N_1  and  C_13
REMARK    2  A    between atoms: C_6  and  C_26
REMARK    3  A    between atoms: C_10  and  C_17
REMARK                            x       y       z     vdW  Elec       q    Type
REMARK                         _______ _______ _______ _____ _____    ______ ____
ROOT
ATOM      1  N   UNL     1      33.455 -14.006 -23.476  0.00  0.00    -0.189 N 
ATOM      2  N   UNL     1      33.946 -14.774 -22.483  0.00  0.00    -0.174 NA
ATOM      3  C   UNL     1      33.957 -15.845 -24.486  0.00  0.00    +0.036 C 
ATOM      4  C   UNL     1      33.438 -14.600 -24.704  0.00  0.00    +0.091 C 
ATOM      5  C   UNL     1      34.271 -15.935 -23.081  0.00  0.00    +0.105 C 
ATOM      6  C   UNL     1      34.826 -17.111 -22.544  0.00  0.00    +0.072 C 
ATOM      7  C   UNL     1      34.141 -16.826 -25.453  0.00  0.00    +0.003 C 
ATOM      8  C   UNL     1      35.024 -18.129 -23.503  0.00  0.00    +0.006 C 
ATOM      9  C   UNL     1      34.697 -17.991 -24.889  0.00  0.00    +0.000 C 
ENDROOT
BRANCH   1  13
ATOM     10  C   UNL     1      32.132 -10.133 -22.661  0.00  0.00    -0.024 C 
ATOM     11  C   UNL     1      33.089 -10.349 -23.652  0.00  0.00    -0.003 C 
ATOM     12  C   UNL     1      31.617 -11.212 -21.941  0.00  0.00    -0.003 C 
ATOM     13  C   UNL     1      33.017 -12.722 -23.205  0.00  0.00    +0.074 C 
ATOM     14  C   UNL     1      33.531 -11.644 -23.925  0.00  0.00    +0.016 C 
ATOM     15  C   UNL     1      32.059 -12.507 -22.214  0.00  0.00    +0.016 C 
BRANCH  10  17
ATOM     16  N   UNL     1      32.077  -6.652 -21.067  0.00  0.00    +0.384 N 
ATOM     17  C   UNL     1      31.651  -8.725 -22.363  0.00  0.00    +0.001 C 
ATOM     18  C   UNL     1      31.482  -7.896 -23.647  0.00  0.00    +0.000 C 
ATOM     19  C   UNL     1      32.572  -7.998 -21.364  0.00  0.00    -0.077 C 
ATOM     20  C   UNL     1      31.047  -6.473 -23.307  0.00  0.00    -0.023 C 
ATOM     21  C   UNL     1      31.980  -5.837 -22.278  0.00  0.00    -0.082 C 
ATOM     22  H   UNL     1      32.717  -6.200 -20.414  0.00  0.00    -0.085 HD
ATOM     23  H   UNL     1      31.144  -6.736 -20.662  0.00  0.00    -0.085 HD
ENDBRANCH  10  17
ENDBRANCH   1  13
BRANCH   6  26
ATOM     24  O   UNL     1      35.743 -18.290 -20.724  0.00  0.00    -0.270 OA
ATOM     25  N   UNL     1      34.841 -16.232 -20.273  0.00  0.00    -0.325 N 
ATOM     26  C   UNL     1      35.164 -17.270 -21.147  0.00  0.00    +0.244 C 
ATOM     27  H   UNL     1      35.058 -16.308 -19.315  0.00  0.00    +0.145 HD
ATOM     28  H   UNL     1      34.396 -15.422 -20.613  0.00  0.00    +0.145 HD
ENDBRANCH   6  26
TORSDOF 3
ENDMDL
MODEL 2
REMARK VINA RESULT:     -11.2      4.754     10.545
REMARK  Name = 24958200
REMARK  3 active torsions:
REMARK  status: ('A' for Active; 'I' for Inactive)
REMARK    1  A    between atoms: N_1  and  C_13
REMARK    2  A    between atoms: C_6  and  C_26
REMARK    3  A    between atoms: C_10  and  C_17
REMARK                            x       y       z     vdW  Elec       q    Type
REMARK                         _______ _______ _______ _____ _____    ______ ____
ROOT
ATOM      1  N   UNL     1      34.734 -19.089 -21.739  0.00  0.00    -0.189 N 
ATOM      2  N   UNL     1      34.521 -17.788 -21.459  0.00  0.00    -0.174 NA
ATOM      3  C   UNL     1      34.655 -18.178 -23.693  0.00  0.00    +0.036 C 
ATOM      4  C   UNL     1      34.824 -19.381 -23.068  0.00  0.00    +0.091 C 
ATOM      5  C   UNL     1      34.466 -17.187 -22.662  0.00  0.00    +0.105 C 
ATOM      6  C   UNL     1      34.265 -15.835 -22.996  0.00  0.00    +0.072 C 
ATOM      7  C   UNL     1      34.666 -17.970 -25.066  0.00  0.00    +0.003 C 
ATOM      8  C   UNL     1      34.272 -15.591 -24.387  0.00  0.00    +0.006 C 
ATOM      9  C   UNL     1      34.463 -16.610 -25.372  0.00  0.00    +0.000 C 
ENDROOT
BRANCH   1  13
ATOM     10  C   UNL     1      35.073 -21.864 -18.641  0.00  0.00    -0.024 C 
ATOM     11  C   UNL     1      33.816 -21.534 -19.147  0.00  0.00    -0.003 C 
ATOM     12  C   UNL     1      36.218 -21.266 -19.171  0.00  0.00    -0.003 C 
ATOM     13  C   UNL     1      34.846 -20.008 -20.712  0.00  0.00    +0.074 C 
ATOM     14  C   UNL     1      33.703 -20.606 -20.182  0.00  0.00    +0.016 C 
ATOM     15  C   UNL     1      36.104 -20.339 -20.206  0.00  0.00    +0.016 C 
BRANCH  10  17
ATOM     16  N   UNL     1      36.437 -23.493 -15.455  0.00  0.00    +0.384 N 
ATOM     17  C   UNL     1      35.197 -22.872 -17.513  0.00  0.00    +0.001 C 
ATOM     18  C   UNL     1      33.862 -23.073 -16.778  0.00  0.00    +0.000 C 
ATOM     19  C   UNL     1      36.313 -22.495 -16.520  0.00  0.00    -0.077 C 
ATOM     20  C   UNL     1      34.036 -24.053 -15.620  0.00  0.00    -0.023 C 
ATOM     21  C   UNL     1      35.187 -23.638 -14.708  0.00  0.00    -0.082 C 
ATOM     22  H   UNL     1      37.175 -23.204 -14.813  0.00  0.00    -0.085 HD
ATOM     23  H   UNL     1      36.660 -24.392 -15.883  0.00  0.00    -0.085 HD
ENDBRANCH  10  17
ENDBRANCH   1  13
BRANCH   6  26
ATOM     24  O   UNL     1      33.429 -13.753 -22.280  0.00  0.00    -0.270 OA
ATOM     25  N   UNL     1      34.603 -14.980 -20.740  0.00  0.00    -0.325 N 
ATOM     26  C   UNL     1      34.069 -14.790 -22.014  0.00  0.00    +0.244 C 
ATOM     27  H   UNL     1      34.487 -14.288 -20.048  0.00  0.00    +0.145 HD
ATOM     28  H   UNL     1      35.096 -15.806 -20.531  0.00  0.00    +0.145 HD
ENDBRANCH   6  26
TORSDOF 3
ENDMDL
MODEL 3
REMARK VINA RESULT:     -10.8      6.760     10.700
REMARK  Name = 24958200
REMARK  3 active torsions:
REMARK  status: ('A' for Active; 'I' for Inactive)
REMARK    1  A    between atoms: N_1  and  C_13
REMARK    2  A    between atoms: C_6  and  C_26
REMARK    3  A    between atoms: C_10  and  C_17
REMARK                            x       y       z     vdW  Elec       q    Type
REMARK                         _______ _______ _______ _____ _____    ______ ____
ROOT
ATOM      1  N   UNL     1      33.547 -22.216 -18.026  0.00  0.00    -0.189 N 
ATOM      2  N   UNL     1      32.247 -22.487 -17.804  0.00  0.00    -0.174 NA
ATOM      3  C   UNL     1      33.600 -23.431 -16.243  0.00  0.00    +0.036 C 
ATOM      4  C   UNL     1      34.408 -22.759 -17.117  0.00  0.00    +0.091 C 
ATOM      5  C   UNL     1      32.242 -23.246 -16.694  0.00  0.00    +0.105 C 
ATOM      6  C   UNL     1      31.169 -23.826 -15.991  0.00  0.00    +0.072 C 
ATOM      7  C   UNL     1      34.028 -24.149 -15.134  0.00  0.00    +0.003 C 
ATOM      8  C   UNL     1      31.572 -24.565 -14.857  0.00  0.00    +0.006 C 
ATOM      9  C   UNL     1      32.935 -24.718 -14.450  0.00  0.00    +0.000 C 
ENDROOT
BRANCH   1  13
ATOM     10  C   UNL     1      34.667 -19.879 -21.297  0.00  0.00    -0.024 C 
ATOM     11  C   UNL     1      33.328 -19.946 -20.913  0.00  0.00    -0.003 C 
ATOM     12  C   UNL     1      35.633 -20.594 -20.587  0.00  0.00    -0.003 C 
ATOM     13  C   UNL     1      33.918 -21.442 -19.111  0.00  0.00    +0.074 C 
ATOM     14  C   UNL     1      32.953 -20.727 -19.820  0.00  0.00    +0.016 C 
ATOM     15  C   UNL     1      35.258 -21.375 -19.494  0.00  0.00    +0.016 C 
BRANCH  10  17
ATOM     16  N   UNL     1      34.751 -18.626 -24.914  0.00  0.00    +0.384 N 
ATOM     17  C   UNL     1      35.074 -19.031 -22.488  0.00  0.00    +0.001 C 
ATOM     18  C   UNL     1      34.896 -17.530 -22.207  0.00  0.00    +0.000 C 
ATOM     19  C   UNL     1      34.324 -19.436 -23.771  0.00  0.00    -0.077 C 
ATOM     20  C   UNL     1      35.267 -16.711 -23.440  0.00  0.00    -0.023 C 
ATOM     21  C   UNL     1      34.520 -17.201 -24.678  0.00  0.00    -0.082 C 
ATOM     22  H   UNL     1      34.226 -18.915 -25.740  0.00  0.00    -0.085 HD
ATOM     23  H   UNL     1      35.752 -18.769 -25.053  0.00  0.00    -0.085 HD
ENDBRANCH  10  17
ENDBRANCH   1  13
BRANCH   6  26
ATOM     24  O   UNL     1      28.957 -24.599 -16.218  0.00  0.00    -0.270 OA
ATOM     25  N   UNL     1      29.388 -22.470 -16.951  0.00  0.00    -0.325 N 
ATOM     26  C   UNL     1      29.785 -23.682 -16.386  0.00  0.00    +0.244 C 
ATOM     27  H   UNL     1      28.452 -22.339 -17.230  0.00  0.00    +0.145 HD
ATOM     28  H   UNL     1      30.042 -21.744 -17.070  0.00  0.00    +0.145 HD
ENDBRANCH   6  26
TORSDOF 3
ENDMDL
MODEL 4
REMARK VINA RESULT:     -10.8      8.089     12.448
REMARK  Name = 24958200
REMARK  3 active torsions:
REMARK  status: ('A' for Active; 'I' for Inactive)
REMARK    1  A    between atoms: N_1  and  C_13
REMARK    2  A    between atoms: C_6  and  C_26
REMARK    3  A    between atoms: C_10  and  C_17
REMARK                            x       y       z     vdW  Elec       q    Type
REMARK                         _______ _______ _______ _____ _____    ______ ____
ROOT
ATOM      1  N   UNL     1      35.863 -23.072 -15.937  0.00  0.00    -0.189 N 
ATOM      2  N   UNL     1      36.860 -23.957 -15.739  0.00  0.00    -0.174 NA
ATOM      3  C   UNL     1      35.503 -23.769 -13.926  0.00  0.00    +0.036 C 
ATOM      4  C   UNL     1      35.016 -22.919 -14.878  0.00  0.00    +0.091 C 
ATOM      5  C   UNL     1      36.665 -24.414 -14.488  0.00  0.00    +0.105 C 
ATOM      6  C   UNL     1      37.394 -25.357 -13.739  0.00  0.00    +0.072 C 
ATOM      7  C   UNL     1      34.964 -23.962 -12.661  0.00  0.00    +0.003 C 
ATOM      8  C   UNL     1      36.871 -25.575 -12.446  0.00  0.00    +0.006 C 
ATOM      9  C   UNL     1      35.712 -24.909 -11.934  0.00  0.00    +0.000 C 
ENDROOT
BRANCH   1  13
ATOM     10  C   UNL     1      35.560 -21.050 -19.574  0.00  0.00    -0.024 C 
ATOM     11  C   UNL     1      36.736 -20.973 -18.829  0.00  0.00    -0.003 C 
ATOM     12  C   UNL     1      34.484 -21.805 -19.103  0.00  0.00    -0.003 C 
ATOM     13  C   UNL     1      35.763 -22.402 -17.141  0.00  0.00    +0.074 C 
ATOM     14  C   UNL     1      36.838 -21.648 -17.613  0.00  0.00    +0.016 C 
ATOM     15  C   UNL     1      34.586 -22.480 -17.887  0.00  0.00    +0.016 C 
BRANCH  10  17
ATOM     16  N   UNL     1      33.920 -19.134 -22.456  0.00  0.00    +0.384 N 
ATOM     17  C   UNL     1      35.448 -20.314 -20.897  0.00  0.00    +0.001 C 
ATOM     18  C   UNL     1      36.450 -19.152 -20.989  0.00  0.00    +0.000 C 
ATOM     19  C   UNL     1      34.014 -19.817 -21.163  0.00  0.00    -0.077 C 
ATOM     20  C   UNL     1      36.276 -18.404 -22.308  0.00  0.00    -0.023 C 
ATOM     21  C   UNL     1      34.823 -17.986 -22.523  0.00  0.00    -0.082 C 
ATOM     22  H   UNL     1      32.962 -18.812 -22.590  0.00  0.00    -0.085 HD
ATOM     23  H   UNL     1      34.186 -19.795 -23.187  0.00  0.00    -0.085 HD
ENDBRANCH  10  17
ENDBRANCH   1  13
BRANCH   6  26
ATOM     24  O   UNL     1      38.525 -27.235 -14.598  0.00  0.00    -0.270 OA
ATOM     25  N   UNL     1      39.757 -25.319 -14.331  0.00  0.00    -0.325 N 
ATOM     26  C   UNL     1      38.566 -26.041 -14.240  0.00  0.00    +0.244 C 
ATOM     27  H   UNL     1      40.573 -25.755 -14.668  0.00  0.00    +0.145 HD
ATOM     28  H   UNL     1      39.781 -24.373 -14.059  0.00  0.00    +0.145 HD
ENDBRANCH   6  26
TORSDOF 3
ENDMDL
MODEL 5
REMARK VINA RESULT:     -10.7      6.451     10.440
REMARK  Name = 24958200
REMARK  3 active torsions:
REMARK  status: ('A' for Active; 'I' for Inactive)
REMARK    1  A    between atoms: N_1  and  C_13
REMARK    2  A    between atoms: C_6  and  C_26
REMARK    3  A    between atoms: C_10  and  C_17
REMARK                            x       y       z     vdW  Elec       q    Type
REMARK                         _______ _______ _______ _____ _____    ______ ____
ROOT
ATOM      1  N   UNL     1      34.437 -22.060 -18.209  0.00  0.00    -0.189 N 
ATOM      2  N   UNL     1      35.488 -22.449 -17.461  0.00  0.00    -0.174 NA
ATOM      3  C   UNL     1      33.519 -23.252 -16.662  0.00  0.00    +0.036 C 
ATOM      4  C   UNL     1      33.226 -22.514 -17.775  0.00  0.00    +0.091 C 
ATOM      5  C   UNL     1      34.949 -23.198 -16.482  0.00  0.00    +0.105 C 
ATOM      6  C   UNL     1      35.561 -23.869 -15.407  0.00  0.00    +0.072 C 
ATOM      7  C   UNL     1      32.596 -23.922 -15.869  0.00  0.00    +0.003 C 
ATOM      8  C   UNL     1      34.648 -24.560 -14.580  0.00  0.00    +0.006 C 
ATOM      9  C   UNL     1      33.235 -24.584 -14.802  0.00  0.00    +0.000 C 
ENDROOT
BRANCH   1  13
ATOM     10  C   UNL     1      35.038 -19.644 -21.558  0.00  0.00    -0.024 C 
ATOM     11  C   UNL     1      33.743 -19.909 -21.112  0.00  0.00    -0.003 C 
ATOM     12  C   UNL     1      36.133 -20.187 -20.884  0.00  0.00    -0.003 C 
ATOM     13  C   UNL     1      34.636 -21.260 -19.319  0.00  0.00    +0.074 C 
ATOM     14  C   UNL     1      33.542 -20.717 -19.993  0.00  0.00    +0.016 C 
ATOM     15  C   UNL     1      35.932 -20.995 -19.765  0.00  0.00    +0.016 C 
BRANCH  10  17
ATOM     16  N   UNL     1      34.682 -18.404 -25.163  0.00  0.00    +0.384 N 
ATOM     17  C   UNL     1      35.258 -18.767 -22.777  0.00  0.00    +0.001 C 
ATOM     18  C   UNL     1      34.968 -17.288 -22.475  0.00  0.00    +0.000 C 
ATOM     19  C   UNL     1      34.435 -19.245 -23.989  0.00  0.00    -0.077 C 
ATOM     20  C   UNL     1      35.150 -16.443 -23.734  0.00  0.00    -0.023 C 
ATOM     21  C   UNL     1      34.343 -17.005 -24.901  0.00  0.00    -0.082 C 
ATOM     22  H   UNL     1      34.113 -18.743 -25.939  0.00  0.00    -0.085 HD
ATOM     23  H   UNL     1      35.675 -18.456 -25.392  0.00  0.00    -0.085 HD
ENDBRANCH  10  17
ENDBRANCH   1  13
BRANCH   6  26
ATOM     24  O   UNL     1      37.588 -22.817 -14.834  0.00  0.00    -0.270 OA
ATOM     25  N   UNL     1      37.684 -25.059 -15.301  0.00  0.00    -0.325 N 
ATOM     26  C   UNL     1      36.988 -23.858 -15.167  0.00  0.00    +0.244 C 
ATOM     27  H   UNL     1      38.656 -25.086 -15.144  0.00  0.00    +0.145 HD
ATOM     28  H   UNL     1      37.204 -25.882 -15.552  0.00  0.00    +0.145 HD
ENDBRANCH   6  26
TORSDOF 3
ENDMDL
MODEL 6
REMARK VINA RESULT:     -10.7      6.504     10.388
REMARK  Name = 24958200
REMARK  3 active torsions:
REMARK  status: ('A' for Active; 'I' for Inactive)
REMARK    1  A    between atoms: N_1  and  C_13
REMARK    2  A    between atoms: C_6  and  C_26
REMARK    3  A    between atoms: C_10  and  C_17
REMARK                            x       y       z     vdW  Elec       q    Type
REMARK                         _______ _______ _______ _____ _____    ______ ____
ROOT
ATOM      1  N   UNL     1      34.712 -22.016 -18.167  0.00  0.00    -0.189 N 
ATOM      2  N   UNL     1      35.770 -22.270 -17.372  0.00  0.00    -0.174 NA
ATOM      3  C   UNL     1      33.873 -23.274 -16.627  0.00  0.00    +0.036 C 
ATOM      4  C   UNL     1      33.544 -22.595 -17.766  0.00  0.00    +0.091 C 
ATOM      5  C   UNL     1      35.281 -23.056 -16.396  0.00  0.00    +0.105 C 
ATOM      6  C   UNL     1      35.922 -23.634 -15.284  0.00  0.00    +0.072 C 
ATOM      7  C   UNL     1      33.001 -24.028 -15.852  0.00  0.00    +0.003 C 
ATOM      8  C   UNL     1      35.060 -24.406 -14.475  0.00  0.00    +0.006 C 
ATOM      9  C   UNL     1      33.668 -24.593 -14.748  0.00  0.00    +0.000 C 
ENDROOT
BRANCH   1  13
ATOM     10  C   UNL     1      35.170 -19.616 -21.549  0.00  0.00    -0.024 C 
ATOM     11  C   UNL     1      36.294 -20.088 -20.872  0.00  0.00    -0.003 C 
ATOM     12  C   UNL     1      33.892 -19.947 -21.096  0.00  0.00    -0.003 C 
ATOM     13  C   UNL     1      34.864 -21.220 -19.287  0.00  0.00    +0.074 C 
ATOM     14  C   UNL     1      36.141 -20.890 -19.741  0.00  0.00    +0.016 C 
ATOM     15  C   UNL     1      33.739 -20.749 -19.966  0.00  0.00    +0.016 C 
BRANCH  10  17
ATOM     16  N   UNL     1      34.626 -18.361 -25.126  0.00  0.00    +0.384 N 
ATOM     17  C   UNL     1      35.335 -18.742 -22.779  0.00  0.00    +0.001 C 
ATOM     18  C   UNL     1      35.099 -17.257 -22.460  0.00  0.00    +0.000 C 
ATOM     19  C   UNL     1      34.431 -19.199 -23.940  0.00  0.00    -0.077 C 
ATOM     20  C   UNL     1      35.224 -16.415 -23.727  0.00  0.00    -0.023 C 
ATOM     21  C   UNL     1      34.335 -16.956 -24.844  0.00  0.00    -0.082 C 
ATOM     22  H   UNL     1      34.004 -18.687 -25.866  0.00  0.00    -0.085 HD
ATOM     23  H   UNL     1      35.602 -18.436 -25.414  0.00  0.00    -0.085 HD
ENDBRANCH  10  17
ENDBRANCH   1  13
BRANCH   6  26
ATOM     24  O   UNL     1      37.754 -23.421 -13.820  0.00  0.00    -0.270 OA
ATOM     25  N   UNL     1      38.211 -23.346 -16.066  0.00  0.00    -0.325 N 
ATOM     26  C   UNL     1      37.327 -23.458 -14.992  0.00  0.00    +0.244 C 
ATOM     27  H   UNL     1      39.174 -23.226 -15.902  0.00  0.00    +0.145 HD
ATOM     28  H   UNL     1      37.871 -23.389 -16.989  0.00  0.00    +0.145 HD
ENDBRANCH   6  26
TORSDOF 3
ENDMDL
MODEL 7
REMARK VINA RESULT:     -10.6      7.510     11.630
REMARK  Name = 24958200
REMARK  3 active torsions:
REMARK  status: ('A' for Active; 'I' for Inactive)
REMARK    1  A    between atoms: N_1  and  C_13
REMARK    2  A    between atoms: C_6  and  C_26
REMARK    3  A    between atoms: C_10  and  C_17
REMARK                            x       y       z     vdW  Elec       q    Type
REMARK                         _______ _______ _______ _____ _____    ______ ____
ROOT
ATOM      1  N   UNL     1      32.515 -22.732 -17.249  0.00  0.00    -0.189 N 
ATOM      2  N   UNL     1      31.169 -22.693 -17.193  0.00  0.00    -0.174 NA
ATOM      3  C   UNL     1      32.066 -23.885 -15.480  0.00  0.00    +0.036 C 
ATOM      4  C   UNL     1      33.108 -23.437 -16.242  0.00  0.00    +0.091 C 
ATOM      5  C   UNL     1      30.853 -23.404 -16.096  0.00  0.00    +0.105 C 
ATOM      6  C   UNL     1      29.598 -23.706 -15.536  0.00  0.00    +0.072 C 
ATOM      7  C   UNL     1      32.177 -24.656 -14.330  0.00  0.00    +0.003 C 
ATOM      8  C   UNL     1      29.677 -24.491 -14.364  0.00  0.00    +0.006 C 
ATOM      9  C   UNL     1      30.907 -24.942 -13.791  0.00  0.00    +0.000 C 
ENDROOT
BRANCH   1  13
ATOM     10  C   UNL     1      34.534 -20.795 -20.343  0.00  0.00    -0.024 C 
ATOM     11  C   UNL     1      35.224 -21.661 -19.495  0.00  0.00    -0.003 C 
ATOM     12  C   UNL     1      33.168 -20.577 -20.158  0.00  0.00    -0.003 C 
ATOM     13  C   UNL     1      33.184 -22.090 -18.273  0.00  0.00    +0.074 C 
ATOM     14  C   UNL     1      34.549 -22.308 -18.460  0.00  0.00    +0.016 C 
ATOM     15  C   UNL     1      32.494 -21.224 -19.123  0.00  0.00    +0.016 C 
BRANCH  10  17
ATOM     16  N   UNL     1      35.026 -18.747 -23.541  0.00  0.00    +0.384 N 
ATOM     17  C   UNL     1      35.269 -20.089 -21.468  0.00  0.00    +0.001 C 
ATOM     18  C   UNL     1      36.305 -19.087 -20.933  0.00  0.00    +0.000 C 
ATOM     19  C   UNL     1      34.301 -19.398 -22.448  0.00  0.00    -0.077 C 
ATOM     20  C   UNL     1      36.987 -18.360 -22.089  0.00  0.00    -0.023 C 
ATOM     21  C   UNL     1      35.964 -17.743 -23.040  0.00  0.00    -0.082 C 
ATOM     22  H   UNL     1      34.354 -18.293 -24.160  0.00  0.00    -0.085 HD
ATOM     23  H   UNL     1      35.556 -19.460 -24.043  0.00  0.00    -0.085 HD
ENDBRANCH  10  17
ENDBRANCH   1  13
BRANCH   6  26
ATOM     24  O   UNL     1      27.425 -22.811 -15.384  0.00  0.00    -0.270 OA
ATOM     25  N   UNL     1      28.188 -23.320 -17.485  0.00  0.00    -0.325 N 
ATOM     26  C   UNL     1      28.343 -23.258 -16.100  0.00  0.00    +0.244 C 
ATOM     27  H   UNL     1      27.346 -23.023 -17.901  0.00  0.00    +0.145 HD
ATOM     28  H   UNL     1      28.920 -23.662 -18.047  0.00  0.00    +0.145 HD
ENDBRANCH   6  26
TORSDOF 3
ENDMDL
MODEL 8
REMARK VINA RESULT:     -10.4      2.950      8.888
REMARK  Name = 24958200
REMARK  3 active torsions:
REMARK  status: ('A' for Active; 'I' for Inactive)
REMARK    1  A    between atoms: N_1  and  C_13
REMARK    2  A    between atoms: C_6  and  C_26
REMARK    3  A    between atoms: C_10  and  C_17
REMARK                            x       y       z     vdW  Elec       q    Type
REMARK                         _______ _______ _______ _____ _____    ______ ____
ROOT
ATOM      1  N   UNL     1      33.204 -14.037 -22.304  0.00  0.00    -0.189 N 
ATOM      2  N   UNL     1      33.816 -13.369 -23.302  0.00  0.00    -0.174 NA
ATOM      3  C   UNL     1      32.264 -12.095 -22.240  0.00  0.00    +0.036 C 
ATOM      4  C   UNL     1      32.259 -13.318 -21.631  0.00  0.00    +0.091 C 
ATOM      5  C   UNL     1      33.252 -12.148 -23.290  0.00  0.00    +0.105 C 
ATOM      6  C   UNL     1      33.492 -11.026 -24.105  0.00  0.00    +0.072 C 
ATOM      7  C   UNL     1      31.461 -11.016 -21.895  0.00  0.00    +0.003 C 
ATOM      8  C   UNL     1      32.688  -9.911 -23.780  0.00  0.00    +0.006 C 
ATOM      9  C   UNL     1      31.721  -9.908 -22.726  0.00  0.00    +0.000 C 
ENDROOT
BRANCH   1  13
ATOM     10  C   UNL     1      34.244 -17.996 -21.494  0.00  0.00    -0.024 C 
ATOM     11  C   UNL     1      33.210 -17.386 -20.783  0.00  0.00    -0.003 C 
ATOM     12  C   UNL     1      34.930 -17.281 -22.477  0.00  0.00    -0.003 C 
ATOM     13  C   UNL     1      33.549 -15.348 -22.035  0.00  0.00    +0.074 C 
ATOM     14  C   UNL     1      32.863 -16.063 -21.053  0.00  0.00    +0.016 C 
ATOM     15  C   UNL     1      34.583 -15.958 -22.748  0.00  0.00    +0.016 C 
BRANCH  10  17
ATOM     16  N   UNL     1      36.386 -20.944 -20.318  0.00  0.00    +0.384 N 
ATOM     17  C   UNL     1      34.624 -19.435 -21.198  0.00  0.00    +0.001 C 
ATOM     18  C   UNL     1      33.577 -20.132 -20.314  0.00  0.00    +0.000 C 
ATOM     19  C   UNL     1      36.026 -19.546 -20.570  0.00  0.00    -0.077 C 
ATOM     20  C   UNL     1      34.015 -21.559 -19.997  0.00  0.00    -0.023 C 
ATOM     21  C   UNL     1      35.429 -21.591 -19.422  0.00  0.00    -0.082 C 
ATOM     22  H   UNL     1      37.313 -20.975 -19.893  0.00  0.00    -0.085 HD
ATOM     23  H   UNL     1      36.379 -21.442 -21.209  0.00  0.00    -0.085 HD
ENDBRANCH  10  17
ENDBRANCH   1  13
BRANCH   6  26
ATOM     24  O   UNL     1      34.286 -11.641 -26.235  0.00  0.00    -0.270 OA
ATOM     25  N   UNL     1      35.620 -10.245 -24.997  0.00  0.00    -0.325 N 
ATOM     26  C   UNL     1      34.466 -11.009 -25.175  0.00  0.00    +0.244 C 
ATOM     27  H   UNL     1      36.303 -10.212 -25.706  0.00  0.00    +0.145 HD
ATOM     28  H   UNL     1      35.751  -9.738 -24.164  0.00  0.00    +0.145 HD
ENDBRANCH   6  26
TORSDOF 3
ENDMDL
MODEL 9
REMARK VINA RESULT:     -10.3      3.074      8.740
REMARK  Name = 24958200
REMARK  3 active torsions:
REMARK  status: ('A' for Active; 'I' for Inactive)
REMARK    1  A    between atoms: N_1  and  C_13
REMARK    2  A    between atoms: C_6  and  C_26
REMARK    3  A    between atoms: C_10  and  C_17
REMARK                            x       y       z     vdW  Elec       q    Type
REMARK                         _______ _______ _______ _____ _____    ______ ____
ROOT
ATOM      1  N   UNL     1      33.650 -14.267 -22.892  0.00  0.00    -0.189 N 
ATOM      2  N   UNL     1      32.888 -13.434 -22.156  0.00  0.00    -0.174 NA
ATOM      3  C   UNL     1      33.752 -12.413 -23.992  0.00  0.00    +0.036 C 
ATOM      4  C   UNL     1      34.197 -13.705 -24.009  0.00  0.00    +0.091 C 
ATOM      5  C   UNL     1      32.929 -12.263 -22.816  0.00  0.00    +0.105 C 
ATOM      6  C   UNL     1      32.322 -11.029 -22.521  0.00  0.00    +0.072 C 
ATOM      7  C   UNL     1      34.049 -11.443 -24.940  0.00  0.00    +0.003 C 
ATOM      8  C   UNL     1      32.606 -10.019 -23.467  0.00  0.00    +0.006 C 
ATOM      9  C   UNL     1      33.429 -10.219 -24.620  0.00  0.00    +0.000 C 
ENDROOT
BRANCH   1  13
ATOM     10  C   UNL     1      34.188 -18.224 -21.681  0.00  0.00    -0.024 C 
ATOM     11  C   UNL     1      34.744 -17.779 -22.881  0.00  0.00    -0.003 C 
ATOM     12  C   UNL     1      33.452 -17.345 -20.885  0.00  0.00    -0.003 C 
ATOM     13  C   UNL     1      33.828 -15.578 -22.491  0.00  0.00    +0.074 C 
ATOM     14  C   UNL     1      34.564 -16.457 -23.286  0.00  0.00    +0.016 C 
ATOM     15  C   UNL     1      33.272 -16.022 -21.290  0.00  0.00    +0.016 C 
BRANCH  10  17
ATOM     16  N   UNL     1      35.956 -21.299 -20.237  0.00  0.00    +0.384 N 
ATOM     17  C   UNL     1      34.382 -19.663 -21.241  0.00  0.00    +0.001 C 
ATOM     18  C   UNL     1      33.281 -20.116 -20.269  0.00  0.00    +0.000 C 
ATOM     19  C   UNL     1      35.776 -19.898 -20.630  0.00  0.00    -0.077 C 
ATOM     20  C   UNL     1      33.535 -21.550 -19.809  0.00  0.00    -0.023 C 
ATOM     21  C   UNL     1      34.950 -21.714 -19.260  0.00  0.00    -0.082 C 
ATOM     22  H   UNL     1      36.883 -21.412 -19.828  0.00  0.00    -0.085 HD
ATOM     23  H   UNL     1      35.853 -21.880 -21.070  0.00  0.00    -0.085 HD
ENDBRANCH  10  17
ENDBRANCH   1  13
BRANCH   6  26
ATOM     24  O   UNL     1      31.750  -9.926 -20.520  0.00  0.00    -0.270 OA
ATOM     25  N   UNL     1      30.349 -11.603 -21.212  0.00  0.00    -0.325 N 
ATOM     26  C   UNL     1      31.485 -10.808 -21.361  0.00  0.00    +0.244 C 
ATOM     27  H   UNL     1      29.758 -11.478 -20.434  0.00  0.00    +0.145 HD
ATOM     28  H   UNL     1      30.137 -12.290 -21.885  0.00  0.00    +0.145 HD
ENDBRANCH   6  26
TORSDOF 3
ENDMDL
