MODEL 1
REMARK VINA RESULT:     -10.4      0.000      0.000
REMARK  Name = 5288215
REMARK  8 active torsions:
REMARK  status: ('A' for Active; 'I' for Inactive)
REMARK    1  A    between atoms: N_2  and  C_5
REMARK    2  A    between atoms: C_3  and  C_18
REMARK    3  A    between atoms: C_7  and  C_14
REMARK    4  A    between atoms: C_9  and  N_17
REMARK    5  A    between atoms: C_18  and  O_20
REMARK    6  A    between atoms: C_18  and  C_22
REMARK    7  A    between atoms: C_22  and  O_23
REMARK    8  A    between atoms: O_23  and  C_25
REMARK                            x       y       z     vdW  Elec       q    Type
REMARK                         _______ _______ _______ _____ _____    ______ ____
ROOT
ATOM      1  O   UNL     1      34.988 -16.179 -21.308  0.00  0.00    -0.272 OA
ATOM      2  N   UNL     1      33.909 -15.619 -23.308  0.00  0.00    -0.282 N 
ATOM      3  C   UNL     1      34.649 -16.436 -22.461  0.00  0.00    +0.254 C 
ATOM      4  H   UNL     1      33.722 -15.980 -24.205  0.00  0.00    +0.155 HD
ENDROOT
BRANCH   2   5
ATOM      5  C   UNL     1      33.392 -14.330 -23.033  0.00  0.00    +0.050 C 
ATOM      6  C   UNL     1      33.831 -13.251 -23.782  0.00  0.00    +0.020 C 
ATOM      7  C   UNL     1      33.322 -11.981 -23.509  0.00  0.00    +0.095 C 
ATOM      8  C   UNL     1      32.461 -14.177 -22.020  0.00  0.00    +0.016 C 
ATOM      9  C   UNL     1      32.383 -11.809 -22.492  0.00  0.00    +0.147 C 
ATOM     10  C   UNL     1      31.952 -12.907 -21.748  0.00  0.00    +0.025 C 
BRANCH   7  14
ATOM     11  F   UNL     1      32.806  -9.987 -24.728  0.00  0.00    -0.166 F 
ATOM     12  F   UNL     1      34.694 -10.029 -23.663  0.00  0.00    -0.166 F 
ATOM     13  F   UNL     1      34.440 -11.218 -25.464  0.00  0.00    -0.166 F 
ATOM     14  C   UNL     1      33.805 -10.825 -24.324  0.00  0.00    +0.420 C 
ENDBRANCH   7  14
BRANCH   9  17
ATOM     15  O   UNL     1      30.734 -10.206 -22.670  0.00  0.00    -0.126 OA
ATOM     16  O   UNL     1      32.515  -9.744 -21.472  0.00  0.00    -0.126 OA
ATOM     17  N   UNL     1      31.852 -10.523 -22.197  0.00  0.00    +0.058 N 
ENDBRANCH   9  17
ENDBRANCH   2   5
BRANCH   3  18
ATOM     18  C   UNL     1      35.039 -17.777 -23.114  0.00  0.00    +0.197 C 
ATOM     19  C   UNL     1      34.629 -17.806 -24.588  0.00  0.00    +0.043 C 
BRANCH  18  20
ATOM     20  O   UNL     1      36.460 -17.886 -23.055  0.00  0.00    -0.375 OA
ATOM     21  H   UNL     1      36.705 -18.589 -22.434  0.00  0.00    +0.211 HD
ENDBRANCH  18  20
BRANCH  18  22
ATOM     22  C   UNL     1      34.459 -18.984 -22.367  0.00  0.00    +0.241 C 
BRANCH  22  23
ATOM     23  O   UNL     1      35.383 -19.478 -21.401  0.00  0.00    -0.472 OA
BRANCH  23  25
ATOM     24  F   UNL     1      33.443 -23.122 -17.781  0.00  0.00    -0.204 F 
ATOM     25  C   UNL     1      34.900 -20.388 -20.498  0.00  0.00    +0.139 C 
ATOM     26  C   UNL     1      35.785 -21.192 -19.788  0.00  0.00    +0.039 C 
ATOM     27  C   UNL     1      33.528 -20.497 -20.298  0.00  0.00    +0.039 C 
ATOM     28  C   UNL     1      35.292 -22.118 -18.869  0.00  0.00    +0.033 C 
ATOM     29  C   UNL     1      33.035 -21.423 -19.378  0.00  0.00    +0.033 C 
ATOM     30  C   UNL     1      33.917 -22.234 -18.664  0.00  0.00    +0.140 C 
ENDBRANCH  23  25
ENDBRANCH  22  23
ENDBRANCH  18  22
ENDBRANCH   3  18
TORSDOF 8
ENDMDL
MODEL 2
REMARK VINA RESULT:     -10.2      1.812      2.317
REMARK  Name = 5288215
REMARK  8 active torsions:
REMARK  status: ('A' for Active; 'I' for Inactive)
REMARK    1  A    between atoms: N_2  and  C_5
REMARK    2  A    between atoms: C_3  and  C_18
REMARK    3  A    between atoms: C_7  and  C_14
REMARK    4  A    between atoms: C_9  and  N_17
REMARK    5  A    between atoms: C_18  and  O_20
REMARK    6  A    between atoms: C_18  and  C_22
REMARK    7  A    between atoms: C_22  and  O_23
REMARK    8  A    between atoms: O_23  and  C_25
REMARK                            x       y       z     vdW  Elec       q    Type
REMARK                         _______ _______ _______ _____ _____    ______ ____
ROOT
ATOM      1  O   UNL     1      34.951 -15.324 -21.474  0.00  0.00    -0.272 OA
ATOM      2  N   UNL     1      33.837 -14.858 -23.479  0.00  0.00    -0.282 N 
ATOM      3  C   UNL     1      34.546 -15.654 -22.587  0.00  0.00    +0.254 C 
ATOM      4  H   UNL     1      33.587 -15.281 -24.333  0.00  0.00    +0.155 HD
ENDROOT
BRANCH   2   5
ATOM      5  C   UNL     1      33.432 -13.513 -23.306  0.00  0.00    +0.050 C 
ATOM      6  C   UNL     1      32.667 -13.173 -22.202  0.00  0.00    +0.020 C 
ATOM      7  C   UNL     1      32.268 -11.847 -22.033  0.00  0.00    +0.095 C 
ATOM      8  C   UNL     1      33.808 -12.567 -24.244  0.00  0.00    +0.016 C 
ATOM      9  C   UNL     1      32.637 -10.882 -22.969  0.00  0.00    +0.147 C 
ATOM     10  C   UNL     1      33.408 -11.242 -24.075  0.00  0.00    +0.025 C 
BRANCH   7  14
ATOM     11  F   UNL     1      31.773 -10.293 -20.283  0.00  0.00    -0.166 F 
ATOM     12  F   UNL     1      30.107 -11.409 -21.107  0.00  0.00    -0.166 F 
ATOM     13  F   UNL     1      31.557 -12.409 -19.834  0.00  0.00    -0.166 F 
ATOM     14  C   UNL     1      31.442 -11.495 -20.839  0.00  0.00    +0.420 C 
ENDBRANCH   7  14
BRANCH   9  17
ATOM     15  O   UNL     1      31.078  -9.193 -23.151  0.00  0.00    -0.126 OA
ATOM     16  O   UNL     1      33.063  -8.701 -22.352  0.00  0.00    -0.126 OA
ATOM     17  N   UNL     1      32.240  -9.525 -22.817  0.00  0.00    +0.058 N 
ENDBRANCH   9  17
ENDBRANCH   2   5
BRANCH   3  18
ATOM     18  C   UNL     1      34.806 -17.074 -23.127  0.00  0.00    +0.197 C 
ATOM     19  C   UNL     1      34.298 -17.212 -24.564  0.00  0.00    +0.043 C 
BRANCH  18  20
ATOM     20  O   UNL     1      36.219 -17.276 -23.144  0.00  0.00    -0.375 OA
ATOM     21  H   UNL     1      36.669 -16.423 -23.042  0.00  0.00    +0.211 HD
ENDBRANCH  18  20
BRANCH  18  22
ATOM     22  C   UNL     1      34.202 -18.163 -22.232  0.00  0.00    +0.241 C 
BRANCH  22  23
ATOM     23  O   UNL     1      35.222 -18.884 -21.547  0.00  0.00    -0.472 OA
BRANCH  23  25
ATOM     24  F   UNL     1      33.572 -23.003 -18.313  0.00  0.00    -0.204 F 
ATOM     25  C   UNL     1      34.812 -19.912 -20.740  0.00  0.00    +0.139 C 
ATOM     26  C   UNL     1      35.756 -20.742 -20.146  0.00  0.00    +0.039 C 
ATOM     27  C   UNL     1      33.453 -20.115 -20.522  0.00  0.00    +0.039 C 
ATOM     28  C   UNL     1      35.336 -21.789 -19.325  0.00  0.00    +0.033 C 
ATOM     29  C   UNL     1      33.034 -21.161 -19.700  0.00  0.00    +0.033 C 
ATOM     30  C   UNL     1      33.975 -21.999 -19.102  0.00  0.00    +0.140 C 
ENDBRANCH  23  25
ENDBRANCH  22  23
ENDBRANCH  18  22
ENDBRANCH   3  18
TORSDOF 8
ENDMDL
MODEL 3
REMARK VINA RESULT:     -10.1      1.562      2.044
REMARK  Name = 5288215
REMARK  8 active torsions:
REMARK  status: ('A' for Active; 'I' for Inactive)
REMARK    1  A    between atoms: N_2  and  C_5
REMARK    2  A    between atoms: C_3  and  C_18
REMARK    3  A    between atoms: C_7  and  C_14
REMARK    4  A    between atoms: C_9  and  N_17
REMARK    5  A    between atoms: C_18  and  O_20
REMARK    6  A    between atoms: C_18  and  C_22
REMARK    7  A    between atoms: C_22  and  O_23
REMARK    8  A    between atoms: O_23  and  C_25
REMARK                            x       y       z     vdW  Elec       q    Type
REMARK                         _______ _______ _______ _____ _____    ______ ____
ROOT
ATOM      1  O   UNL     1      34.545 -14.430 -21.620  0.00  0.00    -0.272 OA
ATOM      2  N   UNL     1      33.491 -13.682 -23.571  0.00  0.00    -0.282 N 
ATOM      3  C   UNL     1      34.176 -14.598 -22.781  0.00  0.00    +0.254 C 
ATOM      4  H   UNL     1      33.270 -13.978 -24.484  0.00  0.00    +0.155 HD
ENDROOT
BRANCH   2   5
ATOM      5  C   UNL     1      33.075 -12.375 -23.220  0.00  0.00    +0.050 C 
ATOM      6  C   UNL     1      33.791 -11.287 -23.690  0.00  0.00    +0.020 C 
ATOM      7  C   UNL     1      33.381 -10.000 -23.342  0.00  0.00    +0.095 C 
ATOM      8  C   UNL     1      31.962 -12.214 -22.412  0.00  0.00    +0.016 C 
ATOM      9  C   UNL     1      32.262  -9.820 -22.528  0.00  0.00    +0.147 C 
ATOM     10  C   UNL     1      31.552 -10.927 -22.064  0.00  0.00    +0.025 C 
BRANCH   7  14
ATOM     11  F   UNL     1      34.704  -8.064 -22.866  0.00  0.00    -0.166 F 
ATOM     12  F   UNL     1      35.217  -9.193 -24.645  0.00  0.00    -0.166 F 
ATOM     13  F   UNL     1      33.408  -7.989 -24.610  0.00  0.00    -0.166 F 
ATOM     14  C   UNL     1      34.164  -8.835 -23.854  0.00  0.00    +0.420 C 
ENDBRANCH   7  14
BRANCH   9  17
ATOM     15  O   UNL     1      31.047  -7.901 -22.925  0.00  0.00    -0.126 OA
ATOM     16  O   UNL     1      32.236  -8.023 -21.083  0.00  0.00    -0.126 OA
ATOM     17  N   UNL     1      31.827  -8.517 -22.160  0.00  0.00    +0.058 N 
ENDBRANCH   9  17
ENDBRANCH   2   5
BRANCH   3  18
ATOM     18  C   UNL     1      34.458 -15.925 -23.511  0.00  0.00    +0.197 C 
ATOM     19  C   UNL     1      33.795 -15.942 -24.890  0.00  0.00    +0.043 C 
BRANCH  18  20
ATOM     20  O   UNL     1      35.869 -16.017 -23.706  0.00  0.00    -0.375 OA
ATOM     21  H   UNL     1      36.256 -15.129 -23.694  0.00  0.00    +0.211 HD
ENDBRANCH  18  20
BRANCH  18  22
ATOM     22  C   UNL     1      34.032 -17.149 -22.690  0.00  0.00    +0.241 C 
BRANCH  22  23
ATOM     23  O   UNL     1      35.124 -17.659 -21.930  0.00  0.00    -0.472 OA
BRANCH  23  25
ATOM     24  F   UNL     1      34.221 -22.299 -19.137  0.00  0.00    -0.204 F 
ATOM     25  C   UNL     1      34.900 -18.817 -21.234  0.00  0.00    +0.139 C 
ATOM     26  C   UNL     1      35.978 -19.565 -20.773  0.00  0.00    +0.039 C 
ATOM     27  C   UNL     1      33.595 -19.233 -20.991  0.00  0.00    +0.039 C 
ATOM     28  C   UNL     1      35.748 -20.744 -20.064  0.00  0.00    +0.033 C 
ATOM     29  C   UNL     1      33.366 -20.411 -20.281  0.00  0.00    +0.033 C 
ATOM     30  C   UNL     1      34.442 -21.167 -19.818  0.00  0.00    +0.140 C 
ENDBRANCH  23  25
ENDBRANCH  22  23
ENDBRANCH  18  22
ENDBRANCH   3  18
TORSDOF 8
ENDMDL
MODEL 4
REMARK VINA RESULT:     -10.0      3.815      8.170
REMARK  Name = 5288215
REMARK  8 active torsions:
REMARK  status: ('A' for Active; 'I' for Inactive)
REMARK    1  A    between atoms: N_2  and  C_5
REMARK    2  A    between atoms: C_3  and  C_18
REMARK    3  A    between atoms: C_7  and  C_14
REMARK    4  A    between atoms: C_9  and  N_17
REMARK    5  A    between atoms: C_18  and  O_20
REMARK    6  A    between atoms: C_18  and  C_22
REMARK    7  A    between atoms: C_22  and  O_23
REMARK    8  A    between atoms: O_23  and  C_25
REMARK                            x       y       z     vdW  Elec       q    Type
REMARK                         _______ _______ _______ _____ _____    ______ ____
ROOT
ATOM      1  O   UNL     1      33.553 -13.551 -25.541  0.00  0.00    -0.272 OA
ATOM      2  N   UNL     1      34.280 -13.074 -23.368  0.00  0.00    -0.282 N 
ATOM      3  C   UNL     1      33.878 -12.757 -24.661  0.00  0.00    +0.254 C 
ATOM      4  H   UNL     1      34.507 -12.313 -22.786  0.00  0.00    +0.155 HD
ENDROOT
BRANCH   2   5
ATOM      5  C   UNL     1      34.402 -14.361 -22.791  0.00  0.00    +0.050 C 
ATOM      6  C   UNL     1      34.648 -15.450 -23.610  0.00  0.00    +0.020 C 
ATOM      7  C   UNL     1      34.767 -16.718 -23.040  0.00  0.00    +0.095 C 
ATOM      8  C   UNL     1      34.272 -14.502 -21.420  0.00  0.00    +0.016 C 
ATOM      9  C   UNL     1      34.638 -16.877 -21.660  0.00  0.00    +0.147 C 
ATOM     10  C   UNL     1      34.391 -15.770 -20.850  0.00  0.00    +0.025 C 
BRANCH   7  14
ATOM     11  F   UNL     1      36.178 -18.557 -23.632  0.00  0.00    -0.166 F 
ATOM     12  F   UNL     1      34.044 -18.827 -23.904  0.00  0.00    -0.166 F 
ATOM     13  F   UNL     1      35.151 -17.522 -25.244  0.00  0.00    -0.166 F 
ATOM     14  C   UNL     1      35.030 -17.884 -23.936  0.00  0.00    +0.420 C 
ENDBRANCH   7  14
BRANCH   9  17
ATOM     15  O   UNL     1      33.737 -18.889 -20.983  0.00  0.00    -0.126 OA
ATOM     16  O   UNL     1      35.872 -18.526 -20.622  0.00  0.00    -0.126 OA
ATOM     17  N   UNL     1      34.755 -18.161 -21.059  0.00  0.00    +0.058 N 
ENDBRANCH   9  17
ENDBRANCH   2   5
BRANCH   3  18
ATOM     18  C   UNL     1      33.868 -11.240 -24.929  0.00  0.00    +0.197 C 
ATOM     19  C   UNL     1      35.138 -10.807 -25.665  0.00  0.00    +0.043 C 
BRANCH  18  20
ATOM     20  O   UNL     1      32.756 -10.960 -25.778  0.00  0.00    -0.375 OA
ATOM     21  H   UNL     1      32.722 -10.009 -25.965  0.00  0.00    +0.211 HD
ENDBRANCH  18  20
BRANCH  18  22
ATOM     22  C   UNL     1      33.678 -10.418 -23.648  0.00  0.00    +0.241 C 
BRANCH  22  23
ATOM     23  O   UNL     1      32.308 -10.388 -23.260  0.00  0.00    -0.472 OA
BRANCH  23  25
ATOM     24  F   UNL     1      31.252 -10.931 -17.899  0.00  0.00    -0.204 F 
ATOM     25  C   UNL     1      32.045 -10.522 -21.922  0.00  0.00    +0.139 C 
ATOM     26  C   UNL     1      32.086  -9.405 -21.095  0.00  0.00    +0.039 C 
ATOM     27  C   UNL     1      31.738 -11.776 -21.404  0.00  0.00    +0.039 C 
ATOM     28  C   UNL     1      31.819  -9.544 -19.732  0.00  0.00    +0.033 C 
ATOM     29  C   UNL     1      31.469 -11.914 -20.042  0.00  0.00    +0.033 C 
ATOM     30  C   UNL     1      31.510 -10.798 -19.206  0.00  0.00    +0.140 C 
ENDBRANCH  23  25
ENDBRANCH  22  23
ENDBRANCH  18  22
ENDBRANCH   3  18
TORSDOF 8
ENDMDL
MODEL 5
REMARK VINA RESULT:      -9.8      3.801      9.717
REMARK  Name = 5288215
REMARK  8 active torsions:
REMARK  status: ('A' for Active; 'I' for Inactive)
REMARK    1  A    between atoms: N_2  and  C_5
REMARK    2  A    between atoms: C_3  and  C_18
REMARK    3  A    between atoms: C_7  and  C_14
REMARK    4  A    between atoms: C_9  and  N_17
REMARK    5  A    between atoms: C_18  and  O_20
REMARK    6  A    between atoms: C_18  and  C_22
REMARK    7  A    between atoms: C_22  and  O_23
REMARK    8  A    between atoms: O_23  and  C_25
REMARK                            x       y       z     vdW  Elec       q    Type
REMARK                         _______ _______ _______ _____ _____    ______ ____
ROOT
ATOM      1  O   UNL     1      33.476 -13.673 -25.366  0.00  0.00    -0.272 OA
ATOM      2  N   UNL     1      34.210 -13.209 -23.192  0.00  0.00    -0.282 N 
ATOM      3  C   UNL     1      33.777 -12.883 -24.473  0.00  0.00    +0.254 C 
ATOM      4  H   UNL     1      34.409 -12.450 -22.597  0.00  0.00    +0.155 HD
ENDROOT
BRANCH   2   5
ATOM      5  C   UNL     1      34.399 -14.500 -22.645  0.00  0.00    +0.050 C 
ATOM      6  C   UNL     1      34.640 -15.567 -23.494  0.00  0.00    +0.020 C 
ATOM      7  C   UNL     1      34.825 -16.840 -22.953  0.00  0.00    +0.095 C 
ATOM      8  C   UNL     1      34.337 -14.668 -21.272  0.00  0.00    +0.016 C 
ATOM      9  C   UNL     1      34.765 -17.026 -21.572  0.00  0.00    +0.147 C 
ATOM     10  C   UNL     1      34.522 -15.941 -20.731  0.00  0.00    +0.025 C 
BRANCH   7  14
ATOM     11  F   UNL     1      36.262 -18.625 -23.640  0.00  0.00    -0.166 F 
ATOM     12  F   UNL     1      34.127 -18.955 -23.823  0.00  0.00    -0.166 F 
ATOM     13  F   UNL     1      35.134 -17.595 -25.186  0.00  0.00    -0.166 F 
ATOM     14  C   UNL     1      35.082 -17.983 -23.881  0.00  0.00    +0.420 C 
ENDBRANCH   7  14
BRANCH   9  17
ATOM     15  O   UNL     1      33.957 -19.071 -20.877  0.00  0.00    -0.126 OA
ATOM     16  O   UNL     1      36.099 -18.657 -20.633  0.00  0.00    -0.126 OA
ATOM     17  N   UNL     1      34.950 -18.315 -20.999  0.00  0.00    +0.058 N 
ENDBRANCH   9  17
ENDBRANCH   2   5
BRANCH   3  18
ATOM     18  C   UNL     1      33.693 -11.363 -24.708  0.00  0.00    +0.197 C 
ATOM     19  C   UNL     1      35.070 -10.787 -25.049  0.00  0.00    +0.043 C 
BRANCH  18  20
ATOM     20  O   UNL     1      32.841 -11.148 -25.833  0.00  0.00    -0.375 OA
ATOM     21  H   UNL     1      33.236 -11.552 -26.620  0.00  0.00    +0.211 HD
ENDBRANCH  18  20
BRANCH  18  22
ATOM     22  C   UNL     1      33.073 -10.617 -23.520  0.00  0.00    +0.241 C 
BRANCH  22  23
ATOM     23  O   UNL     1      33.653  -9.325 -23.370  0.00  0.00    -0.472 OA
BRANCH  23  25
ATOM     24  F   UNL     1      30.293  -5.286 -21.776  0.00  0.00    -0.204 F 
ATOM     25  C   UNL     1      32.814  -8.317 -22.974  0.00  0.00    +0.139 C 
ATOM     26  C   UNL     1      31.729  -7.969 -23.770  0.00  0.00    +0.039 C 
ATOM     27  C   UNL     1      33.056  -7.652 -21.776  0.00  0.00    +0.039 C 
ATOM     28  C   UNL     1      30.876  -6.942 -23.366  0.00  0.00    +0.033 C 
ATOM     29  C   UNL     1      32.202  -6.626 -21.371  0.00  0.00    +0.033 C 
ATOM     30  C   UNL     1      31.112  -6.271 -22.166  0.00  0.00    +0.140 C 
ENDBRANCH  23  25
ENDBRANCH  22  23
ENDBRANCH  18  22
ENDBRANCH   3  18
TORSDOF 8
ENDMDL
MODEL 6
REMARK VINA RESULT:      -9.7      5.297     11.138
REMARK  Name = 5288215
REMARK  8 active torsions:
REMARK  status: ('A' for Active; 'I' for Inactive)
REMARK    1  A    between atoms: N_2  and  C_5
REMARK    2  A    between atoms: C_3  and  C_18
REMARK    3  A    between atoms: C_7  and  C_14
REMARK    4  A    between atoms: C_9  and  N_17
REMARK    5  A    between atoms: C_18  and  O_20
REMARK    6  A    between atoms: C_18  and  C_22
REMARK    7  A    between atoms: C_22  and  O_23
REMARK    8  A    between atoms: O_23  and  C_25
REMARK                            x       y       z     vdW  Elec       q    Type
REMARK                         _______ _______ _______ _____ _____    ______ ____
ROOT
ATOM      1  O   UNL     1      33.906 -23.639 -19.561  0.00  0.00    -0.272 OA
ATOM      2  N   UNL     1      34.077 -22.288 -17.657  0.00  0.00    -0.282 N 
ATOM      3  C   UNL     1      34.352 -22.658 -18.969  0.00  0.00    +0.254 C 
ATOM      4  H   UNL     1      34.520 -21.469 -17.336  0.00  0.00    +0.155 HD
ENDROOT
BRANCH   2   5
ATOM      5  C   UNL     1      33.236 -22.948 -16.730  0.00  0.00    +0.050 C 
ATOM      6  C   UNL     1      31.862 -22.848 -16.871  0.00  0.00    +0.020 C 
ATOM      7  C   UNL     1      31.034 -23.498 -15.955  0.00  0.00    +0.095 C 
ATOM      8  C   UNL     1      33.806 -23.679 -15.701  0.00  0.00    +0.016 C 
ATOM      9  C   UNL     1      31.592 -24.238 -14.913  0.00  0.00    +0.147 C 
ATOM     10  C   UNL     1      32.978 -24.329 -14.785  0.00  0.00    +0.025 C 
BRANCH   7  14
ATOM     11  F   UNL     1      28.958 -24.533 -16.543  0.00  0.00    -0.166 F 
ATOM     12  F   UNL     1      28.904 -23.046 -14.966  0.00  0.00    -0.166 F 
ATOM     13  F   UNL     1      29.201 -22.428 -17.028  0.00  0.00    -0.166 F 
ATOM     14  C   UNL     1      29.553 -23.380 -16.118  0.00  0.00    +0.420 C 
ENDBRANCH   7  14
BRANCH   9  17
ATOM     15  O   UNL     1      30.653 -24.428 -12.815  0.00  0.00    -0.126 OA
ATOM     16  O   UNL     1      30.177 -25.959 -14.315  0.00  0.00    -0.126 OA
ATOM     17  N   UNL     1      30.767 -24.908 -13.968  0.00  0.00    +0.058 N 
ENDBRANCH   9  17
ENDBRANCH   2   5
BRANCH   3  18
ATOM     18  C   UNL     1      35.320 -21.689 -19.674  0.00  0.00    +0.197 C 
ATOM     19  C   UNL     1      36.457 -21.274 -18.737  0.00  0.00    +0.043 C 
BRANCH  18  20
ATOM     20  O   UNL     1      35.898 -22.385 -20.777  0.00  0.00    -0.375 OA
ATOM     21  H   UNL     1      35.734 -21.889 -21.594  0.00  0.00    +0.211 HD
ENDBRANCH  18  20
BRANCH  18  22
ATOM     22  C   UNL     1      34.607 -20.454 -20.239  0.00  0.00    +0.241 C 
BRANCH  22  23
ATOM     23  O   UNL     1      35.542 -19.430 -20.565  0.00  0.00    -0.472 OA
BRANCH  23  25
ATOM     24  F   UNL     1      34.614 -16.639 -25.202  0.00  0.00    -0.204 F 
ATOM     25  C   UNL     1      35.310 -18.733 -21.721  0.00  0.00    +0.139 C 
ATOM     26  C   UNL     1      35.367 -17.343 -21.713  0.00  0.00    +0.039 C 
ATOM     27  C   UNL     1      35.022 -19.422 -22.895  0.00  0.00    +0.039 C 
ATOM     28  C   UNL     1      35.131 -16.634 -22.891  0.00  0.00    +0.033 C 
ATOM     29  C   UNL     1      34.787 -18.713 -24.072  0.00  0.00    +0.033 C 
ATOM     30  C   UNL     1      34.841 -17.319 -24.071  0.00  0.00    +0.140 C 
ENDBRANCH  23  25
ENDBRANCH  22  23
ENDBRANCH  18  22
ENDBRANCH   3  18
TORSDOF 8
ENDMDL
MODEL 7
REMARK VINA RESULT:      -9.7      3.671      9.974
REMARK  Name = 5288215
REMARK  8 active torsions:
REMARK  status: ('A' for Active; 'I' for Inactive)
REMARK    1  A    between atoms: N_2  and  C_5
REMARK    2  A    between atoms: C_3  and  C_18
REMARK    3  A    between atoms: C_7  and  C_14
REMARK    4  A    between atoms: C_9  and  N_17
REMARK    5  A    between atoms: C_18  and  O_20
REMARK    6  A    between atoms: C_18  and  C_22
REMARK    7  A    between atoms: C_22  and  O_23
REMARK    8  A    between atoms: O_23  and  C_25
REMARK                            x       y       z     vdW  Elec       q    Type
REMARK                         _______ _______ _______ _____ _____    ______ ____
ROOT
ATOM      1  O   UNL     1      33.564 -19.086 -20.893  0.00  0.00    -0.272 OA
ATOM      2  N   UNL     1      35.482 -20.422 -20.780  0.00  0.00    -0.282 N 
ATOM      3  C   UNL     1      34.657 -19.445 -21.325  0.00  0.00    +0.254 C 
ATOM      4  H   UNL     1      36.330 -20.588 -21.253  0.00  0.00    +0.155 HD
ENDROOT
BRANCH   2   5
ATOM      5  C   UNL     1      35.247 -21.208 -19.626  0.00  0.00    +0.050 C 
ATOM      6  C   UNL     1      36.207 -21.251 -18.629  0.00  0.00    +0.020 C 
ATOM      7  C   UNL     1      35.975 -22.027 -17.493  0.00  0.00    +0.095 C 
ATOM      8  C   UNL     1      34.062 -21.917 -19.520  0.00  0.00    +0.016 C 
ATOM      9  C   UNL     1      34.787 -22.747 -17.371  0.00  0.00    +0.147 C 
ATOM     10  C   UNL     1      33.830 -22.692 -18.384  0.00  0.00    +0.025 C 
BRANCH   7  14
ATOM     11  F   UNL     1      36.512 -21.977 -15.162  0.00  0.00    -0.166 F 
ATOM     12  F   UNL     1      37.762 -23.211 -16.434  0.00  0.00    -0.166 F 
ATOM     13  F   UNL     1      37.917 -21.046 -16.535  0.00  0.00    -0.166 F 
ATOM     14  C   UNL     1      37.020 -22.066 -16.426  0.00  0.00    +0.420 C 
ENDBRANCH   7  14
BRANCH   9  17
ATOM     15  O   UNL     1      35.106 -24.653 -16.112  0.00  0.00    -0.126 OA
ATOM     16  O   UNL     1      33.734 -23.116 -15.352  0.00  0.00    -0.126 OA
ATOM     17  N   UNL     1      34.530 -23.545 -16.222  0.00  0.00    +0.058 N 
ENDBRANCH   9  17
ENDBRANCH   2   5
BRANCH   3  18
ATOM     18  C   UNL     1      35.251 -18.800 -22.593  0.00  0.00    +0.197 C 
ATOM     19  C   UNL     1      36.746 -18.524 -22.416  0.00  0.00    +0.043 C 
BRANCH  18  20
ATOM     20  O   UNL     1      35.105 -19.736 -23.660  0.00  0.00    -0.375 OA
ATOM     21  H   UNL     1      35.885 -19.697 -24.234  0.00  0.00    +0.211 HD
ENDBRANCH  18  20
BRANCH  18  22
ATOM     22  C   UNL     1      34.509 -17.522 -23.005  0.00  0.00    +0.241 C 
BRANCH  22  23
ATOM     23  O   UNL     1      34.957 -16.405 -22.243  0.00  0.00    -0.472 OA
BRANCH  23  25
ATOM     24  F   UNL     1      31.373 -12.305 -21.542  0.00  0.00    -0.204 F 
ATOM     25  C   UNL     1      34.063 -15.382 -22.070  0.00  0.00    +0.139 C 
ATOM     26  C   UNL     1      33.616 -14.662 -23.172  0.00  0.00    +0.039 C 
ATOM     27  C   UNL     1      33.610 -15.073 -20.791  0.00  0.00    +0.039 C 
ATOM     28  C   UNL     1      32.705 -13.619 -22.993  0.00  0.00    +0.033 C 
ATOM     29  C   UNL     1      32.699 -14.032 -20.613  0.00  0.00    +0.033 C 
ATOM     30  C   UNL     1      32.247 -13.305 -21.714  0.00  0.00    +0.140 C 
ENDBRANCH  23  25
ENDBRANCH  22  23
ENDBRANCH  18  22
ENDBRANCH   3  18
TORSDOF 8
ENDMDL
MODEL 8
REMARK VINA RESULT:      -9.7      3.235      4.893
REMARK  Name = 5288215
REMARK  8 active torsions:
REMARK  status: ('A' for Active; 'I' for Inactive)
REMARK    1  A    between atoms: N_2  and  C_5
REMARK    2  A    between atoms: C_3  and  C_18
REMARK    3  A    between atoms: C_7  and  C_14
REMARK    4  A    between atoms: C_9  and  N_17
REMARK    5  A    between atoms: C_18  and  O_20
REMARK    6  A    between atoms: C_18  and  C_22
REMARK    7  A    between atoms: C_22  and  O_23
REMARK    8  A    between atoms: O_23  and  C_25
REMARK                            x       y       z     vdW  Elec       q    Type
REMARK                         _______ _______ _______ _____ _____    ______ ____
ROOT
ATOM      1  O   UNL     1      33.628 -20.211 -20.483  0.00  0.00    -0.272 OA
ATOM      2  N   UNL     1      35.625 -19.081 -20.946  0.00  0.00    -0.282 N 
ATOM      3  C   UNL     1      34.853 -20.116 -20.430  0.00  0.00    +0.254 C 
ATOM      4  H   UNL     1      36.598 -19.160 -20.817  0.00  0.00    +0.155 HD
ENDROOT
BRANCH   2   5
ATOM      5  C   UNL     1      35.178 -17.927 -21.634  0.00  0.00    +0.050 C 
ATOM      6  C   UNL     1      34.306 -17.058 -21.001  0.00  0.00    +0.020 C 
ATOM      7  C   UNL     1      33.865 -15.922 -21.680  0.00  0.00    +0.095 C 
ATOM      8  C   UNL     1      35.622 -17.695 -22.924  0.00  0.00    +0.016 C 
ATOM      9  C   UNL     1      34.302 -15.673 -22.981  0.00  0.00    +0.147 C 
ATOM     10  C   UNL     1      35.181 -16.559 -23.603  0.00  0.00    +0.025 C 
BRANCH   7  14
ATOM     11  F   UNL     1      32.308 -15.549 -19.902  0.00  0.00    -0.166 F 
ATOM     12  F   UNL     1      33.522 -13.860 -20.517  0.00  0.00    -0.166 F 
ATOM     13  F   UNL     1      31.916 -14.565 -21.801  0.00  0.00    -0.166 F 
ATOM     14  C   UNL     1      32.922 -14.992 -20.987  0.00  0.00    +0.420 C 
ENDBRANCH   7  14
BRANCH   9  17
ATOM     15  O   UNL     1      33.045 -14.664 -24.630  0.00  0.00    -0.126 OA
ATOM     16  O   UNL     1      34.312 -13.398 -23.361  0.00  0.00    -0.126 OA
ATOM     17  N   UNL     1      33.865 -14.521 -23.693  0.00  0.00    +0.058 N 
ENDBRANCH   9  17
ENDBRANCH   2   5
BRANCH   3  18
ATOM     18  C   UNL     1      35.696 -21.207 -19.743  0.00  0.00    +0.197 C 
ATOM     19  C   UNL     1      36.807 -21.703 -20.671  0.00  0.00    +0.043 C 
BRANCH  18  20
ATOM     20  O   UNL     1      36.315 -20.616 -18.601  0.00  0.00    -0.375 OA
ATOM     21  H   UNL     1      37.008 -20.001 -18.889  0.00  0.00    +0.211 HD
ENDBRANCH  18  20
BRANCH  18  22
ATOM     22  C   UNL     1      34.845 -22.380 -19.242  0.00  0.00    +0.241 C 
BRANCH  22  23
ATOM     23  O   UNL     1      35.159 -22.696 -17.889  0.00  0.00    -0.472 OA
BRANCH  23  25
ATOM     24  F   UNL     1      30.924 -23.713 -14.545  0.00  0.00    -0.204 F 
ATOM     25  C   UNL     1      34.102 -22.949 -17.055  0.00  0.00    +0.139 C 
ATOM     26  C   UNL     1      32.802 -22.821 -17.531  0.00  0.00    +0.039 C 
ATOM     27  C   UNL     1      34.339 -23.334 -15.740  0.00  0.00    +0.039 C 
ATOM     28  C   UNL     1      31.725 -23.079 -16.682  0.00  0.00    +0.033 C 
ATOM     29  C   UNL     1      33.263 -23.593 -14.891  0.00  0.00    +0.033 C 
ATOM     30  C   UNL     1      31.956 -23.465 -15.361  0.00  0.00    +0.140 C 
ENDBRANCH  23  25
ENDBRANCH  22  23
ENDBRANCH  18  22
ENDBRANCH   3  18
TORSDOF 8
ENDMDL
MODEL 9
REMARK VINA RESULT:      -9.5      8.451     13.170
REMARK  Name = 5288215
REMARK  8 active torsions:
REMARK  status: ('A' for Active; 'I' for Inactive)
REMARK    1  A    between atoms: N_2  and  C_5
REMARK    2  A    between atoms: C_3  and  C_18
REMARK    3  A    between atoms: C_7  and  C_14
REMARK    4  A    between atoms: C_9  and  N_17
REMARK    5  A    between atoms: C_18  and  O_20
REMARK    6  A    between atoms: C_18  and  C_22
REMARK    7  A    between atoms: C_22  and  O_23
REMARK    8  A    between atoms: O_23  and  C_25
REMARK                            x       y       z     vdW  Elec       q    Type
REMARK                         _______ _______ _______ _____ _____    ______ ____
ROOT
ATOM      1  O   UNL     1      31.747 -25.373 -14.159  0.00  0.00    -0.272 OA
ATOM      2  N   UNL     1      33.181 -23.656 -14.846  0.00  0.00    -0.282 N 
ATOM      3  C   UNL     1      31.966 -24.327 -14.765  0.00  0.00    +0.254 C 
ATOM      4  H   UNL     1      33.183 -22.826 -15.375  0.00  0.00    +0.155 HD
ENDROOT
BRANCH   2   5
ATOM      5  C   UNL     1      34.414 -24.025 -14.257  0.00  0.00    +0.050 C 
ATOM      6  C   UNL     1      35.201 -24.981 -14.878  0.00  0.00    +0.020 C 
ATOM      7  C   UNL     1      36.416 -25.345 -14.296  0.00  0.00    +0.095 C 
ATOM      8  C   UNL     1      34.805 -23.424 -13.073  0.00  0.00    +0.016 C 
ATOM      9  C   UNL     1      36.825 -24.749 -13.103  0.00  0.00    +0.147 C 
ATOM     10  C   UNL     1      36.020 -23.788 -12.492  0.00  0.00    +0.025 C 
BRANCH   7  14
ATOM     11  F   UNL     1      36.662 -26.923 -16.078  0.00  0.00    -0.166 F 
ATOM     12  F   UNL     1      38.456 -25.902 -15.413  0.00  0.00    -0.166 F 
ATOM     13  F   UNL     1      37.550 -27.430 -14.160  0.00  0.00    -0.166 F 
ATOM     14  C   UNL     1      37.254 -26.379 -14.975  0.00  0.00    +0.420 C 
ENDBRANCH   7  14
BRANCH   9  17
ATOM     15  O   UNL     1      39.094 -24.472 -12.805  0.00  0.00    -0.126 OA
ATOM     16  O   UNL     1      38.075 -26.043 -11.659  0.00  0.00    -0.126 OA
ATOM     17  N   UNL     1      38.059 -25.106 -12.492  0.00  0.00    +0.058 N 
ENDBRANCH   9  17
ENDBRANCH   2   5
BRANCH   3  18
ATOM     18  C   UNL     1      30.839 -23.618 -15.541  0.00  0.00    +0.197 C 
ATOM     19  C   UNL     1      29.845 -24.634 -16.110  0.00  0.00    +0.043 C 
BRANCH  18  20
ATOM     20  O   UNL     1      30.133 -22.792 -14.615  0.00  0.00    -0.375 OA
ATOM     21  H   UNL     1      30.620 -21.964 -14.485  0.00  0.00    +0.211 HD
ENDBRANCH  18  20
BRANCH  18  22
ATOM     22  C   UNL     1      31.373 -22.704 -16.650  0.00  0.00    +0.241 C 
BRANCH  22  23
ATOM     23  O   UNL     1      32.306 -23.395 -17.475  0.00  0.00    -0.472 OA
BRANCH  23  25
ATOM     24  F   UNL     1      35.800 -20.303 -20.370  0.00  0.00    -0.204 F 
ATOM     25  C   UNL     1      33.177 -22.623 -18.198  0.00  0.00    +0.139 C 
ATOM     26  C   UNL     1      32.684 -21.691 -19.105  0.00  0.00    +0.039 C 
ATOM     27  C   UNL     1      34.547 -22.779 -18.018  0.00  0.00    +0.039 C 
ATOM     28  C   UNL     1      33.571 -20.906 -19.841  0.00  0.00    +0.033 C 
ATOM     29  C   UNL     1      35.434 -21.993 -18.753  0.00  0.00    +0.033 C 
ATOM     30  C   UNL     1      34.947 -21.057 -19.665  0.00  0.00    +0.140 C 
ENDBRANCH  23  25
ENDBRANCH  22  23
ENDBRANCH  18  22
ENDBRANCH   3  18
TORSDOF 8
ENDMDL
