MODEL 1
REMARK VINA RESULT:      -9.4      0.000      0.000
REMARK  Name = 3016
REMARK  1 active torsions:
REMARK  status: ('A' for Active; 'I' for Inactive)
REMARK    1  A    between atoms: C_7  and  C_15
REMARK                            x       y       z     vdW  Elec       q    Type
REMARK                         _______ _______ _______ _____ _____    ______ ____
ROOT
ATOM      1 CL   UNL     1      31.279 -11.539 -20.490  0.00  0.00    -0.082 Cl
ATOM      2  O   UNL     1      34.359 -13.242 -27.781  0.00  0.00    -0.272 OA
ATOM      3  N   UNL     1      33.987 -12.069 -25.802  0.00  0.00    -0.255 N 
ATOM      4  N   UNL     1      33.231 -14.974 -25.342  0.00  0.00    -0.261 NA
ATOM      5  C   UNL     1      33.022 -13.117 -23.743  0.00  0.00    +0.032 C 
ATOM      6  C   UNL     1      33.369 -11.984 -24.508  0.00  0.00    +0.055 C 
ATOM      7  C   UNL     1      33.390 -14.506 -24.151  0.00  0.00    +0.078 C 
ATOM      8  C   UNL     1      32.675 -14.090 -26.345  0.00  0.00    +0.210 C 
ATOM      9  C   UNL     1      33.763 -13.112 -26.709  0.00  0.00    +0.254 C 
ATOM     10  C   UNL     1      32.360 -12.971 -22.510  0.00  0.00    +0.014 C 
ATOM     11  C   UNL     1      33.101 -10.716 -23.952  0.00  0.00    +0.016 C 
ATOM     12  C   UNL     1      34.854 -10.969 -26.224  0.00  0.00    +0.120 C 
ATOM     13  C   UNL     1      32.079 -11.706 -22.003  0.00  0.00    +0.058 C 
ATOM     14  C   UNL     1      32.461 -10.579 -22.717  0.00  0.00    +0.013 C 
ENDROOT
BRANCH   7  15
ATOM     15  C   UNL     1      33.997 -15.418 -23.140  0.00  0.00    +0.017 C 
ATOM     16  C   UNL     1      34.070 -15.018 -21.810  0.00  0.00    +0.001 C 
ATOM     17  C   UNL     1      34.481 -16.658 -23.537  0.00  0.00    +0.001 C 
ATOM     18  C   UNL     1      34.637 -15.872 -20.864  0.00  0.00    +0.000 C 
ATOM     19  C   UNL     1      35.048 -17.512 -22.590  0.00  0.00    +0.000 C 
ATOM     20  C   UNL     1      35.126 -17.119 -21.254  0.00  0.00    +0.000 C 
ENDBRANCH   7  15
TORSDOF 1
ENDMDL
MODEL 2
REMARK VINA RESULT:      -9.3     11.765     14.177
REMARK  Name = 3016
REMARK  1 active torsions:
REMARK  status: ('A' for Active; 'I' for Inactive)
REMARK    1  A    between atoms: C_7  and  C_15
REMARK                            x       y       z     vdW  Elec       q    Type
REMARK                         _______ _______ _______ _____ _____    ______ ____
ROOT
ATOM      1 CL   UNL     1      35.755 -21.788 -18.781  0.00  0.00    -0.082 Cl
ATOM      2  O   UNL     1      30.773 -24.504 -13.007  0.00  0.00    -0.272 OA
ATOM      3  N   UNL     1      31.599 -24.103 -15.149  0.00  0.00    -0.255 N 
ATOM      4  N   UNL     1      33.905 -23.888 -13.185  0.00  0.00    -0.261 NA
ATOM      5  C   UNL     1      33.985 -23.500 -15.612  0.00  0.00    +0.032 C 
ATOM      6  C   UNL     1      32.632 -23.587 -16.004  0.00  0.00    +0.055 C 
ATOM      7  C   UNL     1      34.486 -24.062 -14.323  0.00  0.00    +0.078 C 
ATOM      8  C   UNL     1      32.684 -23.110 -13.164  0.00  0.00    +0.210 C 
ATOM      9  C   UNL     1      31.606 -23.984 -13.753  0.00  0.00    +0.254 C 
ATOM     10  C   UNL     1      34.940 -22.926 -16.470  0.00  0.00    +0.014 C 
ATOM     11  C   UNL     1      32.302 -23.156 -17.304  0.00  0.00    +0.016 C 
ATOM     12  C   UNL     1      30.438 -24.735 -15.776  0.00  0.00    +0.120 C 
ATOM     13  C   UNL     1      34.577 -22.479 -17.737  0.00  0.00    +0.058 C 
ATOM     14  C   UNL     1      33.261 -22.605 -18.159  0.00  0.00    +0.013 C 
ENDROOT
BRANCH   7  15
ATOM     15  C   UNL     1      35.723 -24.895 -14.332  0.00  0.00    +0.017 C 
ATOM     16  C   UNL     1      35.804 -25.997 -15.175  0.00  0.00    +0.001 C 
ATOM     17  C   UNL     1      36.782 -24.560 -13.497  0.00  0.00    +0.001 C 
ATOM     18  C   UNL     1      36.961 -26.775 -15.184  0.00  0.00    +0.000 C 
ATOM     19  C   UNL     1      37.940 -25.338 -13.506  0.00  0.00    +0.000 C 
ATOM     20  C   UNL     1      38.029 -26.446 -14.350  0.00  0.00    +0.000 C 
ENDBRANCH   7  15
TORSDOF 1
ENDMDL
MODEL 3
REMARK VINA RESULT:      -8.6     11.939     13.876
REMARK  Name = 3016
REMARK  1 active torsions:
REMARK  status: ('A' for Active; 'I' for Inactive)
REMARK    1  A    between atoms: C_7  and  C_15
REMARK                            x       y       z     vdW  Elec       q    Type
REMARK                         _______ _______ _______ _____ _____    ______ ____
ROOT
ATOM      1 CL   UNL     1      35.752 -21.244 -19.192  0.00  0.00    -0.082 Cl
ATOM      2  O   UNL     1      36.526 -25.495 -12.345  0.00  0.00    -0.272 OA
ATOM      3  N   UNL     1      36.797 -23.737 -13.851  0.00  0.00    -0.255 N 
ATOM      4  N   UNL     1      34.313 -25.294 -14.644  0.00  0.00    -0.261 NA
ATOM      5  C   UNL     1      35.289 -23.364 -15.815  0.00  0.00    +0.032 C 
ATOM      6  C   UNL     1      36.493 -23.130 -15.118  0.00  0.00    +0.055 C 
ATOM      7  C   UNL     1      34.165 -24.157 -15.235  0.00  0.00    +0.078 C 
ATOM      8  C   UNL     1      35.656 -25.821 -14.526  0.00  0.00    +0.210 C 
ATOM      9  C   UNL     1      36.349 -25.006 -13.463  0.00  0.00    +0.254 C 
ATOM     10  C   UNL     1      35.076 -22.791 -17.082  0.00  0.00    +0.014 C 
ATOM     11  C   UNL     1      37.422 -22.245 -15.701  0.00  0.00    +0.016 C 
ATOM     12  C   UNL     1      37.681 -23.015 -12.936  0.00  0.00    +0.120 C 
ATOM     13  C   UNL     1      36.028 -21.947 -17.647  0.00  0.00    +0.058 C 
ATOM     14  C   UNL     1      37.195 -21.664 -16.951  0.00  0.00    +0.013 C 
ENDROOT
BRANCH   7  15
ATOM     15  C   UNL     1      32.780 -23.611 -15.317  0.00  0.00    +0.017 C 
ATOM     16  C   UNL     1      32.212 -23.362 -16.561  0.00  0.00    +0.001 C 
ATOM     17  C   UNL     1      32.072 -23.358 -14.148  0.00  0.00    +0.001 C 
ATOM     18  C   UNL     1      30.916 -22.852 -16.637  0.00  0.00    +0.000 C 
ATOM     19  C   UNL     1      30.775 -22.848 -14.225  0.00  0.00    +0.000 C 
ATOM     20  C   UNL     1      30.197 -22.596 -15.470  0.00  0.00    +0.000 C 
ENDBRANCH   7  15
TORSDOF 1
ENDMDL
MODEL 4
REMARK VINA RESULT:      -8.6      3.134      6.600
REMARK  Name = 3016
REMARK  1 active torsions:
REMARK  status: ('A' for Active; 'I' for Inactive)
REMARK    1  A    between atoms: C_7  and  C_15
REMARK                            x       y       z     vdW  Elec       q    Type
REMARK                         _______ _______ _______ _____ _____    ______ ____
ROOT
ATOM      1 CL   UNL     1      30.883 -10.717 -19.548  0.00  0.00    -0.082 Cl
ATOM      2  O   UNL     1      35.391 -10.487 -26.269  0.00  0.00    -0.272 OA
ATOM      3  N   UNL     1      33.720 -11.178 -24.798  0.00  0.00    -0.255 N 
ATOM      4  N   UNL     1      34.554  -8.360 -24.034  0.00  0.00    -0.261 NA
ATOM      5  C   UNL     1      32.910  -9.783 -22.884  0.00  0.00    +0.032 C 
ATOM      6  C   UNL     1      33.018 -11.019 -23.555  0.00  0.00    +0.055 C 
ATOM      7  C   UNL     1      33.401  -8.502 -23.474  0.00  0.00    +0.078 C 
ATOM      8  C   UNL     1      35.416  -9.522 -24.104  0.00  0.00    +0.210 C 
ATOM      9  C   UNL     1      34.840 -10.422 -25.168  0.00  0.00    +0.254 C 
ATOM     10  C   UNL     1      32.264  -9.702 -21.637  0.00  0.00    +0.014 C 
ATOM     11  C   UNL     1      32.387 -12.135 -22.969  0.00  0.00    +0.016 C 
ATOM     12  C   UNL     1      33.280 -12.237 -25.707  0.00  0.00    +0.120 C 
ATOM     13  C   UNL     1      31.679 -10.829 -21.068  0.00  0.00    +0.058 C 
ATOM     14  C   UNL     1      31.729 -12.043 -21.740  0.00  0.00    +0.013 C 
ENDROOT
BRANCH   7  15
ATOM     15  C   UNL     1      32.512  -7.305 -23.441  0.00  0.00    +0.017 C 
ATOM     16  C   UNL     1      32.524  -6.471 -22.330  0.00  0.00    +0.001 C 
ATOM     17  C   UNL     1      31.682  -7.037 -24.523  0.00  0.00    +0.001 C 
ATOM     18  C   UNL     1      31.693  -5.350 -22.300  0.00  0.00    +0.000 C 
ATOM     19  C   UNL     1      30.851  -5.916 -24.493  0.00  0.00    +0.000 C 
ATOM     20  C   UNL     1      30.857  -5.073 -23.381  0.00  0.00    +0.000 C 
ENDBRANCH   7  15
TORSDOF 1
ENDMDL
MODEL 5
REMARK VINA RESULT:      -8.5      1.728      4.614
REMARK  Name = 3016
REMARK  1 active torsions:
REMARK  status: ('A' for Active; 'I' for Inactive)
REMARK    1  A    between atoms: C_7  and  C_15
REMARK                            x       y       z     vdW  Elec       q    Type
REMARK                         _______ _______ _______ _____ _____    ______ ____
ROOT
ATOM      1 CL   UNL     1      35.069 -16.039 -20.593  0.00  0.00    -0.082 Cl
ATOM      2  O   UNL     1      32.992 -12.650 -27.647  0.00  0.00    -0.272 OA
ATOM      3  N   UNL     1      33.146 -14.271 -25.979  0.00  0.00    -0.255 N 
ATOM      4  N   UNL     1      33.625 -11.554 -24.711  0.00  0.00    -0.261 NA
ATOM      5  C   UNL     1      33.722 -13.746 -23.600  0.00  0.00    +0.032 C 
ATOM      6  C   UNL     1      33.571 -14.661 -24.663  0.00  0.00    +0.055 C 
ATOM      7  C   UNL     1      33.324 -12.311 -23.711  0.00  0.00    +0.078 C 
ATOM      8  C   UNL     1      34.383 -12.141 -25.796  0.00  0.00    +0.210 C 
ATOM      9  C   UNL     1      33.431 -13.028 -26.558  0.00  0.00    +0.254 C 
ATOM     10  C   UNL     1      34.203 -14.177 -22.350  0.00  0.00    +0.014 C 
ATOM     11  C   UNL     1      33.840 -16.018 -24.397  0.00  0.00    +0.016 C 
ATOM     12  C   UNL     1      32.429 -15.255 -26.791  0.00  0.00    +0.120 C 
ATOM     13  C   UNL     1      34.491 -15.521 -22.128  0.00  0.00    +0.058 C 
ATOM     14  C   UNL     1      34.298 -16.443 -23.147  0.00  0.00    +0.013 C 
ENDROOT
BRANCH   7  15
ATOM     15  C   UNL     1      32.513 -11.700 -22.619  0.00  0.00    +0.017 C 
ATOM     16  C   UNL     1      31.895 -12.520 -21.682  0.00  0.00    +0.001 C 
ATOM     17  C   UNL     1      32.385 -10.319 -22.549  0.00  0.00    +0.001 C 
ATOM     18  C   UNL     1      31.137 -11.949 -20.660  0.00  0.00    +0.000 C 
ATOM     19  C   UNL     1      31.627  -9.747 -21.527  0.00  0.00    +0.000 C 
ATOM     20  C   UNL     1      31.004 -10.563 -20.582  0.00  0.00    +0.000 C 
ENDBRANCH   7  15
TORSDOF 1
ENDMDL
MODEL 6
REMARK VINA RESULT:      -8.2      4.426      6.201
REMARK  Name = 3016
REMARK  1 active torsions:
REMARK  status: ('A' for Active; 'I' for Inactive)
REMARK    1  A    between atoms: C_7  and  C_15
REMARK                            x       y       z     vdW  Elec       q    Type
REMARK                         _______ _______ _______ _____ _____    ______ ____
ROOT
ATOM      1 CL   UNL     1      31.838 -13.480 -20.566  0.00  0.00    -0.082 Cl
ATOM      2  O   UNL     1      31.544  -5.538 -22.108  0.00  0.00    -0.272 OA
ATOM      3  N   UNL     1      31.996  -7.508 -20.950  0.00  0.00    -0.255 N 
ATOM      4  N   UNL     1      31.700  -8.184 -23.895  0.00  0.00    -0.261 NA
ATOM      5  C   UNL     1      32.090  -9.758 -22.046  0.00  0.00    +0.032 C 
ATOM      6  C   UNL     1      31.997  -8.944 -20.897  0.00  0.00    +0.055 C 
ATOM      7  C   UNL     1      32.331  -9.198 -23.409  0.00  0.00    +0.078 C 
ATOM      8  C   UNL     1      30.709  -7.543 -23.057  0.00  0.00    +0.210 C 
ATOM      9  C   UNL     1      31.466  -6.764 -22.011  0.00  0.00    +0.254 C 
ATOM     10  C   UNL     1      32.022 -11.158 -21.936  0.00  0.00    +0.014 C 
ATOM     11  C   UNL     1      31.918  -9.590 -19.647  0.00  0.00    +0.016 C 
ATOM     12  C   UNL     1      32.522  -6.777 -19.797  0.00  0.00    +0.120 C 
ATOM     13  C   UNL     1      31.910 -11.766 -20.689  0.00  0.00    +0.058 C 
ATOM     14  C   UNL     1      31.872 -10.983 -19.544  0.00  0.00    +0.013 C 
ENDROOT
BRANCH   7  15
ATOM     15  C   UNL     1      33.373  -9.825 -24.272  0.00  0.00    +0.017 C 
ATOM     16  C   UNL     1      34.607  -9.202 -24.421  0.00  0.00    +0.001 C 
ATOM     17  C   UNL     1      33.101 -11.025 -24.917  0.00  0.00    +0.001 C 
ATOM     18  C   UNL     1      35.582  -9.789 -25.228  0.00  0.00    +0.000 C 
ATOM     19  C   UNL     1      34.076 -11.612 -25.723  0.00  0.00    +0.000 C 
ATOM     20  C   UNL     1      35.317 -10.993 -25.878  0.00  0.00    +0.000 C 
ENDBRANCH   7  15
TORSDOF 1
ENDMDL
MODEL 7
REMARK VINA RESULT:      -7.9     13.400     15.882
REMARK  Name = 3016
REMARK  1 active torsions:
REMARK  status: ('A' for Active; 'I' for Inactive)
REMARK    1  A    between atoms: C_7  and  C_15
REMARK                            x       y       z     vdW  Elec       q    Type
REMARK                         _______ _______ _______ _____ _____    ______ ____
ROOT
ATOM      1 CL   UNL     1      36.941 -27.829 -16.548  0.00  0.00    -0.082 Cl
ATOM      2  O   UNL     1      36.741 -22.779 -10.222  0.00  0.00    -0.272 OA
ATOM      3  N   UNL     1      37.561 -23.837 -12.130  0.00  0.00    -0.255 N 
ATOM      4  N   UNL     1      34.540 -24.144 -12.097  0.00  0.00    -0.261 NA
ATOM      5  C   UNL     1      36.106 -25.077 -13.748  0.00  0.00    +0.032 C 
ATOM      6  C   UNL     1      37.373 -24.762 -13.213  0.00  0.00    +0.055 C 
ATOM      7  C   UNL     1      34.859 -24.373 -13.326  0.00  0.00    +0.078 C 
ATOM      8  C   UNL     1      35.460 -24.585 -11.069  0.00  0.00    +0.210 C 
ATOM      9  C   UNL     1      36.631 -23.636 -11.102  0.00  0.00    +0.254 C 
ATOM     10  C   UNL     1      35.980 -26.039 -14.767  0.00  0.00    +0.014 C 
ATOM     11  C   UNL     1      38.497 -25.385 -13.793  0.00  0.00    +0.016 C 
ATOM     12  C   UNL     1      38.827 -23.107 -12.060  0.00  0.00    +0.120 C 
ATOM     13  C   UNL     1      37.107 -26.661 -15.296  0.00  0.00    +0.058 C 
ATOM     14  C   UNL     1      38.366 -26.325 -14.819  0.00  0.00    +0.013 C 
ENDROOT
BRANCH   7  15
ATOM     15  C   UNL     1      33.918 -23.881 -14.373  0.00  0.00    +0.017 C 
ATOM     16  C   UNL     1      34.396 -23.598 -15.647  0.00  0.00    +0.001 C 
ATOM     17  C   UNL     1      32.574 -23.713 -14.064  0.00  0.00    +0.001 C 
ATOM     18  C   UNL     1      33.515 -23.138 -16.627  0.00  0.00    +0.000 C 
ATOM     19  C   UNL     1      31.693 -23.253 -15.044  0.00  0.00    +0.000 C 
ATOM     20  C   UNL     1      32.165 -22.967 -16.326  0.00  0.00    +0.000 C 
ENDBRANCH   7  15
TORSDOF 1
ENDMDL
MODEL 8
REMARK VINA RESULT:      -7.7      2.975      5.781
REMARK  Name = 3016
REMARK  1 active torsions:
REMARK  status: ('A' for Active; 'I' for Inactive)
REMARK    1  A    between atoms: C_7  and  C_15
REMARK                            x       y       z     vdW  Elec       q    Type
REMARK                         _______ _______ _______ _____ _____    ______ ____
ROOT
ATOM      1 CL   UNL     1      32.104 -13.668 -27.893  0.00  0.00    -0.082 Cl
ATOM      2  O   UNL     1      33.950 -15.342 -20.189  0.00  0.00    -0.272 OA
ATOM      3  N   UNL     1      34.108 -15.368 -22.514  0.00  0.00    -0.255 N 
ATOM      4  N   UNL     1      32.531 -12.906 -21.696  0.00  0.00    -0.261 NA
ATOM      5  C   UNL     1      33.025 -13.656 -23.986  0.00  0.00    +0.032 C 
ATOM      6  C   UNL     1      33.646 -14.909 -23.795  0.00  0.00    +0.055 C 
ATOM      7  C   UNL     1      32.916 -12.639 -22.898  0.00  0.00    +0.078 C 
ATOM      8  C   UNL     1      32.200 -14.280 -21.385  0.00  0.00    +0.210 C 
ATOM      9  C   UNL     1      33.505 -15.029 -21.296  0.00  0.00    +0.254 C 
ATOM     10  C   UNL     1      32.536 -13.288 -25.252  0.00  0.00    +0.014 C 
ATOM     11  C   UNL     1      33.824 -15.727 -24.929  0.00  0.00    +0.016 C 
ATOM     12  C   UNL     1      35.237 -16.299 -22.483  0.00  0.00    +0.120 C 
ATOM     13  C   UNL     1      32.698 -14.133 -26.347  0.00  0.00    +0.058 C 
ATOM     14  C   UNL     1      33.353 -15.346 -26.188  0.00  0.00    +0.013 C 
ENDROOT
BRANCH   7  15
ATOM     15  C   UNL     1      33.287 -11.225 -23.193  0.00  0.00    +0.017 C 
ATOM     16  C   UNL     1      34.389 -10.958 -23.998  0.00  0.00    +0.001 C 
ATOM     17  C   UNL     1      32.528 -10.191 -22.661  0.00  0.00    +0.001 C 
ATOM     18  C   UNL     1      34.735  -9.635 -24.274  0.00  0.00    +0.000 C 
ATOM     19  C   UNL     1      32.874  -8.868 -22.937  0.00  0.00    +0.000 C 
ATOM     20  C   UNL     1      33.978  -8.590 -23.745  0.00  0.00    +0.000 C 
ENDBRANCH   7  15
TORSDOF 1
ENDMDL
MODEL 9
REMARK VINA RESULT:      -7.7      4.063      7.599
REMARK  Name = 3016
REMARK  1 active torsions:
REMARK  status: ('A' for Active; 'I' for Inactive)
REMARK    1  A    between atoms: C_7  and  C_15
REMARK                            x       y       z     vdW  Elec       q    Type
REMARK                         _______ _______ _______ _____ _____    ______ ____
ROOT
ATOM      1 CL   UNL     1      32.361  -6.153 -19.270  0.00  0.00    -0.082 Cl
ATOM      2  O   UNL     1      33.989 -11.503 -25.125  0.00  0.00    -0.272 OA
ATOM      3  N   UNL     1      32.896 -10.543 -23.304  0.00  0.00    -0.255 N 
ATOM      4  N   UNL     1      34.443  -8.362 -24.742  0.00  0.00    -0.261 NA
ATOM      5  C   UNL     1      33.124  -8.129 -22.680  0.00  0.00    +0.032 C 
ATOM      6  C   UNL     1      32.750  -9.456 -22.377  0.00  0.00    +0.055 C 
ATOM      7  C   UNL     1      33.578  -7.712 -24.040  0.00  0.00    +0.078 C 
ATOM      8  C   UNL     1      34.993  -9.576 -24.178  0.00  0.00    +0.210 C 
ATOM      9  C   UNL     1      33.911 -10.622 -24.265  0.00  0.00    +0.254 C 
ATOM     10  C   UNL     1      33.017  -7.118 -21.707  0.00  0.00    +0.014 C 
ATOM     11  C   UNL     1      32.197  -9.701 -21.104  0.00  0.00    +0.016 C 
ATOM     12  C   UNL     1      31.966 -11.668 -23.198  0.00  0.00    +0.120 C 
ATOM     13  C   UNL     1      32.496  -7.399 -20.447  0.00  0.00    +0.058 C 
ATOM     14  C   UNL     1      32.075  -8.688 -20.150  0.00  0.00    +0.013 C 
ENDROOT
BRANCH   7  15
ATOM     15  C   UNL     1      32.994  -6.483 -24.650  0.00  0.00    +0.017 C 
ATOM     16  C   UNL     1      33.732  -5.763 -25.582  0.00  0.00    +0.001 C 
ATOM     17  C   UNL     1      31.720  -6.072 -24.281  0.00  0.00    +0.001 C 
ATOM     18  C   UNL     1      33.185  -4.613 -26.153  0.00  0.00    +0.000 C 
ATOM     19  C   UNL     1      31.173  -4.922 -24.852  0.00  0.00    +0.000 C 
ATOM     20  C   UNL     1      31.907  -4.194 -25.789  0.00  0.00    +0.000 C 
ENDBRANCH   7  15
TORSDOF 1
ENDMDL
