MODEL 1
REMARK VINA RESULT:      -6.8      0.000      0.000
REMARK  Name = 446977
REMARK  12 active torsions:
REMARK  status: ('A' for Active; 'I' for Inactive)
REMARK    1  A    between atoms: C_1  and  C_2
REMARK    2  A    between atoms: C_1  and  C_10
REMARK    3  A    between atoms: C_2  and  C_3
REMARK    4  A    between atoms: C_3  and  C_4
REMARK    5  A    between atoms: C_4  and  C_5
REMARK    6  A    between atoms: C_5  and  C_6
REMARK    7  A    between atoms: C_6  and  C_7
REMARK    8  A    between atoms: C_7  and  C_8
REMARK    9  A    between atoms: C_10  and  C_11
REMARK   10  A    between atoms: C_11  and  P_12
REMARK   11  A    between atoms: P_12  and  O_14
REMARK   12  A    between atoms: P_12  and  O_16
REMARK                            x       y       z     vdW  Elec       q    Type
REMARK                         _______ _______ _______ _____ _____    ______ ____
ROOT
ATOM      1  C   UNL     1      35.797 -22.970 -15.836  0.00  0.00    +0.001 C 
ENDROOT
BRANCH   1   2
ATOM      2  C   UNL     1      37.037 -22.283 -16.412  0.00  0.00    +0.000 C 
BRANCH   2   3
ATOM      3  C   UNL     1      36.742 -21.663 -17.780  0.00  0.00    +0.000 C 
BRANCH   3   4
ATOM      4  C   UNL     1      35.397 -22.144 -18.330  0.00  0.00    +0.000 C 
BRANCH   4   5
ATOM      5  C   UNL     1      34.977 -21.328 -19.554  0.00  0.00    +0.000 C 
BRANCH   5   6
ATOM      6  C   UNL     1      33.460 -21.144 -19.672  0.00  0.00    +0.000 C 
BRANCH   6   7
ATOM      7  C   UNL     1      33.053 -20.106 -20.720  0.00  0.00    +0.000 C 
BRANCH   7   8
ATOM      8  C   UNL     1      34.227 -19.193 -21.079  0.00  0.00    +0.000 C 
ATOM      9  C   UNL     1      34.553 -19.264 -22.563  0.00  0.00    +0.000 C 
ENDBRANCH   7   8
ENDBRANCH   6   7
ENDBRANCH   5   6
ENDBRANCH   4   5
ENDBRANCH   3   4
ENDBRANCH   2   3
ENDBRANCH   1   2
BRANCH   1  10
ATOM     10  C   UNL     1      36.128 -24.070 -14.826  0.00  0.00    +0.013 C 
BRANCH  10  11
ATOM     11  C   UNL     1      37.585 -24.516 -14.861  0.00  0.00    +0.116 C 
BRANCH  11  12
ATOM     12  P   UNL     1      37.752 -26.298 -14.602  0.00  0.00    +0.340 P 
ATOM     13  O   UNL     1      37.109 -26.760 -13.339  0.00  0.00    -0.258 OA
BRANCH  12  14
ATOM     14  O   UNL     1      39.333 -26.580 -14.713  0.00  0.00    -0.291 OA
ATOM     15  C   UNL     1      40.259 -25.531 -14.937  0.00  0.00    +0.184 C 
ENDBRANCH  12  14
BRANCH  12  16
ATOM     16  O   UNL     1      37.124 -26.913 -15.952  0.00  0.00    -0.323 OA
ATOM     17  H   UNL     1      37.830 -27.310 -16.486  0.00  0.00    +0.220 HD
ENDBRANCH  12  16
ENDBRANCH  11  12
ENDBRANCH  10  11
ENDBRANCH   1  10
TORSDOF 12
ENDMDL
MODEL 2
REMARK VINA RESULT:      -6.5      4.362      6.260
REMARK  Name = 446977
REMARK  12 active torsions:
REMARK  status: ('A' for Active; 'I' for Inactive)
REMARK    1  A    between atoms: C_1  and  C_2
REMARK    2  A    between atoms: C_1  and  C_10
REMARK    3  A    between atoms: C_2  and  C_3
REMARK    4  A    between atoms: C_3  and  C_4
REMARK    5  A    between atoms: C_4  and  C_5
REMARK    6  A    between atoms: C_5  and  C_6
REMARK    7  A    between atoms: C_6  and  C_7
REMARK    8  A    between atoms: C_7  and  C_8
REMARK    9  A    between atoms: C_10  and  C_11
REMARK   10  A    between atoms: C_11  and  P_12
REMARK   11  A    between atoms: P_12  and  O_14
REMARK   12  A    between atoms: P_12  and  O_16
REMARK                            x       y       z     vdW  Elec       q    Type
REMARK                         _______ _______ _______ _____ _____    ______ ____
ROOT
ATOM      1  C   UNL     1      36.372 -19.869 -20.535  0.00  0.00    +0.001 C 
ENDROOT
BRANCH   1   2
ATOM      2  C   UNL     1      35.175 -18.997 -20.920  0.00  0.00    +0.000 C 
BRANCH   2   3
ATOM      3  C   UNL     1      34.561 -19.455 -22.245  0.00  0.00    +0.000 C 
BRANCH   3   4
ATOM      4  C   UNL     1      34.850 -18.457 -23.368  0.00  0.00    +0.000 C 
BRANCH   4   5
ATOM      5  C   UNL     1      35.406 -17.144 -22.812  0.00  0.00    +0.000 C 
BRANCH   5   6
ATOM      6  C   UNL     1      34.751 -15.900 -23.419  0.00  0.00    +0.000 C 
BRANCH   6   7
ATOM      7  C   UNL     1      34.478 -14.795 -22.396  0.00  0.00    +0.000 C 
BRANCH   7   8
ATOM      8  C   UNL     1      34.221 -15.380 -21.007  0.00  0.00    +0.000 C 
ATOM      9  C   UNL     1      32.748 -15.302 -20.634  0.00  0.00    +0.000 C 
ENDBRANCH   7   8
ENDBRANCH   6   7
ENDBRANCH   5   6
ENDBRANCH   4   5
ENDBRANCH   3   4
ENDBRANCH   2   3
ENDBRANCH   1   2
BRANCH   1  10
ATOM     10  C   UNL     1      36.011 -21.342 -20.340  0.00  0.00    +0.013 C 
BRANCH  10  11
ATOM     11  C   UNL     1      35.603 -21.689 -18.913  0.00  0.00    +0.116 C 
BRANCH  11  12
ATOM     12  P   UNL     1      33.932 -22.378 -18.837  0.00  0.00    +0.340 P 
ATOM     13  O   UNL     1      32.892 -21.419 -19.306  0.00  0.00    -0.258 OA
BRANCH  12  14
ATOM     14  O   UNL     1      33.768 -22.884 -17.319  0.00  0.00    -0.291 OA
ATOM     15  C   UNL     1      32.505 -23.256 -16.793  0.00  0.00    +0.184 C 
ENDBRANCH  12  14
BRANCH  12  16
ATOM     16  O   UNL     1      34.063 -23.723 -19.713  0.00  0.00    -0.323 OA
ATOM     17  H   UNL     1      34.765 -24.282 -19.345  0.00  0.00    +0.220 HD
ENDBRANCH  12  16
ENDBRANCH  11  12
ENDBRANCH  10  11
ENDBRANCH   1  10
TORSDOF 12
ENDMDL
MODEL 3
REMARK VINA RESULT:      -6.5      1.263      2.136
REMARK  Name = 446977
REMARK  12 active torsions:
REMARK  status: ('A' for Active; 'I' for Inactive)
REMARK    1  A    between atoms: C_1  and  C_2
REMARK    2  A    between atoms: C_1  and  C_10
REMARK    3  A    between atoms: C_2  and  C_3
REMARK    4  A    between atoms: C_3  and  C_4
REMARK    5  A    between atoms: C_4  and  C_5
REMARK    6  A    between atoms: C_5  and  C_6
REMARK    7  A    between atoms: C_6  and  C_7
REMARK    8  A    between atoms: C_7  and  C_8
REMARK    9  A    between atoms: C_10  and  C_11
REMARK   10  A    between atoms: C_11  and  P_12
REMARK   11  A    between atoms: P_12  and  O_14
REMARK   12  A    between atoms: P_12  and  O_16
REMARK                            x       y       z     vdW  Elec       q    Type
REMARK                         _______ _______ _______ _____ _____    ______ ____
ROOT
ATOM      1  C   UNL     1      37.040 -21.653 -16.440  0.00  0.00    +0.001 C 
ENDROOT
BRANCH   1   2
ATOM      2  C   UNL     1      36.745 -21.699 -17.940  0.00  0.00    +0.000 C 
BRANCH   2   3
ATOM      3  C   UNL     1      35.295 -22.113 -18.207  0.00  0.00    +0.000 C 
BRANCH   3   4
ATOM      4  C   UNL     1      34.852 -21.714 -19.617  0.00  0.00    +0.000 C 
BRANCH   4   5
ATOM      5  C   UNL     1      33.404 -21.222 -19.623  0.00  0.00    +0.000 C 
BRANCH   5   6
ATOM      6  C   UNL     1      33.148 -20.095 -20.629  0.00  0.00    +0.000 C 
BRANCH   6   7
ATOM      7  C   UNL     1      34.408 -19.305 -20.991  0.00  0.00    +0.000 C 
BRANCH   7   8
ATOM      8  C   UNL     1      34.649 -19.313 -22.501  0.00  0.00    +0.000 C 
ATOM      9  C   UNL     1      35.533 -18.152 -22.930  0.00  0.00    +0.000 C 
ENDBRANCH   7   8
ENDBRANCH   6   7
ENDBRANCH   5   6
ENDBRANCH   4   5
ENDBRANCH   3   4
ENDBRANCH   2   3
ENDBRANCH   1   2
BRANCH   1  10
ATOM     10  C   UNL     1      37.540 -22.987 -15.880  0.00  0.00    +0.013 C 
BRANCH  10  11
ATOM     11  C   UNL     1      36.487 -23.750 -15.086  0.00  0.00    +0.116 C 
BRANCH  11  12
ATOM     12  P   UNL     1      36.939 -25.488 -14.862  0.00  0.00    +0.340 P 
ATOM     13  O   UNL     1      36.048 -26.416 -15.615  0.00  0.00    -0.258 OA
BRANCH  12  14
ATOM     14  O   UNL     1      36.966 -25.701 -13.267  0.00  0.00    -0.291 OA
ATOM     15  C   UNL     1      36.155 -24.925 -12.402  0.00  0.00    +0.184 C 
ENDBRANCH  12  14
BRANCH  12  16
ATOM     16  O   UNL     1      38.485 -25.513 -15.312  0.00  0.00    -0.323 OA
ATOM     17  H   UNL     1      38.650 -24.795 -15.944  0.00  0.00    +0.220 HD
ENDBRANCH  12  16
ENDBRANCH  11  12
ENDBRANCH  10  11
ENDBRANCH   1  10
TORSDOF 12
ENDMDL
MODEL 4
REMARK VINA RESULT:      -6.3      1.783      2.952
REMARK  Name = 446977
REMARK  12 active torsions:
REMARK  status: ('A' for Active; 'I' for Inactive)
REMARK    1  A    between atoms: C_1  and  C_2
REMARK    2  A    between atoms: C_1  and  C_10
REMARK    3  A    between atoms: C_2  and  C_3
REMARK    4  A    between atoms: C_3  and  C_4
REMARK    5  A    between atoms: C_4  and  C_5
REMARK    6  A    between atoms: C_5  and  C_6
REMARK    7  A    between atoms: C_6  and  C_7
REMARK    8  A    between atoms: C_7  and  C_8
REMARK    9  A    between atoms: C_10  and  C_11
REMARK   10  A    between atoms: C_11  and  P_12
REMARK   11  A    between atoms: P_12  and  O_14
REMARK   12  A    between atoms: P_12  and  O_16
REMARK                            x       y       z     vdW  Elec       q    Type
REMARK                         _______ _______ _______ _____ _____    ______ ____
ROOT
ATOM      1  C   UNL     1      36.698 -21.640 -18.022  0.00  0.00    +0.001 C 
ENDROOT
BRANCH   1   2
ATOM      2  C   UNL     1      35.263 -22.116 -18.257  0.00  0.00    +0.000 C 
BRANCH   2   3
ATOM      3  C   UNL     1      34.787 -21.761 -19.668  0.00  0.00    +0.000 C 
BRANCH   3   4
ATOM      4  C   UNL     1      33.343 -21.253 -19.658  0.00  0.00    +0.000 C 
BRANCH   4   5
ATOM      5  C   UNL     1      33.184 -20.022 -20.552  0.00  0.00    +0.000 C 
BRANCH   5   6
ATOM      6  C   UNL     1      34.499 -19.553 -21.182  0.00  0.00    +0.000 C 
BRANCH   6   7
ATOM      7  C   UNL     1      34.489 -18.076 -21.583  0.00  0.00    +0.000 C 
BRANCH   7   8
ATOM      8  C   UNL     1      35.022 -17.886 -23.004  0.00  0.00    +0.000 C 
ATOM      9  C   UNL     1      34.933 -19.174 -23.809  0.00  0.00    +0.000 C 
ENDBRANCH   7   8
ENDBRANCH   6   7
ENDBRANCH   5   6
ENDBRANCH   4   5
ENDBRANCH   3   4
ENDBRANCH   2   3
ENDBRANCH   1   2
BRANCH   1  10
ATOM     10  C   UNL     1      37.142 -21.752 -16.562  0.00  0.00    +0.013 C 
BRANCH  10  11
ATOM     11  C   UNL     1      36.525 -22.932 -15.823  0.00  0.00    +0.116 C 
BRANCH  11  12
ATOM     12  P   UNL     1      37.755 -23.845 -14.861  0.00  0.00    +0.340 P 
ATOM     13  O   UNL     1      39.102 -23.842 -15.498  0.00  0.00    -0.258 OA
BRANCH  12  14
ATOM     14  O   UNL     1      37.102 -25.299 -14.638  0.00  0.00    -0.291 OA
ATOM     15  C   UNL     1      35.794 -25.602 -15.092  0.00  0.00    +0.184 C 
ENDBRANCH  12  14
BRANCH  12  16
ATOM     16  O   UNL     1      37.681 -23.130 -13.420  0.00  0.00    -0.323 OA
ATOM     17  H   UNL     1      37.255 -23.726 -12.783  0.00  0.00    +0.220 HD
ENDBRANCH  12  16
ENDBRANCH  11  12
ENDBRANCH  10  11
ENDBRANCH   1  10
TORSDOF 12
ENDMDL
MODEL 5
REMARK VINA RESULT:      -6.3      4.139      6.051
REMARK  Name = 446977
REMARK  12 active torsions:
REMARK  status: ('A' for Active; 'I' for Inactive)
REMARK    1  A    between atoms: C_1  and  C_2
REMARK    2  A    between atoms: C_1  and  C_10
REMARK    3  A    between atoms: C_2  and  C_3
REMARK    4  A    between atoms: C_3  and  C_4
REMARK    5  A    between atoms: C_4  and  C_5
REMARK    6  A    between atoms: C_5  and  C_6
REMARK    7  A    between atoms: C_6  and  C_7
REMARK    8  A    between atoms: C_7  and  C_8
REMARK    9  A    between atoms: C_10  and  C_11
REMARK   10  A    between atoms: C_11  and  P_12
REMARK   11  A    between atoms: P_12  and  O_14
REMARK   12  A    between atoms: P_12  and  O_16
REMARK                            x       y       z     vdW  Elec       q    Type
REMARK                         _______ _______ _______ _____ _____    ______ ____
ROOT
ATOM      1  C   UNL     1      36.147 -19.978 -20.475  0.00  0.00    +0.001 C 
ENDROOT
BRANCH   1   2
ATOM      2  C   UNL     1      35.282 -19.494 -21.641  0.00  0.00    +0.000 C 
BRANCH   2   3
ATOM      3  C   UNL     1      34.079 -18.690 -21.141  0.00  0.00    +0.000 C 
BRANCH   3   4
ATOM      4  C   UNL     1      34.401 -17.196 -21.062  0.00  0.00    +0.000 C 
BRANCH   4   5
ATOM      5  C   UNL     1      35.128 -16.719 -22.321  0.00  0.00    +0.000 C 
BRANCH   5   6
ATOM      6  C   UNL     1      34.290 -15.771 -23.185  0.00  0.00    +0.000 C 
BRANCH   6   7
ATOM      7  C   UNL     1      34.143 -16.239 -24.635  0.00  0.00    +0.000 C 
BRANCH   7   8
ATOM      8  C   UNL     1      34.956 -17.508 -24.891  0.00  0.00    +0.000 C 
ATOM      9  C   UNL     1      34.055 -18.718 -25.085  0.00  0.00    +0.000 C 
ENDBRANCH   7   8
ENDBRANCH   6   7
ENDBRANCH   5   6
ENDBRANCH   4   5
ENDBRANCH   3   4
ENDBRANCH   2   3
ENDBRANCH   1   2
BRANCH   1  10
ATOM     10  C   UNL     1      36.011 -21.477 -20.201  0.00  0.00    +0.013 C 
BRANCH  10  11
ATOM     11  C   UNL     1      35.414 -21.799 -18.837  0.00  0.00    +0.116 C 
BRANCH  11  12
ATOM     12  P   UNL     1      33.768 -22.538 -18.977  0.00  0.00    +0.340 P 
ATOM     13  O   UNL     1      32.811 -21.675 -19.726  0.00  0.00    -0.258 OA
BRANCH  12  14
ATOM     14  O   UNL     1      33.346 -22.883 -17.463  0.00  0.00    -0.291 OA
ATOM     15  C   UNL     1      34.313 -23.213 -16.481  0.00  0.00    +0.184 C 
ENDBRANCH  12  14
BRANCH  12  16
ATOM     16  O   UNL     1      34.078 -23.964 -19.659  0.00  0.00    -0.323 OA
ATOM     17  H   UNL     1      35.030 -24.146 -19.611  0.00  0.00    +0.220 HD
ENDBRANCH  12  16
ENDBRANCH  11  12
ENDBRANCH  10  11
ENDBRANCH   1  10
TORSDOF 12
ENDMDL
MODEL 6
REMARK VINA RESULT:      -6.3      2.302      3.610
REMARK  Name = 446977
REMARK  12 active torsions:
REMARK  status: ('A' for Active; 'I' for Inactive)
REMARK    1  A    between atoms: C_1  and  C_2
REMARK    2  A    between atoms: C_1  and  C_10
REMARK    3  A    between atoms: C_2  and  C_3
REMARK    4  A    between atoms: C_3  and  C_4
REMARK    5  A    between atoms: C_4  and  C_5
REMARK    6  A    between atoms: C_5  and  C_6
REMARK    7  A    between atoms: C_6  and  C_7
REMARK    8  A    between atoms: C_7  and  C_8
REMARK    9  A    between atoms: C_10  and  C_11
REMARK   10  A    between atoms: C_11  and  P_12
REMARK   11  A    between atoms: P_12  and  O_14
REMARK   12  A    between atoms: P_12  and  O_16
REMARK                            x       y       z     vdW  Elec       q    Type
REMARK                         _______ _______ _______ _____ _____    ______ ____
ROOT
ATOM      1  C   UNL     1      36.125 -21.671 -18.610  0.00  0.00    +0.001 C 
ENDROOT
BRANCH   1   2
ATOM      2  C   UNL     1      34.882 -22.048 -19.418  0.00  0.00    +0.000 C 
BRANCH   2   3
ATOM      3  C   UNL     1      34.228 -20.811 -20.037  0.00  0.00    +0.000 C 
BRANCH   3   4
ATOM      4  C   UNL     1      35.262 -19.923 -20.732  0.00  0.00    +0.000 C 
BRANCH   4   5
ATOM      5  C   UNL     1      34.729 -19.391 -22.064  0.00  0.00    +0.000 C 
BRANCH   5   6
ATOM      6  C   UNL     1      35.060 -17.915 -22.306  0.00  0.00    +0.000 C 
BRANCH   6   7
ATOM      7  C   UNL     1      34.958 -17.053 -21.046  0.00  0.00    +0.000 C 
BRANCH   7   8
ATOM      8  C   UNL     1      34.521 -15.627 -21.385  0.00  0.00    +0.000 C 
ATOM      9  C   UNL     1      33.378 -15.168 -20.494  0.00  0.00    +0.000 C 
ENDBRANCH   7   8
ENDBRANCH   6   7
ENDBRANCH   5   6
ENDBRANCH   4   5
ENDBRANCH   3   4
ENDBRANCH   2   3
ENDBRANCH   1   2
BRANCH   1  10
ATOM     10  C   UNL     1      36.062 -22.129 -17.151  0.00  0.00    +0.013 C 
BRANCH  10  11
ATOM     11  C   UNL     1      37.420 -22.177 -16.465  0.00  0.00    +0.116 C 
BRANCH  11  12
ATOM     12  P   UNL     1      37.546 -23.566 -15.312  0.00  0.00    +0.340 P 
ATOM     13  O   UNL     1      36.486 -24.591 -15.528  0.00  0.00    -0.258 OA
BRANCH  12  14
ATOM     14  O   UNL     1      37.561 -22.886 -13.854  0.00  0.00    -0.291 OA
ATOM     15  C   UNL     1      37.002 -23.538 -12.726  0.00  0.00    +0.184 C 
ENDBRANCH  12  14
BRANCH  12  16
ATOM     16  O   UNL     1      39.053 -24.085 -15.545  0.00  0.00    -0.323 OA
ATOM     17  H   UNL     1      39.679 -23.390 -15.284  0.00  0.00    +0.220 HD
ENDBRANCH  12  16
ENDBRANCH  11  12
ENDBRANCH  10  11
ENDBRANCH   1  10
TORSDOF 12
ENDMDL
MODEL 7
REMARK VINA RESULT:      -6.2      7.900     10.638
REMARK  Name = 446977
REMARK  12 active torsions:
REMARK  status: ('A' for Active; 'I' for Inactive)
REMARK    1  A    between atoms: C_1  and  C_2
REMARK    2  A    between atoms: C_1  and  C_10
REMARK    3  A    between atoms: C_2  and  C_3
REMARK    4  A    between atoms: C_3  and  C_4
REMARK    5  A    between atoms: C_4  and  C_5
REMARK    6  A    between atoms: C_5  and  C_6
REMARK    7  A    between atoms: C_6  and  C_7
REMARK    8  A    between atoms: C_7  and  C_8
REMARK    9  A    between atoms: C_10  and  C_11
REMARK   10  A    between atoms: C_11  and  P_12
REMARK   11  A    between atoms: P_12  and  O_14
REMARK   12  A    between atoms: P_12  and  O_16
REMARK                            x       y       z     vdW  Elec       q    Type
REMARK                         _______ _______ _______ _____ _____    ______ ____
ROOT
ATOM      1  C   UNL     1      34.387 -17.615 -24.759  0.00  0.00    +0.001 C 
ENDROOT
BRANCH   1   2
ATOM      2  C   UNL     1      34.771 -18.711 -23.762  0.00  0.00    +0.000 C 
BRANCH   2   3
ATOM      3  C   UNL     1      35.762 -18.188 -22.720  0.00  0.00    +0.000 C 
BRANCH   3   4
ATOM      4  C   UNL     1      35.298 -18.510 -21.298  0.00  0.00    +0.000 C 
BRANCH   4   5
ATOM      5  C   UNL     1      34.931 -19.989 -21.158  0.00  0.00    +0.000 C 
BRANCH   5   6
ATOM      6  C   UNL     1      33.554 -20.218 -20.526  0.00  0.00    +0.000 C 
BRANCH   6   7
ATOM      7  C   UNL     1      33.546 -21.327 -19.472  0.00  0.00    +0.000 C 
BRANCH   7   8
ATOM      8  C   UNL     1      34.841 -22.139 -19.514  0.00  0.00    +0.000 C 
ATOM      9  C   UNL     1      35.621 -22.012 -18.215  0.00  0.00    +0.000 C 
ENDBRANCH   7   8
ENDBRANCH   6   7
ENDBRANCH   5   6
ENDBRANCH   4   5
ENDBRANCH   3   4
ENDBRANCH   2   3
ENDBRANCH   1   2
BRANCH   1  10
ATOM     10  C   UNL     1      34.780 -16.211 -24.297  0.00  0.00    +0.013 C 
BRANCH  10  11
ATOM     11  C   UNL     1      33.691 -15.168 -24.510  0.00  0.00    +0.116 C 
BRANCH  11  12
ATOM     12  P   UNL     1      33.503 -14.084 -23.073  0.00  0.00    +0.340 P 
ATOM     13  O   UNL     1      33.337 -12.652 -23.450  0.00  0.00    -0.258 OA
BRANCH  12  14
ATOM     14  O   UNL     1      34.777 -14.410 -22.147  0.00  0.00    -0.291 OA
ATOM     15  C   UNL     1      34.628 -14.833 -20.803  0.00  0.00    +0.184 C 
ENDBRANCH  12  14
BRANCH  12  16
ATOM     16  O   UNL     1      32.248 -14.735 -22.300  0.00  0.00    -0.323 OA
ATOM     17  H   UNL     1      31.590 -15.036 -22.947  0.00  0.00    +0.220 HD
ENDBRANCH  12  16
ENDBRANCH  11  12
ENDBRANCH  10  11
ENDBRANCH   1  10
TORSDOF 12
ENDMDL
MODEL 8
REMARK VINA RESULT:      -6.2      1.483      1.953
REMARK  Name = 446977
REMARK  12 active torsions:
REMARK  status: ('A' for Active; 'I' for Inactive)
REMARK    1  A    between atoms: C_1  and  C_2
REMARK    2  A    between atoms: C_1  and  C_10
REMARK    3  A    between atoms: C_2  and  C_3
REMARK    4  A    between atoms: C_3  and  C_4
REMARK    5  A    between atoms: C_4  and  C_5
REMARK    6  A    between atoms: C_5  and  C_6
REMARK    7  A    between atoms: C_6  and  C_7
REMARK    8  A    between atoms: C_7  and  C_8
REMARK    9  A    between atoms: C_10  and  C_11
REMARK   10  A    between atoms: C_11  and  P_12
REMARK   11  A    between atoms: P_12  and  O_14
REMARK   12  A    between atoms: P_12  and  O_16
REMARK                            x       y       z     vdW  Elec       q    Type
REMARK                         _______ _______ _______ _____ _____    ______ ____
ROOT
ATOM      1  C   UNL     1      35.565 -22.973 -15.914  0.00  0.00    +0.001 C 
ENDROOT
BRANCH   1   2
ATOM      2  C   UNL     1      34.159 -23.359 -16.379  0.00  0.00    +0.000 C 
BRANCH   2   3
ATOM      3  C   UNL     1      33.902 -22.891 -17.813  0.00  0.00    +0.000 C 
BRANCH   3   4
ATOM      4  C   UNL     1      35.105 -22.129 -18.374  0.00  0.00    +0.000 C 
BRANCH   4   5
ATOM      5  C   UNL     1      34.765 -21.463 -19.709  0.00  0.00    +0.000 C 
BRANCH   5   6
ATOM      6  C   UNL     1      33.322 -20.952 -19.784  0.00  0.00    +0.000 C 
BRANCH   6   7
ATOM      7  C   UNL     1      33.122 -19.841 -20.817  0.00  0.00    +0.000 C 
BRANCH   7   8
ATOM      8  C   UNL     1      34.464 -19.329 -21.343  0.00  0.00    +0.000 C 
ATOM      9  C   UNL     1      34.570 -17.817 -21.218  0.00  0.00    +0.000 C 
ENDBRANCH   7   8
ENDBRANCH   6   7
ENDBRANCH   5   6
ENDBRANCH   4   5
ENDBRANCH   3   4
ENDBRANCH   2   3
ENDBRANCH   1   2
BRANCH   1  10
ATOM     10  C   UNL     1      36.232 -24.044 -15.049  0.00  0.00    +0.013 C 
BRANCH  10  11
ATOM     11  C   UNL     1      36.263 -23.700 -13.565  0.00  0.00    +0.116 C 
BRANCH  11  12
ATOM     12  P   UNL     1      37.441 -24.731 -12.657  0.00  0.00    +0.340 P 
ATOM     13  O   UNL     1      37.493 -24.402 -11.204  0.00  0.00    -0.258 OA
BRANCH  12  14
ATOM     14  O   UNL     1      38.829 -24.561 -13.452  0.00  0.00    -0.291 OA
ATOM     15  C   UNL     1      39.621 -25.681 -13.809  0.00  0.00    +0.184 C 
ENDBRANCH  12  14
BRANCH  12  16
ATOM     16  O   UNL     1      36.943 -26.224 -13.001  0.00  0.00    -0.323 OA
ATOM     17  H   UNL     1      37.538 -26.868 -12.584  0.00  0.00    +0.220 HD
ENDBRANCH  12  16
ENDBRANCH  11  12
ENDBRANCH  10  11
ENDBRANCH   1  10
TORSDOF 12
ENDMDL
MODEL 9
REMARK VINA RESULT:      -6.2      4.565      5.465
REMARK  Name = 446977
REMARK  12 active torsions:
REMARK  status: ('A' for Active; 'I' for Inactive)
REMARK    1  A    between atoms: C_1  and  C_2
REMARK    2  A    between atoms: C_1  and  C_10
REMARK    3  A    between atoms: C_2  and  C_3
REMARK    4  A    between atoms: C_3  and  C_4
REMARK    5  A    between atoms: C_4  and  C_5
REMARK    6  A    between atoms: C_5  and  C_6
REMARK    7  A    between atoms: C_6  and  C_7
REMARK    8  A    between atoms: C_7  and  C_8
REMARK    9  A    between atoms: C_10  and  C_11
REMARK   10  A    between atoms: C_11  and  P_12
REMARK   11  A    between atoms: P_12  and  O_14
REMARK   12  A    between atoms: P_12  and  O_16
REMARK                            x       y       z     vdW  Elec       q    Type
REMARK                         _______ _______ _______ _____ _____    ______ ____
ROOT
ATOM      1  C   UNL     1      33.848 -23.168 -16.169  0.00  0.00    +0.001 C 
ENDROOT
BRANCH   1   2
ATOM      2  C   UNL     1      33.282 -23.494 -17.553  0.00  0.00    +0.000 C 
BRANCH   2   3
ATOM      3  C   UNL     1      33.415 -22.299 -18.500  0.00  0.00    +0.000 C 
BRANCH   3   4
ATOM      4  C   UNL     1      34.795 -22.264 -19.162  0.00  0.00    +0.000 C 
BRANCH   4   5
ATOM      5  C   UNL     1      35.009 -20.956 -19.925  0.00  0.00    +0.000 C 
BRANCH   5   6
ATOM      6  C   UNL     1      33.704 -20.304 -20.394  0.00  0.00    +0.000 C 
BRANCH   6   7
ATOM      7  C   UNL     1      33.919 -19.007 -21.177  0.00  0.00    +0.000 C 
BRANCH   7   8
ATOM      8  C   UNL     1      34.627 -19.275 -22.506  0.00  0.00    +0.000 C 
ATOM      9  C   UNL     1      35.792 -18.320 -22.719  0.00  0.00    +0.000 C 
ENDBRANCH   7   8
ENDBRANCH   6   7
ENDBRANCH   5   6
ENDBRANCH   4   5
ENDBRANCH   3   4
ENDBRANCH   2   3
ENDBRANCH   1   2
BRANCH   1  10
ATOM     10  C   UNL     1      32.774 -23.071 -15.083  0.00  0.00    +0.013 C 
BRANCH  10  11
ATOM     11  C   UNL     1      32.456 -24.403 -14.415  0.00  0.00    +0.116 C 
BRANCH  11  12
ATOM     12  P   UNL     1      30.674 -24.667 -14.249  0.00  0.00    +0.340 P 
ATOM     13  O   UNL     1      30.202 -25.881 -14.973  0.00  0.00    -0.258 OA
BRANCH  12  14
ATOM     14  O   UNL     1      30.011 -23.280 -14.725  0.00  0.00    -0.291 OA
ATOM     15  C   UNL     1      28.888 -23.253 -15.589  0.00  0.00    +0.184 C 
ENDBRANCH  12  14
BRANCH  12  16
ATOM     16  O   UNL     1      30.468 -24.701 -12.652  0.00  0.00    -0.323 OA
ATOM     17  H   UNL     1      30.021 -25.525 -12.401  0.00  0.00    +0.220 HD
ENDBRANCH  12  16
ENDBRANCH  11  12
ENDBRANCH  10  11
ENDBRANCH   1  10
TORSDOF 12
ENDMDL
