MODEL 1
REMARK VINA RESULT:      -8.0      0.000      0.000
REMARK  Name = 3671
REMARK  3 active torsions:
REMARK  status: ('A' for Active; 'I' for Inactive)
REMARK    1  A    between atoms: C_3  and  C_14
REMARK    2  A    between atoms: C_4  and  C_10
REMARK    3  A    between atoms: C_14  and  C_15
REMARK                            x       y       z     vdW  Elec       q    Type
REMARK                         _______ _______ _______ _____ _____    ______ ____
ROOT
ATOM      1  N   UNL     1      32.874 -23.275 -14.912  0.00  0.00    -0.228 N 
ATOM      2  N   UNL     1      34.218 -23.362 -14.714  0.00  0.00    -0.169 NA
ATOM      3  C   UNL     1      33.780 -23.098 -16.941  0.00  0.00    +0.068 A 
ATOM      4  C   UNL     1      34.745 -23.256 -15.935  0.00  0.00    +0.083 A 
ATOM      5  C   UNL     1      32.582 -23.113 -16.270  0.00  0.00    +0.087 A 
ATOM      6  C   UNL     1      31.216 -23.005 -16.655  0.00  0.00    +0.019 C 
ATOM      7  C   UNL     1      31.866 -23.331 -13.943  0.00  0.00    +0.100 C 
ATOM      8  C   UNL     1      30.255 -23.059 -15.714  0.00  0.00    +0.003 C 
ATOM      9  C   UNL     1      30.579 -23.228 -14.310  0.00  0.00    +0.021 C 
ENDROOT
BRANCH   4  10
ATOM     10  C   UNL     1      36.210 -23.308 -16.093  0.00  0.00    +0.042 C 
ATOM     11  C   UNL     1      36.921 -24.116 -14.982  0.00  0.00    +0.006 C 
ATOM     12  C   UNL     1      36.869 -21.913 -16.206  0.00  0.00    +0.006 C 
ENDBRANCH   4  10
BRANCH   3  14
ATOM     13  O   UNL     1      33.829 -23.920 -19.146  0.00  0.00    -0.291 OA
ATOM     14  C   UNL     1      33.958 -22.952 -18.355  0.00  0.00    +0.175 C 
BRANCH  14  15
ATOM     15  C   UNL     1      34.340 -21.588 -18.996  0.00  0.00    +0.062 C 
ATOM     16  C   UNL     1      35.652 -21.728 -19.763  0.00  0.00    +0.008 C 
ATOM     17  C   UNL     1      33.238 -21.064 -19.919  0.00  0.00    +0.008 C 
ENDBRANCH  14  15
ENDBRANCH   3  14
TORSDOF 3
ENDMDL
MODEL 2
REMARK VINA RESULT:      -7.9      7.441     10.198
REMARK  Name = 3671
REMARK  3 active torsions:
REMARK  status: ('A' for Active; 'I' for Inactive)
REMARK    1  A    between atoms: C_3  and  C_14
REMARK    2  A    between atoms: C_4  and  C_10
REMARK    3  A    between atoms: C_14  and  C_15
REMARK                            x       y       z     vdW  Elec       q    Type
REMARK                         _______ _______ _______ _____ _____    ______ ____
ROOT
ATOM      1  N   UNL     1      34.107 -16.275 -24.377  0.00  0.00    -0.228 N 
ATOM      2  N   UNL     1      34.648 -17.359 -23.758  0.00  0.00    -0.169 NA
ATOM      3  C   UNL     1      34.271 -15.705 -22.228  0.00  0.00    +0.068 A 
ATOM      4  C   UNL     1      34.741 -17.003 -22.477  0.00  0.00    +0.083 A 
ATOM      5  C   UNL     1      33.867 -15.247 -23.459  0.00  0.00    +0.087 A 
ATOM      6  C   UNL     1      33.300 -14.035 -23.940  0.00  0.00    +0.019 C 
ATOM      7  C   UNL     1      33.804 -16.133 -25.736  0.00  0.00    +0.100 C 
ATOM      8  C   UNL     1      33.012 -13.910 -25.250  0.00  0.00    +0.003 C 
ATOM      9  C   UNL     1      33.269 -14.988 -26.187  0.00  0.00    +0.021 C 
ENDROOT
BRANCH   4  10
ATOM     10  C   UNL     1      35.294 -17.961 -21.502  0.00  0.00    +0.042 C 
ATOM     11  C   UNL     1      36.628 -18.600 -21.957  0.00  0.00    +0.006 C 
ATOM     12  C   UNL     1      34.304 -19.082 -21.106  0.00  0.00    +0.006 C 
ENDBRANCH   4  10
BRANCH   3  14
ATOM     13  O   UNL     1      35.231 -14.480 -20.463  0.00  0.00    -0.291 OA
ATOM     14  C   UNL     1      34.208 -14.982 -20.993  0.00  0.00    +0.175 C 
BRANCH  14  15
ATOM     15  C   UNL     1      32.871 -14.791 -20.223  0.00  0.00    +0.062 C 
ATOM     16  C   UNL     1      32.250 -13.448 -20.596  0.00  0.00    +0.008 C 
ATOM     17  C   UNL     1      31.886 -15.928 -20.501  0.00  0.00    +0.008 C 
ENDBRANCH  14  15
ENDBRANCH   3  14
TORSDOF 3
ENDMDL
MODEL 3
REMARK VINA RESULT:      -7.7      8.620     11.146
REMARK  Name = 3671
REMARK  3 active torsions:
REMARK  status: ('A' for Active; 'I' for Inactive)
REMARK    1  A    between atoms: C_3  and  C_14
REMARK    2  A    between atoms: C_4  and  C_10
REMARK    3  A    between atoms: C_14  and  C_15
REMARK                            x       y       z     vdW  Elec       q    Type
REMARK                         _______ _______ _______ _____ _____    ______ ____
ROOT
ATOM      1  N   UNL     1      34.216 -17.123 -24.839  0.00  0.00    -0.228 N 
ATOM      2  N   UNL     1      33.782 -16.105 -25.631  0.00  0.00    -0.169 NA
ATOM      3  C   UNL     1      33.872 -15.409 -23.457  0.00  0.00    +0.068 A 
ATOM      4  C   UNL     1      33.580 -15.089 -24.791  0.00  0.00    +0.083 A 
ATOM      5  C   UNL     1      34.279 -16.721 -23.502  0.00  0.00    +0.087 A 
ATOM      6  C   UNL     1      34.716 -17.668 -22.534  0.00  0.00    +0.019 C 
ATOM      7  C   UNL     1      34.569 -18.418 -25.236  0.00  0.00    +0.100 C 
ATOM      8  C   UNL     1      35.053 -18.911 -22.927  0.00  0.00    +0.003 C 
ATOM      9  C   UNL     1      34.980 -19.310 -24.321  0.00  0.00    +0.021 C 
ENDROOT
BRANCH   4  10
ATOM     10  C   UNL     1      33.100 -13.801 -25.322  0.00  0.00    +0.042 C 
ATOM     11  C   UNL     1      33.086 -13.739 -26.868  0.00  0.00    +0.006 C 
ATOM     12  C   UNL     1      33.875 -12.579 -24.774  0.00  0.00    +0.006 C 
ENDBRANCH   4  10
BRANCH   3  14
ATOM     13  O   UNL     1      34.785 -14.014 -21.797  0.00  0.00    -0.291 OA
ATOM     14  C   UNL     1      33.781 -14.590 -22.285  0.00  0.00    +0.175 C 
BRANCH  14  15
ATOM     15  C   UNL     1      32.436 -14.378 -21.535  0.00  0.00    +0.062 C 
ATOM     16  C   UNL     1      32.483 -15.085 -20.183  0.00  0.00    +0.008 C 
ATOM     17  C   UNL     1      32.115 -12.894 -21.348  0.00  0.00    +0.008 C 
ENDBRANCH  14  15
ENDBRANCH   3  14
TORSDOF 3
ENDMDL
MODEL 4
REMARK VINA RESULT:      -7.6      1.752      5.024
REMARK  Name = 3671
REMARK  3 active torsions:
REMARK  status: ('A' for Active; 'I' for Inactive)
REMARK    1  A    between atoms: C_3  and  C_14
REMARK    2  A    between atoms: C_4  and  C_10
REMARK    3  A    between atoms: C_14  and  C_15
REMARK                            x       y       z     vdW  Elec       q    Type
REMARK                         _______ _______ _______ _____ _____    ______ ____
ROOT
ATOM      1  N   UNL     1      33.233 -21.884 -18.710  0.00  0.00    -0.228 N 
ATOM      2  N   UNL     1      32.167 -22.321 -17.987  0.00  0.00    -0.169 NA
ATOM      3  C   UNL     1      34.108 -23.018 -17.003  0.00  0.00    +0.068 A 
ATOM      4  C   UNL     1      32.706 -22.998 -16.971  0.00  0.00    +0.083 A 
ATOM      5  C   UNL     1      34.434 -22.299 -18.127  0.00  0.00    +0.087 A 
ATOM      6  C   UNL     1      35.653 -21.926 -18.758  0.00  0.00    +0.019 C 
ATOM      7  C   UNL     1      33.210 -21.121 -19.884  0.00  0.00    +0.100 C 
ATOM      8  C   UNL     1      35.619 -21.191 -19.886  0.00  0.00    +0.003 C 
ATOM      9  C   UNL     1      34.361 -20.770 -20.477  0.00  0.00    +0.021 C 
ENDROOT
BRANCH   4  10
ATOM     10  C   UNL     1      31.819 -23.618 -15.970  0.00  0.00    +0.042 C 
ATOM     11  C   UNL     1      30.320 -23.549 -16.348  0.00  0.00    +0.006 C 
ATOM     12  C   UNL     1      32.008 -23.053 -14.542  0.00  0.00    +0.006 C 
ENDBRANCH   4  10
BRANCH   3  14
ATOM     13  O   UNL     1      35.157 -24.882 -16.022  0.00  0.00    -0.291 OA
ATOM     14  C   UNL     1      35.028 -23.635 -16.094  0.00  0.00    +0.175 C 
BRANCH  14  15
ATOM     15  C   UNL     1      35.912 -22.796 -15.128  0.00  0.00    +0.062 C 
ATOM     16  C   UNL     1      35.859 -23.399 -13.727  0.00  0.00    +0.008 C 
ATOM     17  C   UNL     1      37.360 -22.705 -15.614  0.00  0.00    +0.008 C 
ENDBRANCH  14  15
ENDBRANCH   3  14
TORSDOF 3
ENDMDL
MODEL 5
REMARK VINA RESULT:      -7.5      6.580      9.254
REMARK  Name = 3671
REMARK  3 active torsions:
REMARK  status: ('A' for Active; 'I' for Inactive)
REMARK    1  A    between atoms: C_3  and  C_14
REMARK    2  A    between atoms: C_4  and  C_10
REMARK    3  A    between atoms: C_14  and  C_15
REMARK                            x       y       z     vdW  Elec       q    Type
REMARK                         _______ _______ _______ _____ _____    ______ ____
ROOT
ATOM      1  N   UNL     1      33.292 -15.037 -22.672  0.00  0.00    -0.228 N 
ATOM      2  N   UNL     1      33.766 -15.621 -23.806  0.00  0.00    -0.169 NA
ATOM      3  C   UNL     1      34.287 -16.913 -21.995  0.00  0.00    +0.068 A 
ATOM      4  C   UNL     1      34.357 -16.740 -23.385  0.00  0.00    +0.083 A 
ATOM      5  C   UNL     1      33.600 -15.811 -21.549  0.00  0.00    +0.087 A 
ATOM      6  C   UNL     1      33.176 -15.344 -20.273  0.00  0.00    +0.019 C 
ATOM      7  C   UNL     1      32.587 -13.832 -22.566  0.00  0.00    +0.100 C 
ATOM      8  C   UNL     1      32.498 -14.184 -20.183  0.00  0.00    +0.003 C 
ATOM      9  C   UNL     1      32.189 -13.394 -21.361  0.00  0.00    +0.021 C 
ENDROOT
BRANCH   4  10
ATOM     10  C   UNL     1      34.989 -17.634 -24.373  0.00  0.00    +0.042 C 
ATOM     11  C   UNL     1      35.033 -17.041 -25.801  0.00  0.00    +0.006 C 
ATOM     12  C   UNL     1      34.350 -19.042 -24.428  0.00  0.00    +0.006 C 
ENDBRANCH   4  10
BRANCH   3  14
ATOM     13  O   UNL     1      35.776 -17.817 -20.413  0.00  0.00    -0.291 OA
ATOM     14  C   UNL     1      34.798 -17.979 -21.185  0.00  0.00    +0.175 C 
BRANCH  14  15
ATOM     15  C   UNL     1      34.185 -19.407 -21.228  0.00  0.00    +0.062 C 
ATOM     16  C   UNL     1      35.102 -20.383 -20.495  0.00  0.00    +0.008 C 
ATOM     17  C   UNL     1      32.780 -19.442 -20.623  0.00  0.00    +0.008 C 
ENDBRANCH  14  15
ENDBRANCH   3  14
TORSDOF 3
ENDMDL
MODEL 6
REMARK VINA RESULT:      -7.4      1.570      3.585
REMARK  Name = 3671
REMARK  3 active torsions:
REMARK  status: ('A' for Active; 'I' for Inactive)
REMARK    1  A    between atoms: C_3  and  C_14
REMARK    2  A    between atoms: C_4  and  C_10
REMARK    3  A    between atoms: C_14  and  C_15
REMARK                            x       y       z     vdW  Elec       q    Type
REMARK                         _______ _______ _______ _____ _____    ______ ____
ROOT
ATOM      1  N   UNL     1      31.361 -22.981 -16.505  0.00  0.00    -0.228 N 
ATOM      2  N   UNL     1      31.829 -22.542 -17.705  0.00  0.00    -0.169 NA
ATOM      3  C   UNL     1      33.566 -23.296 -16.426  0.00  0.00    +0.068 A 
ATOM      4  C   UNL     1      33.146 -22.736 -17.642  0.00  0.00    +0.083 A 
ATOM      5  C   UNL     1      32.408 -23.447 -15.704  0.00  0.00    +0.087 A 
ATOM      6  C   UNL     1      32.093 -23.945 -14.408  0.00  0.00    +0.019 C 
ATOM      7  C   UNL     1      30.033 -22.994 -16.063  0.00  0.00    +0.100 C 
ATOM      8  C   UNL     1      30.812 -23.954 -13.994  0.00  0.00    +0.003 C 
ATOM      9  C   UNL     1      29.739 -23.464 -14.840  0.00  0.00    +0.021 C 
ENDROOT
BRANCH   4  10
ATOM     10  C   UNL     1      33.983 -22.366 -18.798  0.00  0.00    +0.042 C 
ATOM     11  C   UNL     1      33.423 -21.171 -19.607  0.00  0.00    +0.006 C 
ATOM     12  C   UNL     1      34.262 -23.544 -19.762  0.00  0.00    +0.006 C 
ENDBRANCH   4  10
BRANCH   3  14
ATOM     13  O   UNL     1      35.295 -24.834 -15.999  0.00  0.00    -0.291 OA
ATOM     14  C   UNL     1      34.886 -23.645 -15.995  0.00  0.00    +0.175 C 
BRANCH  14  15
ATOM     15  C   UNL     1      35.889 -22.576 -15.476  0.00  0.00    +0.062 C 
ATOM     16  C   UNL     1      36.641 -23.120 -14.265  0.00  0.00    +0.008 C 
ATOM     17  C   UNL     1      36.875 -22.145 -16.564  0.00  0.00    +0.008 C 
ENDBRANCH  14  15
ENDBRANCH   3  14
TORSDOF 3
ENDMDL
MODEL 7
REMARK VINA RESULT:      -7.3      2.532      4.456
REMARK  Name = 3671
REMARK  3 active torsions:
REMARK  status: ('A' for Active; 'I' for Inactive)
REMARK    1  A    between atoms: C_3  and  C_14
REMARK    2  A    between atoms: C_4  and  C_10
REMARK    3  A    between atoms: C_14  and  C_15
REMARK                            x       y       z     vdW  Elec       q    Type
REMARK                         _______ _______ _______ _____ _____    ______ ____
ROOT
ATOM      1  N   UNL     1      33.540 -23.744 -14.012  0.00  0.00    -0.228 N 
ATOM      2  N   UNL     1      34.042 -23.942 -12.762  0.00  0.00    -0.169 NA
ATOM      3  C   UNL     1      35.751 -23.835 -14.274  0.00  0.00    +0.068 A 
ATOM      4  C   UNL     1      35.363 -23.994 -12.935  0.00  0.00    +0.083 A 
ATOM      5  C   UNL     1      34.570 -23.676 -14.955  0.00  0.00    +0.087 A 
ATOM      6  C   UNL     1      34.219 -23.473 -16.319  0.00  0.00    +0.019 C 
ATOM      7  C   UNL     1      32.195 -23.619 -14.378  0.00  0.00    +0.100 C 
ATOM      8  C   UNL     1      32.922 -23.352 -16.660  0.00  0.00    +0.003 C 
ATOM      9  C   UNL     1      31.868 -23.426 -15.666  0.00  0.00    +0.021 C 
ENDROOT
BRANCH   4  10
ATOM     10  C   UNL     1      36.234 -24.199 -11.764  0.00  0.00    +0.042 C 
ATOM     11  C   UNL     1      35.457 -24.544 -10.471  0.00  0.00    +0.006 C 
ATOM     12  C   UNL     1      37.182 -23.009 -11.483  0.00  0.00    +0.006 C 
ENDBRANCH   4  10
BRANCH   3  14
ATOM     13  O   UNL     1      37.626 -22.770 -15.216  0.00  0.00    -0.291 OA
ATOM     14  C   UNL     1      37.066 -23.831 -14.844  0.00  0.00    +0.175 C 
BRANCH  14  15
ATOM     15  C   UNL     1      37.872 -25.145 -15.053  0.00  0.00    +0.062 C 
ATOM     16  C   UNL     1      38.932 -25.277 -13.963  0.00  0.00    +0.008 C 
ATOM     17  C   UNL     1      36.963 -26.375 -15.064  0.00  0.00    +0.008 C 
ENDBRANCH  14  15
ENDBRANCH   3  14
TORSDOF 3
ENDMDL
MODEL 8
REMARK VINA RESULT:      -7.3     10.180     12.597
REMARK  Name = 3671
REMARK  3 active torsions:
REMARK  status: ('A' for Active; 'I' for Inactive)
REMARK    1  A    between atoms: C_3  and  C_14
REMARK    2  A    between atoms: C_4  and  C_10
REMARK    3  A    between atoms: C_14  and  C_15
REMARK                            x       y       z     vdW  Elec       q    Type
REMARK                         _______ _______ _______ _____ _____    ______ ____
ROOT
ATOM      1  N   UNL     1      33.671 -14.142 -22.663  0.00  0.00    -0.228 N 
ATOM      2  N   UNL     1      34.025 -13.353 -23.714  0.00  0.00    -0.169 NA
ATOM      3  C   UNL     1      32.536 -12.244 -22.383  0.00  0.00    +0.068 A 
ATOM      4  C   UNL     1      33.339 -12.225 -23.533  0.00  0.00    +0.083 A 
ATOM      5  C   UNL     1      32.758 -13.483 -21.833  0.00  0.00    +0.087 A 
ATOM      6  C   UNL     1      32.280 -14.168 -20.681  0.00  0.00    +0.019 C 
ATOM      7  C   UNL     1      34.115 -15.440 -22.385  0.00  0.00    +0.100 C 
ATOM      8  C   UNL     1      32.715 -15.416 -20.423  0.00  0.00    +0.003 C 
ATOM      9  C   UNL     1      33.662 -16.083 -21.297  0.00  0.00    +0.021 C 
ENDROOT
BRANCH   4  10
ATOM     10  C   UNL     1      33.490 -11.127 -24.506  0.00  0.00    +0.042 C 
ATOM     11  C   UNL     1      34.017 -11.595 -25.884  0.00  0.00    +0.006 C 
ATOM     12  C   UNL     1      34.372  -9.964 -23.995  0.00  0.00    +0.006 C 
ENDBRANCH   4  10
BRANCH   3  14
ATOM     13  O   UNL     1      30.586 -10.928 -22.425  0.00  0.00    -0.291 OA
ATOM     14  C   UNL     1      31.669 -11.229 -21.863  0.00  0.00    +0.175 C 
BRANCH  14  15
ATOM     15  C   UNL     1      32.024 -10.425 -20.581  0.00  0.00    +0.062 C 
ATOM     16  C   UNL     1      32.059  -8.934 -20.901  0.00  0.00    +0.008 C 
ATOM     17  C   UNL     1      31.039 -10.702 -19.443  0.00  0.00    +0.008 C 
ENDBRANCH  14  15
ENDBRANCH   3  14
TORSDOF 3
ENDMDL
MODEL 9
REMARK VINA RESULT:      -7.2     12.893     15.458
REMARK  Name = 3671
REMARK  3 active torsions:
REMARK  status: ('A' for Active; 'I' for Inactive)
REMARK    1  A    between atoms: C_3  and  C_14
REMARK    2  A    between atoms: C_4  and  C_10
REMARK    3  A    between atoms: C_14  and  C_15
REMARK                            x       y       z     vdW  Elec       q    Type
REMARK                         _______ _______ _______ _____ _____    ______ ____
ROOT
ATOM      1  N   UNL     1      34.011  -8.879 -23.820  0.00  0.00    -0.228 N 
ATOM      2  N   UNL     1      33.606  -7.790 -23.111  0.00  0.00    -0.169 NA
ATOM      3  C   UNL     1      32.442  -9.634 -22.429  0.00  0.00    +0.068 A 
ATOM      4  C   UNL     1      32.669  -8.257 -22.286  0.00  0.00    +0.083 A 
ATOM      5  C   UNL     1      33.311 -10.021 -23.419  0.00  0.00    +0.087 A 
ATOM      6  C   UNL     1      33.612 -11.255 -24.062  0.00  0.00    +0.019 C 
ATOM      7  C   UNL     1      34.985  -8.927 -24.824  0.00  0.00    +0.100 C 
ATOM      8  C   UNL     1      34.552 -11.289 -25.025  0.00  0.00    +0.003 C 
ATOM      9  C   UNL     1      35.267 -10.092 -25.428  0.00  0.00    +0.021 C 
ENDROOT
BRANCH   4  10
ATOM     10  C   UNL     1      32.004  -7.328 -21.353  0.00  0.00    +0.042 C 
ATOM     11  C   UNL     1      31.882  -5.886 -21.903  0.00  0.00    +0.006 C 
ATOM     12  C   UNL     1      32.661  -7.282 -19.954  0.00  0.00    +0.006 C 
ENDBRANCH   4  10
BRANCH   3  14
ATOM     13  O   UNL     1      30.403 -10.787 -22.201  0.00  0.00    -0.291 OA
ATOM     14  C   UNL     1      31.525 -10.482 -21.725  0.00  0.00    +0.175 C 
BRANCH  14  15
ATOM     15  C   UNL     1      31.858 -11.061 -20.321  0.00  0.00    +0.062 C 
ATOM     16  C   UNL     1      30.835 -10.562 -19.304  0.00  0.00    +0.008 C 
ATOM     17  C   UNL     1      31.896 -12.590 -20.330  0.00  0.00    +0.008 C 
ENDBRANCH  14  15
ENDBRANCH   3  14
TORSDOF 3
ENDMDL
