MODEL 1
REMARK VINA RESULT:      -6.8      0.000      0.000
REMARK  Name = 25245501
REMARK  4 active torsions:
REMARK  status: ('A' for Active; 'I' for Inactive)
REMARK    1  A    between atoms: CA_1  and  C_2
REMARK    2  A    between atoms: CA_1  and  N_10
REMARK    3  A    between atoms: CA_1  and  C_16
REMARK    4  A    between atoms: C_7  and  O_8
REMARK                            x       y       z     vdW  Elec       q    Type
REMARK                         _______ _______ _______ _____ _____    ______ ____
ROOT
ATOM      1  CA  UNL     1      34.797 -18.121 -22.047  0.00  0.00    +0.064 C 
ENDROOT
BRANCH   1   2
ATOM      2  C   UNL     1      34.737 -19.318 -21.161  0.00  0.00    -0.032 C 
ATOM      3  C   UNL     1      33.502 -19.821 -20.749  0.00  0.00    -0.003 C 
ATOM      4  C   UNL     1      35.916 -19.938 -20.745  0.00  0.00    -0.003 C 
ATOM      5  C   UNL     1      33.447 -20.941 -19.919  0.00  0.00    +0.036 C 
ATOM      6  C   UNL     1      35.859 -21.058 -19.915  0.00  0.00    +0.036 C 
ATOM      7  C   UNL     1      34.625 -21.560 -19.503  0.00  0.00    +0.134 C 
BRANCH   7   8
ATOM      8  O   UNL     1      34.571 -22.653 -18.695  0.00  0.00    -0.506 OA
ATOM      9  H   UNL     1      35.191 -22.754 -17.999  0.00  0.00    +0.292 HD
ENDBRANCH   7   8
ENDBRANCH   1   2
BRANCH   1  10
ATOM     10  N   UNL     1      36.091 -17.994 -22.808  0.00  0.00    +0.391 N 
ATOM     11  H1  UNL     1      35.953 -18.306 -23.769  0.00  0.00    -0.088 HD
ATOM     12  H2  UNL     1      36.806 -18.570 -22.363  0.00  0.00    -0.088 HD
ATOM     13  H3  UNL     1      36.391 -17.019 -22.807  0.00  0.00    -0.088 HD
ENDBRANCH   1  10
BRANCH   1  16
ATOM     14  O   UNL     1      35.266 -16.586 -20.287  0.00  0.00    -0.248 OA
ATOM     15  OXT UNL     1      33.427 -16.245 -21.599  0.00  0.00    -0.248 OA
ATOM     16  C   UNL     1      34.467 -16.861 -21.226  0.00  0.00    +0.349 C 
ENDBRANCH   1  16
TORSDOF 4
ENDMDL
MODEL 2
REMARK VINA RESULT:      -6.8      0.060      1.396
REMARK  Name = 25245501
REMARK  4 active torsions:
REMARK  status: ('A' for Active; 'I' for Inactive)
REMARK    1  A    between atoms: CA_1  and  C_2
REMARK    2  A    between atoms: CA_1  and  N_10
REMARK    3  A    between atoms: CA_1  and  C_16
REMARK    4  A    between atoms: C_7  and  O_8
REMARK                            x       y       z     vdW  Elec       q    Type
REMARK                         _______ _______ _______ _____ _____    ______ ____
ROOT
ATOM      1  CA  UNL     1      34.804 -18.186 -22.044  0.00  0.00    +0.064 C 
ENDROOT
BRANCH   1   2
ATOM      2  C   UNL     1      34.743 -19.375 -21.146  0.00  0.00    -0.032 C 
ATOM      3  C   UNL     1      35.921 -19.990 -20.720  0.00  0.00    -0.003 C 
ATOM      4  C   UNL     1      33.508 -19.872 -20.730  0.00  0.00    -0.003 C 
ATOM      5  C   UNL     1      35.863 -21.102 -19.880  0.00  0.00    +0.036 C 
ATOM      6  C   UNL     1      33.450 -20.985 -19.891  0.00  0.00    +0.036 C 
ATOM      7  C   UNL     1      34.627 -21.600 -19.466  0.00  0.00    +0.134 C 
BRANCH   7   8
ATOM      8  O   UNL     1      34.571 -22.684 -18.646  0.00  0.00    -0.506 OA
ATOM      9  H   UNL     1      34.570 -23.548 -19.010  0.00  0.00    +0.292 HD
ENDBRANCH   7   8
ENDBRANCH   1   2
BRANCH   1  10
ATOM     10  N   UNL     1      36.096 -18.070 -22.809  0.00  0.00    +0.391 N 
ATOM     11  H1  UNL     1      36.246 -17.099 -23.080  0.00  0.00    -0.088 HD
ATOM     12  H2  UNL     1      36.049 -18.653 -23.646  0.00  0.00    -0.088 HD
ATOM     13  H3  UNL     1      36.869 -18.383 -22.221  0.00  0.00    -0.088 HD
ENDBRANCH   1  10
BRANCH   1  16
ATOM     14  O   UNL     1      35.290 -16.629 -20.308  0.00  0.00    -0.248 OA
ATOM     15  OXT UNL     1      33.433 -16.310 -21.600  0.00  0.00    -0.248 OA
ATOM     16  C   UNL     1      34.480 -16.918 -21.233  0.00  0.00    +0.349 C 
ENDBRANCH   1  16
TORSDOF 4
ENDMDL
MODEL 3
REMARK VINA RESULT:      -6.7      1.754      2.372
REMARK  Name = 25245501
REMARK  4 active torsions:
REMARK  status: ('A' for Active; 'I' for Inactive)
REMARK    1  A    between atoms: CA_1  and  C_2
REMARK    2  A    between atoms: CA_1  and  N_10
REMARK    3  A    between atoms: CA_1  and  C_16
REMARK    4  A    between atoms: C_7  and  O_8
REMARK                            x       y       z     vdW  Elec       q    Type
REMARK                         _______ _______ _______ _____ _____    ______ ____
ROOT
ATOM      1  CA  UNL     1      35.428 -18.188 -21.820  0.00  0.00    +0.064 C 
ENDROOT
BRANCH   1   2
ATOM      2  C   UNL     1      34.787 -19.300 -21.061  0.00  0.00    -0.032 C 
ATOM      3  C   UNL     1      35.575 -20.300 -20.489  0.00  0.00    -0.003 C 
ATOM      4  C   UNL     1      33.400 -19.340 -20.921  0.00  0.00    -0.003 C 
ATOM      5  C   UNL     1      34.974 -21.339 -19.778  0.00  0.00    +0.036 C 
ATOM      6  C   UNL     1      32.800 -20.380 -20.211  0.00  0.00    +0.036 C 
ATOM      7  C   UNL     1      33.587 -21.379 -19.640  0.00  0.00    +0.134 C 
BRANCH   7   8
ATOM      8  O   UNL     1      33.002 -22.393 -18.946  0.00  0.00    -0.506 OA
ATOM      9  H   UNL     1      33.530 -23.071 -18.571  0.00  0.00    +0.292 HD
ENDBRANCH   7   8
ENDBRANCH   1   2
BRANCH   1  10
ATOM     10  N   UNL     1      35.152 -16.824 -21.246  0.00  0.00    +0.391 N 
ATOM     11  H1  UNL     1      36.006 -16.267 -21.266  0.00  0.00    -0.088 HD
ATOM     12  H2  UNL     1      34.830 -16.918 -20.283  0.00  0.00    -0.088 HD
ATOM     13  H3  UNL     1      34.431 -16.361 -21.801  0.00  0.00    -0.088 HD
ENDBRANCH   1  10
BRANCH   1  16
ATOM     14  O   UNL     1      35.111 -19.449 -23.816  0.00  0.00    -0.248 OA
ATOM     15  OXT UNL     1      34.688 -17.204 -23.841  0.00  0.00    -0.248 OA
ATOM     16  C   UNL     1      35.040 -18.296 -23.307  0.00  0.00    +0.349 C 
ENDBRANCH   1  16
TORSDOF 4
ENDMDL
MODEL 4
REMARK VINA RESULT:      -6.6      1.245      2.059
REMARK  Name = 25245501
REMARK  4 active torsions:
REMARK  status: ('A' for Active; 'I' for Inactive)
REMARK    1  A    between atoms: CA_1  and  C_2
REMARK    2  A    between atoms: CA_1  and  N_10
REMARK    3  A    between atoms: CA_1  and  C_16
REMARK    4  A    between atoms: C_7  and  O_8
REMARK                            x       y       z     vdW  Elec       q    Type
REMARK                         _______ _______ _______ _____ _____    ______ ____
ROOT
ATOM      1  CA  UNL     1      34.469 -18.924 -21.760  0.00  0.00    +0.064 C 
ENDROOT
BRANCH   1   2
ATOM      2  C   UNL     1      34.452 -20.040 -20.771  0.00  0.00    -0.032 C 
ATOM      3  C   UNL     1      35.648 -20.639 -20.373  0.00  0.00    -0.003 C 
ATOM      4  C   UNL     1      33.240 -20.485 -20.242  0.00  0.00    -0.003 C 
ATOM      5  C   UNL     1      35.631 -21.683 -19.448  0.00  0.00    +0.036 C 
ATOM      6  C   UNL     1      33.224 -21.529 -19.317  0.00  0.00    +0.036 C 
ATOM      7  C   UNL     1      34.419 -22.128 -18.920  0.00  0.00    +0.134 C 
BRANCH   7   8
ATOM      8  O   UNL     1      34.403 -23.146 -18.017  0.00  0.00    -0.506 OA
ATOM      9  H   UNL     1      34.362 -24.034 -18.313  0.00  0.00    +0.292 HD
ENDBRANCH   7   8
ENDBRANCH   1   2
BRANCH   1  10
ATOM     10  N   UNL     1      34.509 -19.384 -23.193  0.00  0.00    +0.391 N 
ATOM     11  H1  UNL     1      33.729 -20.017 -23.369  0.00  0.00    -0.088 HD
ATOM     12  H2  UNL     1      35.388 -19.870 -23.370  0.00  0.00    -0.088 HD
ATOM     13  H3  UNL     1      34.437 -18.576 -23.812  0.00  0.00    -0.088 HD
ENDBRANCH   1  10
BRANCH   1  16
ATOM     14  O   UNL     1      35.391 -17.142 -20.477  0.00  0.00    -0.248 OA
ATOM     15  OXT UNL     1      36.657 -18.099 -22.120  0.00  0.00    -0.248 OA
ATOM     16  C   UNL     1      35.615 -17.955 -21.416  0.00  0.00    +0.349 C 
ENDBRANCH   1  16
TORSDOF 4
ENDMDL
MODEL 5
REMARK VINA RESULT:      -6.6      9.191     10.382
REMARK  Name = 25245501
REMARK  4 active torsions:
REMARK  status: ('A' for Active; 'I' for Inactive)
REMARK    1  A    between atoms: CA_1  and  C_2
REMARK    2  A    between atoms: CA_1  and  N_10
REMARK    3  A    between atoms: CA_1  and  C_16
REMARK    4  A    between atoms: C_7  and  O_8
REMARK                            x       y       z     vdW  Elec       q    Type
REMARK                         _______ _______ _______ _____ _____    ______ ____
ROOT
ATOM      1  CA  UNL     1      36.690 -23.739 -12.031  0.00  0.00    +0.064 C 
ENDROOT
BRANCH   1   2
ATOM      2  C   UNL     1      36.705 -24.702 -13.169  0.00  0.00    -0.032 C 
ATOM      3  C   UNL     1      37.556 -25.808 -13.137  0.00  0.00    -0.003 C 
ATOM      4  C   UNL     1      35.869 -24.498 -14.266  0.00  0.00    -0.003 C 
ATOM      5  C   UNL     1      37.570 -26.708 -14.202  0.00  0.00    +0.036 C 
ATOM      6  C   UNL     1      35.884 -25.399 -15.332  0.00  0.00    +0.036 C 
ATOM      7  C   UNL     1      36.734 -26.503 -15.299  0.00  0.00    +0.134 C 
BRANCH   7   8
ATOM      8  O   UNL     1      36.748 -27.383 -16.338  0.00  0.00    -0.506 OA
ATOM      9  H   UNL     1      36.087 -27.335 -17.001  0.00  0.00    +0.292 HD
ENDBRANCH   7   8
ENDBRANCH   1   2
BRANCH   1  10
ATOM     10  N   UNL     1      38.061 -23.302 -11.587  0.00  0.00    +0.391 N 
ATOM     11  H1  UNL     1      38.413 -22.587 -12.223  0.00  0.00    -0.088 HD
ATOM     12  H2  UNL     1      38.692 -24.104 -11.592  0.00  0.00    -0.088 HD
ATOM     13  H3  UNL     1      38.006 -22.920 -10.642  0.00  0.00    -0.088 HD
ENDBRANCH   1  10
BRANCH   1  16
ATOM     14  O   UNL     1      34.829 -24.983 -11.216  0.00  0.00    -0.248 OA
ATOM     15  OXT UNL     1      36.300 -24.077  -9.722  0.00  0.00    -0.248 OA
ATOM     16  C   UNL     1      35.852 -24.324 -10.879  0.00  0.00    +0.349 C 
ENDBRANCH   1  16
TORSDOF 4
ENDMDL
MODEL 6
REMARK VINA RESULT:      -6.4      9.202     10.310
REMARK  Name = 25245501
REMARK  4 active torsions:
REMARK  status: ('A' for Active; 'I' for Inactive)
REMARK    1  A    between atoms: CA_1  and  C_2
REMARK    2  A    between atoms: CA_1  and  N_10
REMARK    3  A    between atoms: CA_1  and  C_16
REMARK    4  A    between atoms: C_7  and  O_8
REMARK                            x       y       z     vdW  Elec       q    Type
REMARK                         _______ _______ _______ _____ _____    ______ ____
ROOT
ATOM      1  CA  UNL     1      36.005 -24.345 -12.181  0.00  0.00    +0.064 C 
ENDROOT
BRANCH   1   2
ATOM      2  C   UNL     1      37.133 -24.685 -13.096  0.00  0.00    -0.032 C 
ATOM      3  C   UNL     1      37.223 -24.077 -14.350  0.00  0.00    -0.003 C 
ATOM      4  C   UNL     1      38.099 -25.609 -12.699  0.00  0.00    -0.003 C 
ATOM      5  C   UNL     1      38.278 -24.396 -15.205  0.00  0.00    +0.036 C 
ATOM      6  C   UNL     1      39.154 -25.927 -13.555  0.00  0.00    +0.036 C 
ATOM      7  C   UNL     1      39.243 -25.321 -14.807  0.00  0.00    +0.134 C 
BRANCH   7   8
ATOM      8  O   UNL     1      40.273 -25.631 -15.641  0.00  0.00    -0.506 OA
ATOM      9  H   UNL     1      40.845 -24.956 -15.951  0.00  0.00    +0.292 HD
ENDBRANCH   7   8
ENDBRANCH   1   2
BRANCH   1  10
ATOM     10  N   UNL     1      34.916 -23.536 -12.836  0.00  0.00    +0.391 N 
ATOM     11  H1  UNL     1      35.161 -22.547 -12.805  0.00  0.00    -0.088 HD
ATOM     12  H2  UNL     1      34.037 -23.685 -12.340  0.00  0.00    -0.088 HD
ATOM     13  H3  UNL     1      34.812 -23.831 -13.808  0.00  0.00    -0.088 HD
ENDBRANCH   1  10
BRANCH   1  16
ATOM     14  O   UNL     1      36.198 -24.173  -9.814  0.00  0.00    -0.248 OA
ATOM     15  OXT UNL     1      37.331 -22.690 -11.131  0.00  0.00    -0.248 OA
ATOM     16  C   UNL     1      36.563 -23.671 -10.913  0.00  0.00    +0.349 C 
ENDBRANCH   1  16
TORSDOF 4
ENDMDL
MODEL 7
REMARK VINA RESULT:      -6.3      9.133     10.278
REMARK  Name = 25245501
REMARK  4 active torsions:
REMARK  status: ('A' for Active; 'I' for Inactive)
REMARK    1  A    between atoms: CA_1  and  C_2
REMARK    2  A    between atoms: CA_1  and  N_10
REMARK    3  A    between atoms: CA_1  and  C_16
REMARK    4  A    between atoms: C_7  and  O_8
REMARK                            x       y       z     vdW  Elec       q    Type
REMARK                         _______ _______ _______ _____ _____    ______ ____
ROOT
ATOM      1  CA  UNL     1      36.435 -23.485 -12.086  0.00  0.00    +0.064 C 
ENDROOT
BRANCH   1   2
ATOM      2  C   UNL     1      37.406 -24.084 -13.046  0.00  0.00    -0.032 C 
ATOM      3  C   UNL     1      38.328 -25.036 -12.605  0.00  0.00    -0.003 C 
ATOM      4  C   UNL     1      37.393 -23.696 -14.386  0.00  0.00    -0.003 C 
ATOM      5  C   UNL     1      39.235 -25.596 -13.504  0.00  0.00    +0.036 C 
ATOM      6  C   UNL     1      38.301 -24.257 -15.284  0.00  0.00    +0.036 C 
ATOM      7  C   UNL     1      39.222 -25.207 -14.843  0.00  0.00    +0.134 C 
BRANCH   7   8
ATOM      8  O   UNL     1      40.108 -25.755 -15.719  0.00  0.00    -0.506 OA
ATOM      9  H   UNL     1      40.048 -26.664 -15.939  0.00  0.00    +0.292 HD
ENDBRANCH   7   8
ENDBRANCH   1   2
BRANCH   1  10
ATOM     10  N   UNL     1      37.068 -22.994 -10.811  0.00  0.00    +0.391 N 
ATOM     11  H1  UNL     1      36.845 -23.635 -10.051  0.00  0.00    -0.088 HD
ATOM     12  H2  UNL     1      36.710 -22.065 -10.589  0.00  0.00    -0.088 HD
ATOM     13  H3  UNL     1      38.081 -22.947 -10.930  0.00  0.00    -0.088 HD
ENDBRANCH   1  10
BRANCH   1  16
ATOM     14  O   UNL     1      35.383 -25.183 -10.790  0.00  0.00    -0.248 OA
ATOM     15  OXT UNL     1      34.375 -24.467 -12.710  0.00  0.00    -0.248 OA
ATOM     16  C   UNL     1      35.287 -24.480 -11.834  0.00  0.00    +0.349 C 
ENDBRANCH   1  16
TORSDOF 4
ENDMDL
MODEL 8
REMARK VINA RESULT:      -6.2      2.145      4.688
REMARK  Name = 25245501
REMARK  4 active torsions:
REMARK  status: ('A' for Active; 'I' for Inactive)
REMARK    1  A    between atoms: CA_1  and  C_2
REMARK    2  A    between atoms: CA_1  and  N_10
REMARK    3  A    between atoms: CA_1  and  C_16
REMARK    4  A    between atoms: C_7  and  O_8
REMARK                            x       y       z     vdW  Elec       q    Type
REMARK                         _______ _______ _______ _____ _____    ______ ____
ROOT
ATOM      1  CA  UNL     1      33.977 -20.455 -20.808  0.00  0.00    +0.064 C 
ENDROOT
BRANCH   1   2
ATOM      2  C   UNL     1      34.394 -19.251 -21.584  0.00  0.00    -0.032 C 
ATOM      3  C   UNL     1      34.262 -17.979 -21.024  0.00  0.00    -0.003 C 
ATOM      4  C   UNL     1      34.919 -19.397 -22.868  0.00  0.00    -0.003 C 
ATOM      5  C   UNL     1      34.653 -16.854 -21.751  0.00  0.00    +0.036 C 
ATOM      6  C   UNL     1      35.309 -18.271 -23.594  0.00  0.00    +0.036 C 
ATOM      7  C   UNL     1      35.176 -17.000 -23.035  0.00  0.00    +0.134 C 
BRANCH   7   8
ATOM      8  O   UNL     1      35.558 -15.902 -23.743  0.00  0.00    -0.506 OA
ATOM      9  H   UNL     1      35.623 -15.070 -23.318  0.00  0.00    +0.292 HD
ENDBRANCH   7   8
ENDBRANCH   1   2
BRANCH   1  10
ATOM     10  N   UNL     1      32.688 -20.271 -20.051  0.00  0.00    +0.391 N 
ATOM     11  H1  UNL     1      32.790 -19.505 -19.386  0.00  0.00    -0.088 HD
ATOM     12  H2  UNL     1      32.463 -21.130 -19.548  0.00  0.00    -0.088 HD
ATOM     13  H3  UNL     1      31.937 -20.054 -20.706  0.00  0.00    -0.088 HD
ENDBRANCH   1  10
BRANCH   1  16
ATOM     14  O   UNL     1      36.161 -20.166 -19.903  0.00  0.00    -0.248 OA
ATOM     15  OXT UNL     1      34.920 -21.971 -19.256  0.00  0.00    -0.248 OA
ATOM     16  C   UNL     1      35.138 -20.905 -19.902  0.00  0.00    +0.349 C 
ENDBRANCH   1  16
TORSDOF 4
ENDMDL
MODEL 9
REMARK VINA RESULT:      -6.1      3.116      5.917
REMARK  Name = 25245501
REMARK  4 active torsions:
REMARK  status: ('A' for Active; 'I' for Inactive)
REMARK    1  A    between atoms: CA_1  and  C_2
REMARK    2  A    between atoms: CA_1  and  N_10
REMARK    3  A    between atoms: CA_1  and  C_16
REMARK    4  A    between atoms: C_7  and  O_8
REMARK                            x       y       z     vdW  Elec       q    Type
REMARK                         _______ _______ _______ _____ _____    ______ ____
ROOT
ATOM      1  CA  UNL     1      35.607 -16.937 -22.518  0.00  0.00    +0.064 C 
ENDROOT
BRANCH   1   2
ATOM      2  C   UNL     1      34.755 -16.238 -23.523  0.00  0.00    -0.032 C 
ATOM      3  C   UNL     1      34.538 -16.814 -24.776  0.00  0.00    -0.003 C 
ATOM      4  C   UNL     1      34.173 -15.010 -23.210  0.00  0.00    -0.003 C 
ATOM      5  C   UNL     1      33.740 -16.159 -25.714  0.00  0.00    +0.036 C 
ATOM      6  C   UNL     1      33.376 -14.356 -24.149  0.00  0.00    +0.036 C 
ATOM      7  C   UNL     1      33.160 -14.930 -25.401  0.00  0.00    +0.134 C 
BRANCH   7   8
ATOM      8  O   UNL     1      32.381 -14.293 -26.317  0.00  0.00    -0.506 OA
ATOM      9  H   UNL     1      32.762 -13.961 -27.107  0.00  0.00    +0.292 HD
ENDBRANCH   7   8
ENDBRANCH   1   2
BRANCH   1  10
ATOM     10  N   UNL     1      36.204 -18.226 -23.020  0.00  0.00    +0.391 N 
ATOM     11  H1  UNL     1      36.716 -18.681 -22.266  0.00  0.00    -0.088 HD
ATOM     12  H2  UNL     1      36.841 -18.028 -23.793  0.00  0.00    -0.088 HD
ATOM     13  H3  UNL     1      35.457 -18.842 -23.345  0.00  0.00    -0.088 HD
ENDBRANCH   1  10
BRANCH   1  16
ATOM     14  O   UNL     1      35.130 -16.362 -20.257  0.00  0.00    -0.248 OA
ATOM     15  OXT UNL     1      33.919 -18.018 -21.261  0.00  0.00    -0.248 OA
ATOM     16  C   UNL     1      34.811 -17.122 -21.213  0.00  0.00    +0.349 C 
ENDBRANCH   1  16
TORSDOF 4
ENDMDL
