MODEL 1
REMARK VINA RESULT:      -9.1      0.000      0.000
REMARK  Name = 62516
REMARK  9 active torsions:
REMARK  status: ('A' for Active; 'I' for Inactive)
REMARK    1  A    between atoms: N_1  and  C_19
REMARK    2  A    between atoms: C_2  and  C_8
REMARK    3  A    between atoms: C_2  and  C_15
REMARK    4  A    between atoms: C_15  and  O_16
REMARK    5  A    between atoms: O_16  and  C_17
REMARK    6  A    between atoms: C_19  and  C_20
REMARK    7  A    between atoms: C_20  and  O_21
REMARK    8  A    between atoms: O_21  and  C_22
REMARK    9  A    between atoms: C_22  and  C_23
REMARK                            x       y       z     vdW  Elec       q    Type
REMARK                         _______ _______ _______ _____ _____    ______ ____
ROOT
ATOM      1  N   UNL     1      35.793 -20.262 -20.792  0.00  0.00    +0.389 N 
ATOM      2  C   UNL     1      34.781 -18.058 -22.530  0.00  0.00    +0.104 C 
ATOM      3  C   UNL     1      36.278 -18.292 -22.195  0.00  0.00    -0.008 C 
ATOM      4  C   UNL     1      34.075 -19.432 -22.375  0.00  0.00    -0.008 C 
ATOM      5  C   UNL     1      36.477 -18.965 -20.833  0.00  0.00    -0.076 C 
ATOM      6  C   UNL     1      34.353 -20.111 -21.027  0.00  0.00    -0.076 C 
ATOM      7  H   UNL     1      36.173 -20.841 -21.539  0.00  0.00    -0.080 HD
ENDROOT
BRANCH   2   8
ATOM      8  C   UNL     1      34.175 -16.895 -21.730  0.00  0.00    -0.013 C 
ATOM      9  C   UNL     1      32.817 -16.900 -21.411  0.00  0.00    -0.004 C 
ATOM     10  C   UNL     1      34.983 -15.834 -21.322  0.00  0.00    -0.004 C 
ATOM     11  C   UNL     1      32.267 -15.844 -20.685  0.00  0.00    -0.000 C 
ATOM     12  C   UNL     1      34.433 -14.778 -20.596  0.00  0.00    -0.000 C 
ATOM     13  C   UNL     1      33.076 -14.782 -20.277  0.00  0.00    -0.000 C 
ENDBRANCH   2   8
BRANCH   2  15
ATOM     14  O   UNL     1      34.523 -18.515 -24.894  0.00  0.00    -0.250 OA
ATOM     15  C   UNL     1      34.686 -17.698 -23.998  0.00  0.00    +0.320 C 
BRANCH  15  16
ATOM     16  O   UNL     1      34.809 -16.348 -24.145  0.00  0.00    -0.448 OA
BRANCH  16  17
ATOM     17  C   UNL     1      33.897 -15.744 -25.067  0.00  0.00    +0.209 C 
ATOM     18  C   UNL     1      33.350 -14.471 -24.457  0.00  0.00    +0.051 C 
ENDBRANCH  16  17
ENDBRANCH  15  16
ENDBRANCH   2  15
BRANCH   1  19
ATOM     19  C   UNL     1      36.037 -20.933 -19.514  0.00  0.00    -0.045 C 
BRANCH  19  20
ATOM     20  C   UNL     1      35.319 -22.270 -19.464  0.00  0.00    +0.120 C 
BRANCH  20  21
ATOM     21  O   UNL     1      34.788 -22.457 -18.158  0.00  0.00    -0.351 OA
BRANCH  21  22
ATOM     22  C   UNL     1      33.432 -22.875 -18.201  0.00  0.00    +0.168 C 
BRANCH  22  23
ATOM     23  C   UNL     1      32.946 -23.110 -16.801  0.00  0.00    +0.007 C 
ATOM     24  C   UNL     1      33.856 -23.430 -15.792  0.00  0.00    -0.002 C 
ATOM     25  C   UNL     1      31.587 -23.006 -16.506  0.00  0.00    -0.002 C 
ATOM     26  C   UNL     1      33.404 -23.648 -14.490  0.00  0.00    -0.000 C 
ATOM     27  C   UNL     1      31.136 -23.222 -15.204  0.00  0.00    -0.000 C 
ATOM     28  C   UNL     1      32.045 -23.543 -14.196  0.00  0.00    -0.000 C 
ENDBRANCH  22  23
ENDBRANCH  21  22
ENDBRANCH  20  21
ENDBRANCH  19  20
ENDBRANCH   1  19
TORSDOF 9
ENDMDL
MODEL 2
REMARK VINA RESULT:      -8.8      3.544      6.595
REMARK  Name = 62516
REMARK  9 active torsions:
REMARK  status: ('A' for Active; 'I' for Inactive)
REMARK    1  A    between atoms: N_1  and  C_19
REMARK    2  A    between atoms: C_2  and  C_8
REMARK    3  A    between atoms: C_2  and  C_15
REMARK    4  A    between atoms: C_15  and  O_16
REMARK    5  A    between atoms: O_16  and  C_17
REMARK    6  A    between atoms: C_19  and  C_20
REMARK    7  A    between atoms: C_20  and  O_21
REMARK    8  A    between atoms: O_21  and  C_22
REMARK    9  A    between atoms: C_22  and  C_23
REMARK                            x       y       z     vdW  Elec       q    Type
REMARK                         _______ _______ _______ _____ _____    ______ ____
ROOT
ATOM      1  N   UNL     1      33.570 -15.185 -23.584  0.00  0.00    +0.389 N 
ATOM      2  C   UNL     1      32.685 -12.406 -22.954  0.00  0.00    +0.104 C 
ATOM      3  C   UNL     1      31.952 -13.357 -23.937  0.00  0.00    -0.008 C 
ATOM      4  C   UNL     1      33.463 -13.311 -21.963  0.00  0.00    -0.008 C 
ATOM      5  C   UNL     1      32.900 -14.363 -24.597  0.00  0.00    -0.076 C 
ATOM      6  C   UNL     1      34.349 -14.355 -22.657  0.00  0.00    -0.076 C 
ATOM      7  H   UNL     1      32.852 -15.666 -23.044  0.00  0.00    -0.080 HD
ENDROOT
BRANCH   2   8
ATOM      8  C   UNL     1      33.512 -11.334 -23.680  0.00  0.00    -0.013 C 
ATOM      9  C   UNL     1      34.199 -11.658 -24.850  0.00  0.00    -0.004 C 
ATOM     10  C   UNL     1      33.576 -10.038 -23.170  0.00  0.00    -0.004 C 
ATOM     11  C   UNL     1      34.950 -10.686 -25.509  0.00  0.00    -0.000 C 
ATOM     12  C   UNL     1      34.328  -9.065 -23.830  0.00  0.00    -0.000 C 
ATOM     13  C   UNL     1      35.015  -9.389 -24.999  0.00  0.00    -0.000 C 
ENDBRANCH   2   8
BRANCH   2  15
ATOM     14  O   UNL     1      30.740 -11.004 -22.611  0.00  0.00    -0.250 OA
ATOM     15  C   UNL     1      31.633 -11.689 -22.133  0.00  0.00    +0.320 C 
BRANCH  15  16
ATOM     16  O   UNL     1      31.847 -11.930 -20.808  0.00  0.00    -0.448 OA
BRANCH  16  17
ATOM     17  C   UNL     1      31.096 -11.114 -19.905  0.00  0.00    +0.209 C 
ATOM     18  C   UNL     1      31.944  -9.933 -19.484  0.00  0.00    +0.051 C 
ENDBRANCH  16  17
ENDBRANCH  15  16
ENDBRANCH   2  15
BRANCH   1  19
ATOM     19  C   UNL     1      34.426 -16.188 -24.218  0.00  0.00    -0.045 C 
BRANCH  19  20
ATOM     20  C   UNL     1      35.413 -16.762 -23.216  0.00  0.00    +0.120 C 
BRANCH  20  21
ATOM     21  O   UNL     1      34.803 -17.859 -22.548  0.00  0.00    -0.351 OA
BRANCH  21  22
ATOM     22  C   UNL     1      35.740 -18.577 -21.759  0.00  0.00    +0.168 C 
BRANCH  22  23
ATOM     23  C   UNL     1      35.013 -19.618 -20.960  0.00  0.00    +0.007 C 
ATOM     24  C   UNL     1      33.621 -19.584 -20.872  0.00  0.00    -0.002 C 
ATOM     25  C   UNL     1      35.728 -20.621 -20.305  0.00  0.00    -0.002 C 
ATOM     26  C   UNL     1      32.945 -20.552 -20.130  0.00  0.00    -0.000 C 
ATOM     27  C   UNL     1      35.052 -21.590 -19.563  0.00  0.00    -0.000 C 
ATOM     28  C   UNL     1      33.660 -21.555 -19.475  0.00  0.00    -0.000 C 
ENDBRANCH  22  23
ENDBRANCH  21  22
ENDBRANCH  20  21
ENDBRANCH  19  20
ENDBRANCH   1  19
TORSDOF 9
ENDMDL
MODEL 3
REMARK VINA RESULT:      -8.7      1.392      2.283
REMARK  Name = 62516
REMARK  9 active torsions:
REMARK  status: ('A' for Active; 'I' for Inactive)
REMARK    1  A    between atoms: N_1  and  C_19
REMARK    2  A    between atoms: C_2  and  C_8
REMARK    3  A    between atoms: C_2  and  C_15
REMARK    4  A    between atoms: C_15  and  O_16
REMARK    5  A    between atoms: O_16  and  C_17
REMARK    6  A    between atoms: C_19  and  C_20
REMARK    7  A    between atoms: C_20  and  O_21
REMARK    8  A    between atoms: O_21  and  C_22
REMARK    9  A    between atoms: C_22  and  C_23
REMARK                            x       y       z     vdW  Elec       q    Type
REMARK                         _______ _______ _______ _____ _____    ______ ____
ROOT
ATOM      1  N   UNL     1      35.804 -20.269 -20.800  0.00  0.00    +0.389 N 
ATOM      2  C   UNL     1      34.780 -18.070 -22.538  0.00  0.00    +0.104 C 
ATOM      3  C   UNL     1      36.279 -18.305 -22.215  0.00  0.00    -0.008 C 
ATOM      4  C   UNL     1      34.073 -19.442 -22.372  0.00  0.00    -0.008 C 
ATOM      5  C   UNL     1      36.489 -18.973 -20.852  0.00  0.00    -0.076 C 
ATOM      6  C   UNL     1      34.362 -20.117 -21.024  0.00  0.00    -0.076 C 
ATOM      7  H   UNL     1      36.176 -20.852 -21.549  0.00  0.00    -0.080 HD
ENDROOT
BRANCH   2   8
ATOM      8  C   UNL     1      34.182 -16.903 -21.737  0.00  0.00    -0.013 C 
ATOM      9  C   UNL     1      34.995 -15.842 -21.338  0.00  0.00    -0.004 C 
ATOM     10  C   UNL     1      32.827 -16.905 -21.409  0.00  0.00    -0.004 C 
ATOM     11  C   UNL     1      34.453 -14.783 -20.611  0.00  0.00    -0.000 C 
ATOM     12  C   UNL     1      32.284 -15.845 -20.682  0.00  0.00    -0.000 C 
ATOM     13  C   UNL     1      33.097 -14.784 -20.283  0.00  0.00    -0.000 C 
ENDBRANCH   2   8
BRANCH   2  15
ATOM     14  O   UNL     1      34.511 -18.536 -24.899  0.00  0.00    -0.250 OA
ATOM     15  C   UNL     1      34.672 -17.716 -24.007  0.00  0.00    +0.320 C 
BRANCH  15  16
ATOM     16  O   UNL     1      34.784 -16.365 -24.159  0.00  0.00    -0.448 OA
BRANCH  16  17
ATOM     17  C   UNL     1      33.858 -15.771 -25.073  0.00  0.00    +0.209 C 
ATOM     18  C   UNL     1      33.329 -14.485 -24.475  0.00  0.00    +0.051 C 
ENDBRANCH  16  17
ENDBRANCH  15  16
ENDBRANCH   2  15
BRANCH   1  19
ATOM     19  C   UNL     1      36.058 -20.935 -19.523  0.00  0.00    -0.045 C 
BRANCH  19  20
ATOM     20  C   UNL     1      35.173 -22.161 -19.371  0.00  0.00    +0.120 C 
BRANCH  20  21
ATOM     21  O   UNL     1      35.023 -22.448 -17.987  0.00  0.00    -0.351 OA
BRANCH  21  22
ATOM     22  C   UNL     1      36.212 -22.166 -17.263  0.00  0.00    +0.168 C 
BRANCH  22  23
ATOM     23  C   UNL     1      36.184 -22.913 -15.962  0.00  0.00    +0.007 C 
ATOM     24  C   UNL     1      34.973 -23.390 -15.458  0.00  0.00    -0.002 C 
ATOM     25  C   UNL     1      37.367 -23.132 -15.257  0.00  0.00    -0.002 C 
ATOM     26  C   UNL     1      34.947 -24.085 -14.249  0.00  0.00    -0.000 C 
ATOM     27  C   UNL     1      37.341 -23.828 -14.048  0.00  0.00    -0.000 C 
ATOM     28  C   UNL     1      36.131 -24.304 -13.544  0.00  0.00    -0.000 C 
ENDBRANCH  22  23
ENDBRANCH  21  22
ENDBRANCH  20  21
ENDBRANCH  19  20
ENDBRANCH   1  19
TORSDOF 9
ENDMDL
MODEL 4
REMARK VINA RESULT:      -8.7      6.709     10.896
REMARK  Name = 62516
REMARK  9 active torsions:
REMARK  status: ('A' for Active; 'I' for Inactive)
REMARK    1  A    between atoms: N_1  and  C_19
REMARK    2  A    between atoms: C_2  and  C_8
REMARK    3  A    between atoms: C_2  and  C_15
REMARK    4  A    between atoms: C_15  and  O_16
REMARK    5  A    between atoms: O_16  and  C_17
REMARK    6  A    between atoms: C_19  and  C_20
REMARK    7  A    between atoms: C_20  and  O_21
REMARK    8  A    between atoms: O_21  and  C_22
REMARK    9  A    between atoms: C_22  and  C_23
REMARK                            x       y       z     vdW  Elec       q    Type
REMARK                         _______ _______ _______ _____ _____    ______ ____
ROOT
ATOM      1  N   UNL     1      34.078  -9.925 -24.055  0.00  0.00    +0.389 N 
ATOM      2  C   UNL     1      32.782  -7.502 -22.891  0.00  0.00    +0.104 C 
ATOM      3  C   UNL     1      32.047  -8.840 -23.170  0.00  0.00    -0.008 C 
ATOM      4  C   UNL     1      34.282  -7.854 -22.706  0.00  0.00    -0.008 C 
ATOM      5  C   UNL     1      32.670  -9.621 -24.331  0.00  0.00    -0.076 C 
ATOM      6  C   UNL     1      34.856  -8.698 -23.853  0.00  0.00    -0.076 C 
ATOM      7  H   UNL     1      34.118 -10.467 -23.192  0.00  0.00    -0.080 HD
ENDROOT
BRANCH   2   8
ATOM      8  C   UNL     1      32.467  -6.428 -23.943  0.00  0.00    -0.013 C 
ATOM      9  C   UNL     1      33.425  -6.082 -24.895  0.00  0.00    -0.004 C 
ATOM     10  C   UNL     1      31.222  -5.799 -23.945  0.00  0.00    -0.004 C 
ATOM     11  C   UNL     1      33.138  -5.107 -25.850  0.00  0.00    -0.000 C 
ATOM     12  C   UNL     1      30.935  -4.824 -24.901  0.00  0.00    -0.000 C 
ATOM     13  C   UNL     1      31.893  -4.477 -25.853  0.00  0.00    -0.000 C 
ENDBRANCH   2   8
BRANCH   2  15
ATOM     14  O   UNL     1      32.512  -5.847 -21.143  0.00  0.00    -0.250 OA
ATOM     15  C   UNL     1      32.303  -6.981 -21.551  0.00  0.00    +0.320 C 
BRANCH  15  16
ATOM     16  O   UNL     1      31.621  -7.965 -20.898  0.00  0.00    -0.448 OA
BRANCH  16  17
ATOM     17  C   UNL     1      32.249  -8.467 -19.715  0.00  0.00    +0.209 C 
ATOM     18  C   UNL     1      31.801  -9.895 -19.486  0.00  0.00    +0.051 C 
ENDBRANCH  16  17
ENDBRANCH  15  16
ENDBRANCH   2  15
BRANCH   1  19
ATOM     19  C   UNL     1      34.653 -10.726 -25.135  0.00  0.00    -0.045 C 
BRANCH  19  20
ATOM     20  C   UNL     1      33.895 -12.033 -25.297  0.00  0.00    +0.120 C 
BRANCH  20  21
ATOM     21  O   UNL     1      33.996 -12.775 -24.088  0.00  0.00    -0.351 OA
BRANCH  21  22
ATOM     22  C   UNL     1      33.562 -14.116 -24.261  0.00  0.00    +0.168 C 
BRANCH  22  23
ATOM     23  C   UNL     1      34.028 -14.937 -23.095  0.00  0.00    +0.007 C 
ATOM     24  C   UNL     1      33.819 -14.481 -21.793  0.00  0.00    -0.002 C 
ATOM     25  C   UNL     1      34.669 -16.156 -23.312  0.00  0.00    -0.002 C 
ATOM     26  C   UNL     1      34.252 -15.245 -20.709  0.00  0.00    -0.000 C 
ATOM     27  C   UNL     1      35.101 -16.920 -22.228  0.00  0.00    -0.000 C 
ATOM     28  C   UNL     1      34.893 -16.464 -20.926  0.00  0.00    -0.000 C 
ENDBRANCH  22  23
ENDBRANCH  21  22
ENDBRANCH  20  21
ENDBRANCH  19  20
ENDBRANCH   1  19
TORSDOF 9
ENDMDL
MODEL 5
REMARK VINA RESULT:      -8.5      3.846     10.123
REMARK  Name = 62516
REMARK  9 active torsions:
REMARK  status: ('A' for Active; 'I' for Inactive)
REMARK    1  A    between atoms: N_1  and  C_19
REMARK    2  A    between atoms: C_2  and  C_8
REMARK    3  A    between atoms: C_2  and  C_15
REMARK    4  A    between atoms: C_15  and  O_16
REMARK    5  A    between atoms: O_16  and  C_17
REMARK    6  A    between atoms: C_19  and  C_20
REMARK    7  A    between atoms: C_20  and  O_21
REMARK    8  A    between atoms: O_21  and  C_22
REMARK    9  A    between atoms: C_22  and  C_23
REMARK                            x       y       z     vdW  Elec       q    Type
REMARK                         _______ _______ _______ _____ _____    ______ ____
ROOT
ATOM      1  N   UNL     1      34.469 -23.603 -16.232  0.00  0.00    +0.389 N 
ATOM      2  C   UNL     1      36.722 -24.671 -14.592  0.00  0.00    +0.104 C 
ATOM      3  C   UNL     1      35.489 -25.503 -15.035  0.00  0.00    -0.008 C 
ATOM      4  C   UNL     1      36.872 -23.522 -15.625  0.00  0.00    -0.008 C 
ATOM      5  C   UNL     1      34.236 -24.643 -15.224  0.00  0.00    -0.076 C 
ATOM      6  C   UNL     1      35.578 -22.725 -15.842  0.00  0.00    -0.076 C 
ATOM      7  H   UNL     1      34.725 -24.063 -17.104  0.00  0.00    -0.080 HD
ENDROOT
BRANCH   2   8
ATOM      8  C   UNL     1      36.643 -24.246 -13.118  0.00  0.00    -0.013 C 
ATOM      9  C   UNL     1      37.331 -23.114 -12.681  0.00  0.00    -0.004 C 
ATOM     10  C   UNL     1      35.884 -24.992 -12.217  0.00  0.00    -0.004 C 
ATOM     11  C   UNL     1      37.260 -22.728 -11.343  0.00  0.00    -0.000 C 
ATOM     12  C   UNL     1      35.813 -24.606 -10.878  0.00  0.00    -0.000 C 
ATOM     13  C   UNL     1      36.501 -23.474 -10.441  0.00  0.00    -0.000 C 
ENDBRANCH   2   8
BRANCH   2  15
ATOM     14  O   UNL     1      37.914 -26.756 -14.900  0.00  0.00    -0.250 OA
ATOM     15  C   UNL     1      37.950 -25.543 -14.749  0.00  0.00    +0.320 C 
BRANCH  15  16
ATOM     16  O   UNL     1      39.070 -24.766 -14.695  0.00  0.00    -0.448 OA
BRANCH  16  17
ATOM     17  C   UNL     1      40.270 -25.383 -15.170  0.00  0.00    +0.209 C 
ATOM     18  C   UNL     1      40.904 -26.166 -14.040  0.00  0.00    +0.051 C 
ENDBRANCH  16  17
ENDBRANCH  15  16
ENDBRANCH   2  15
BRANCH   1  19
ATOM     19  C   UNL     1      33.252 -22.823 -16.457  0.00  0.00    -0.045 C 
BRANCH  19  20
ATOM     20  C   UNL     1      32.612 -23.197 -17.783  0.00  0.00    +0.120 C 
BRANCH  20  21
ATOM     21  O   UNL     1      32.862 -22.159 -18.722  0.00  0.00    -0.351 OA
BRANCH  21  22
ATOM     22  C   UNL     1      34.113 -22.333 -19.372  0.00  0.00    +0.168 C 
BRANCH  22  23
ATOM     23  C   UNL     1      34.515 -21.039 -20.017  0.00  0.00    +0.007 C 
ATOM     24  C   UNL     1      35.866 -20.709 -20.133  0.00  0.00    -0.002 C 
ATOM     25  C   UNL     1      33.540 -20.168 -20.501  0.00  0.00    -0.002 C 
ATOM     26  C   UNL     1      36.240 -19.506 -20.733  0.00  0.00    -0.000 C 
ATOM     27  C   UNL     1      33.915 -18.966 -21.102  0.00  0.00    -0.000 C 
ATOM     28  C   UNL     1      35.265 -18.635 -21.217  0.00  0.00    -0.000 C 
ENDBRANCH  22  23
ENDBRANCH  21  22
ENDBRANCH  20  21
ENDBRANCH  19  20
ENDBRANCH   1  19
TORSDOF 9
ENDMDL
MODEL 6
REMARK VINA RESULT:      -8.5      1.557      3.090
REMARK  Name = 62516
REMARK  9 active torsions:
REMARK  status: ('A' for Active; 'I' for Inactive)
REMARK    1  A    between atoms: N_1  and  C_19
REMARK    2  A    between atoms: C_2  and  C_8
REMARK    3  A    between atoms: C_2  and  C_15
REMARK    4  A    between atoms: C_15  and  O_16
REMARK    5  A    between atoms: O_16  and  C_17
REMARK    6  A    between atoms: C_19  and  C_20
REMARK    7  A    between atoms: C_20  and  O_21
REMARK    8  A    between atoms: O_21  and  C_22
REMARK    9  A    between atoms: C_22  and  C_23
REMARK                            x       y       z     vdW  Elec       q    Type
REMARK                         _______ _______ _______ _____ _____    ______ ____
ROOT
ATOM      1  N   UNL     1      35.059 -20.170 -20.107  0.00  0.00    +0.389 N 
ATOM      2  C   UNL     1      34.521 -17.539 -21.408  0.00  0.00    +0.104 C 
ATOM      3  C   UNL     1      33.428 -18.449 -20.787  0.00  0.00    -0.008 C 
ATOM      4  C   UNL     1      35.850 -17.893 -20.688  0.00  0.00    -0.008 C 
ATOM      5  C   UNL     1      33.805 -19.934 -20.830  0.00  0.00    -0.076 C 
ATOM      6  C   UNL     1      36.162 -19.396 -20.688  0.00  0.00    -0.076 C 
ATOM      7  H   UNL     1      34.931 -19.858 -19.145  0.00  0.00    -0.080 HD
ENDROOT
BRANCH   2   8
ATOM      8  C   UNL     1      34.545 -17.615 -22.943  0.00  0.00    -0.013 C 
ATOM      9  C   UNL     1      34.352 -18.837 -23.584  0.00  0.00    -0.004 C 
ATOM     10  C   UNL     1      34.760 -16.459 -23.693  0.00  0.00    -0.004 C 
ATOM     11  C   UNL     1      34.374 -18.906 -24.977  0.00  0.00    -0.000 C 
ATOM     12  C   UNL     1      34.782 -16.527 -25.087  0.00  0.00    -0.000 C 
ATOM     13  C   UNL     1      34.589 -17.750 -25.729  0.00  0.00    -0.000 C 
ENDBRANCH   2   8
BRANCH   2  15
ATOM     14  O   UNL     1      35.033 -15.309 -20.618  0.00  0.00    -0.250 OA
ATOM     15  C   UNL     1      34.204 -16.108 -21.028  0.00  0.00    +0.320 C 
BRANCH  15  16
ATOM     16  O   UNL     1      32.874 -15.872 -21.215  0.00  0.00    -0.448 OA
BRANCH  16  17
ATOM     17  C   UNL     1      32.550 -14.600 -21.784  0.00  0.00    +0.209 C 
ATOM     18  C   UNL     1      32.328 -13.601 -20.668  0.00  0.00    +0.051 C 
ENDBRANCH  16  17
ENDBRANCH  15  16
ENDBRANCH   2  15
BRANCH   1  19
ATOM     19  C   UNL     1      35.385 -21.597 -20.093  0.00  0.00    -0.045 C 
BRANCH  19  20
ATOM     20  C   UNL     1      35.526 -22.102 -18.667  0.00  0.00    +0.120 C 
BRANCH  20  21
ATOM     21  O   UNL     1      34.586 -23.147 -18.457  0.00  0.00    -0.351 OA
BRANCH  21  22
ATOM     22  C   UNL     1      33.269 -22.640 -18.294  0.00  0.00    +0.168 C 
BRANCH  22  23
ATOM     23  C   UNL     1      32.777 -22.986 -16.919  0.00  0.00    +0.007 C 
ATOM     24  C   UNL     1      31.412 -22.937 -16.634  0.00  0.00    -0.002 C 
ATOM     25  C   UNL     1      33.683 -23.359 -15.926  0.00  0.00    -0.002 C 
ATOM     26  C   UNL     1      30.954 -23.259 -15.357  0.00  0.00    -0.000 C 
ATOM     27  C   UNL     1      33.224 -23.682 -14.649  0.00  0.00    -0.000 C 
ATOM     28  C   UNL     1      31.860 -23.632 -14.364  0.00  0.00    -0.000 C 
ENDBRANCH  22  23
ENDBRANCH  21  22
ENDBRANCH  20  21
ENDBRANCH  19  20
ENDBRANCH   1  19
TORSDOF 9
ENDMDL
MODEL 7
REMARK VINA RESULT:      -8.4      3.766      9.332
REMARK  Name = 62516
REMARK  9 active torsions:
REMARK  status: ('A' for Active; 'I' for Inactive)
REMARK    1  A    between atoms: N_1  and  C_19
REMARK    2  A    between atoms: C_2  and  C_8
REMARK    3  A    between atoms: C_2  and  C_15
REMARK    4  A    between atoms: C_15  and  O_16
REMARK    5  A    between atoms: O_16  and  C_17
REMARK    6  A    between atoms: C_19  and  C_20
REMARK    7  A    between atoms: C_20  and  O_21
REMARK    8  A    between atoms: O_21  and  C_22
REMARK    9  A    between atoms: C_22  and  C_23
REMARK                            x       y       z     vdW  Elec       q    Type
REMARK                         _______ _______ _______ _____ _____    ______ ____
ROOT
ATOM      1  N   UNL     1      33.043 -14.960 -20.360  0.00  0.00    +0.389 N 
ATOM      2  C   UNL     1      34.364 -17.438 -21.371  0.00  0.00    +0.104 C 
ATOM      3  C   UNL     1      35.122 -16.222 -20.776  0.00  0.00    -0.008 C 
ATOM      4  C   UNL     1      32.934 -17.404 -20.769  0.00  0.00    -0.008 C 
ATOM      5  C   UNL     1      34.371 -14.902 -20.981  0.00  0.00    -0.076 C 
ATOM      6  C   UNL     1      32.237 -16.046 -20.930  0.00  0.00    -0.076 C 
ATOM      7  H   UNL     1      33.169 -15.152 -19.367  0.00  0.00    -0.080 HD
ENDROOT
BRANCH   2   8
ATOM      8  C   UNL     1      34.449 -17.488 -22.905  0.00  0.00    -0.013 C 
ATOM      9  C   UNL     1      34.453 -18.717 -23.563  0.00  0.00    -0.004 C 
ATOM     10  C   UNL     1      34.521 -16.304 -23.638  0.00  0.00    -0.004 C 
ATOM     11  C   UNL     1      34.530 -18.763 -24.954  0.00  0.00    -0.000 C 
ATOM     12  C   UNL     1      34.597 -16.350 -25.030  0.00  0.00    -0.000 C 
ATOM     13  C   UNL     1      34.602 -17.578 -25.689  0.00  0.00    -0.000 C 
ENDBRANCH   2   8
BRANCH   2  15
ATOM     14  O   UNL     1      36.222 -18.830 -20.684  0.00  0.00    -0.250 OA
ATOM     15  C   UNL     1      35.017 -18.696 -20.838  0.00  0.00    +0.320 C 
BRANCH  15  16
ATOM     16  O   UNL     1      34.057 -19.627 -20.569  0.00  0.00    -0.448 OA
BRANCH  16  17
ATOM     17  C   UNL     1      34.532 -20.854 -20.006  0.00  0.00    +0.209 C 
ATOM     18  C   UNL     1      33.373 -21.582 -19.360  0.00  0.00    +0.051 C 
ENDBRANCH  16  17
ENDBRANCH  15  16
ENDBRANCH   2  15
BRANCH   1  19
ATOM     19  C   UNL     1      32.352 -13.679 -20.502  0.00  0.00    -0.045 C 
BRANCH  19  20
ATOM     20  C   UNL     1      32.294 -13.259 -21.961  0.00  0.00    +0.120 C 
BRANCH  20  21
ATOM     21  O   UNL     1      31.403 -12.158 -22.085  0.00  0.00    -0.351 OA
BRANCH  21  22
ATOM     22  C   UNL     1      31.289 -11.438 -20.866  0.00  0.00    +0.168 C 
BRANCH  22  23
ATOM     23  C   UNL     1      31.709 -10.016 -21.094  0.00  0.00    +0.007 C 
ATOM     24  C   UNL     1      31.728  -9.493 -22.388  0.00  0.00    -0.002 C 
ATOM     25  C   UNL     1      32.079  -9.215 -20.014  0.00  0.00    -0.002 C 
ATOM     26  C   UNL     1      32.118  -8.171 -22.600  0.00  0.00    -0.000 C 
ATOM     27  C   UNL     1      32.468  -7.892 -20.226  0.00  0.00    -0.000 C 
ATOM     28  C   UNL     1      32.488  -7.371 -21.519  0.00  0.00    -0.000 C 
ENDBRANCH  22  23
ENDBRANCH  21  22
ENDBRANCH  20  21
ENDBRANCH  19  20
ENDBRANCH   1  19
TORSDOF 9
ENDMDL
MODEL 8
REMARK VINA RESULT:      -8.4      9.183     14.854
REMARK  Name = 62516
REMARK  9 active torsions:
REMARK  status: ('A' for Active; 'I' for Inactive)
REMARK    1  A    between atoms: N_1  and  C_19
REMARK    2  A    between atoms: C_2  and  C_8
REMARK    3  A    between atoms: C_2  and  C_15
REMARK    4  A    between atoms: C_15  and  O_16
REMARK    5  A    between atoms: O_16  and  C_17
REMARK    6  A    between atoms: C_19  and  C_20
REMARK    7  A    between atoms: C_20  and  O_21
REMARK    8  A    between atoms: O_21  and  C_22
REMARK    9  A    between atoms: C_22  and  C_23
REMARK                            x       y       z     vdW  Elec       q    Type
REMARK                         _______ _______ _______ _____ _____    ______ ____
ROOT
ATOM      1  N   UNL     1      31.537  -5.910 -22.923  0.00  0.00    +0.389 N 
ATOM      2  C   UNL     1      32.710  -8.653 -22.833  0.00  0.00    +0.104 C 
ATOM      3  C   UNL     1      31.624  -8.198 -23.843  0.00  0.00    -0.008 C 
ATOM      4  C   UNL     1      33.470  -7.372 -22.396  0.00  0.00    -0.008 C 
ATOM      5  C   UNL     1      30.733  -7.083 -23.286  0.00  0.00    -0.076 C 
ATOM      6  C   UNL     1      32.543  -6.249 -21.910  0.00  0.00    -0.076 C 
ATOM      7  H   UNL     1      32.028  -5.596 -23.759  0.00  0.00    -0.080 HD
ENDROOT
BRANCH   2   8
ATOM      8  C   UNL     1      32.134  -9.514 -21.699  0.00  0.00    -0.013 C 
ATOM      9  C   UNL     1      31.398 -10.660 -21.998  0.00  0.00    -0.004 C 
ATOM     10  C   UNL     1      32.347  -9.149 -20.370  0.00  0.00    -0.004 C 
ATOM     11  C   UNL     1      30.874 -11.441 -20.969  0.00  0.00    -0.000 C 
ATOM     12  C   UNL     1      31.823  -9.931 -19.340  0.00  0.00    -0.000 C 
ATOM     13  C   UNL     1      31.086 -11.077 -19.639  0.00  0.00    -0.000 C 
ENDBRANCH   2   8
BRANCH   2  15
ATOM     14  O   UNL     1      34.921  -9.308 -23.571  0.00  0.00    -0.250 OA
ATOM     15  C   UNL     1      33.714  -9.503 -23.584  0.00  0.00    +0.320 C 
BRANCH  15  16
ATOM     16  O   UNL     1      33.060 -10.492 -24.257  0.00  0.00    -0.448 OA
BRANCH  16  17
ATOM     17  C   UNL     1      33.892 -11.522 -24.797  0.00  0.00    +0.209 C 
ATOM     18  C   UNL     1      33.689 -12.792 -23.998  0.00  0.00    +0.051 C 
ENDBRANCH  16  17
ENDBRANCH  15  16
ENDBRANCH   2  15
BRANCH   1  19
ATOM     19  C   UNL     1      30.679  -4.824 -22.451  0.00  0.00    -0.045 C 
BRANCH  19  20
ATOM     20  C   UNL     1      30.916  -3.561 -23.263  0.00  0.00    +0.120 C 
BRANCH  20  21
ATOM     21  O   UNL     1      30.568  -3.817 -24.618  0.00  0.00    -0.351 OA
BRANCH  21  22
ATOM     22  C   UNL     1      31.180  -2.885 -25.498  0.00  0.00    +0.168 C 
BRANCH  22  23
ATOM     23  C   UNL     1      32.416  -3.502 -26.084  0.00  0.00    +0.007 C 
ATOM     24  C   UNL     1      33.264  -2.738 -26.886  0.00  0.00    -0.002 C 
ATOM     25  C   UNL     1      32.717  -4.839 -25.827  0.00  0.00    -0.002 C 
ATOM     26  C   UNL     1      34.413  -3.312 -27.430  0.00  0.00    -0.000 C 
ATOM     27  C   UNL     1      33.867  -5.413 -26.370  0.00  0.00    -0.000 C 
ATOM     28  C   UNL     1      34.715  -4.649 -27.173  0.00  0.00    -0.000 C 
ENDBRANCH  22  23
ENDBRANCH  21  22
ENDBRANCH  20  21
ENDBRANCH  19  20
ENDBRANCH   1  19
TORSDOF 9
ENDMDL
MODEL 9
REMARK VINA RESULT:      -8.4      6.378     10.362
REMARK  Name = 62516
REMARK  9 active torsions:
REMARK  status: ('A' for Active; 'I' for Inactive)
REMARK    1  A    between atoms: N_1  and  C_19
REMARK    2  A    between atoms: C_2  and  C_8
REMARK    3  A    between atoms: C_2  and  C_15
REMARK    4  A    between atoms: C_15  and  O_16
REMARK    5  A    between atoms: O_16  and  C_17
REMARK    6  A    between atoms: C_19  and  C_20
REMARK    7  A    between atoms: C_20  and  O_21
REMARK    8  A    between atoms: O_21  and  C_22
REMARK    9  A    between atoms: C_22  and  C_23
REMARK                            x       y       z     vdW  Elec       q    Type
REMARK                         _______ _______ _______ _____ _____    ______ ____
ROOT
ATOM      1  N   UNL     1      34.069  -9.102 -24.501  0.00  0.00    +0.389 N 
ATOM      2  C   UNL     1      32.217  -8.043 -22.414  0.00  0.00    +0.104 C 
ATOM      3  C   UNL     1      33.725  -7.692 -22.506  0.00  0.00    -0.008 C 
ATOM      4  C   UNL     1      31.770  -8.443 -23.846  0.00  0.00    -0.008 C 
ATOM      5  C   UNL     1      34.552  -8.812 -23.147  0.00  0.00    -0.076 C 
ATOM      6  C   UNL     1      32.661  -9.516 -24.486  0.00  0.00    -0.076 C 
ATOM      7  H   UNL     1      34.137  -8.245 -25.048  0.00  0.00    -0.080 HD
ENDROOT
BRANCH   2   8
ATOM      8  C   UNL     1      31.918  -9.064 -21.305  0.00  0.00    -0.013 C 
ATOM      9  C   UNL     1      31.142 -10.189 -21.583  0.00  0.00    -0.004 C 
ATOM     10  C   UNL     1      32.424  -8.866 -20.021  0.00  0.00    -0.004 C 
ATOM     11  C   UNL     1      30.870 -11.115 -20.577  0.00  0.00    -0.000 C 
ATOM     12  C   UNL     1      32.153  -9.793 -19.014  0.00  0.00    -0.000 C 
ATOM     13  C   UNL     1      31.376 -10.917 -19.292  0.00  0.00    -0.000 C 
ENDBRANCH   2   8
BRANCH   2  15
ATOM     14  O   UNL     1      31.451  -6.259 -20.967  0.00  0.00    -0.250 OA
ATOM     15  C   UNL     1      31.465  -6.773 -22.077  0.00  0.00    +0.320 C 
BRANCH  15  16
ATOM     16  O   UNL     1      30.825  -6.313 -23.190  0.00  0.00    -0.448 OA
BRANCH  16  17
ATOM     17  C   UNL     1      31.036  -4.932 -23.495  0.00  0.00    +0.209 C 
ATOM     18  C   UNL     1      31.959  -4.824 -24.689  0.00  0.00    +0.051 C 
ENDBRANCH  16  17
ENDBRANCH  15  16
ENDBRANCH   2  15
BRANCH   1  19
ATOM     19  C   UNL     1      34.899 -10.126 -25.135  0.00  0.00    -0.045 C 
BRANCH  19  20
ATOM     20  C   UNL     1      34.105 -11.404 -25.348  0.00  0.00    +0.120 C 
BRANCH  20  21
ATOM     21  O   UNL     1      34.224 -12.215 -24.186  0.00  0.00    -0.351 OA
BRANCH  21  22
ATOM     22  C   UNL     1      33.514 -13.437 -24.327  0.00  0.00    +0.168 C 
BRANCH  22  23
ATOM     23  C   UNL     1      33.566 -14.188 -23.030  0.00  0.00    +0.007 C 
ATOM     24  C   UNL     1      32.626 -13.925 -22.033  0.00  0.00    -0.002 C 
ATOM     25  C   UNL     1      34.553 -15.151 -22.820  0.00  0.00    -0.002 C 
ATOM     26  C   UNL     1      32.674 -14.625 -20.827  0.00  0.00    -0.000 C 
ATOM     27  C   UNL     1      34.600 -15.851 -21.614  0.00  0.00    -0.000 C 
ATOM     28  C   UNL     1      33.661 -15.587 -20.618  0.00  0.00    -0.000 C 
ENDBRANCH  22  23
ENDBRANCH  21  22
ENDBRANCH  20  21
ENDBRANCH  19  20
ENDBRANCH   1  19
TORSDOF 9
ENDMDL
