MODEL 1
REMARK VINA RESULT:     -11.4      0.000      0.000
REMARK  Name = 6918554
REMARK  8 active torsions:
REMARK  status: ('A' for Active; 'I' for Inactive)
REMARK    1  A    between atoms: C_1  and  N_2
REMARK    2  A    between atoms: C_1  and  C_18
REMARK    3  A    between atoms: N_2  and  C_5
REMARK    4  A    between atoms: C_12  and  C_14
REMARK    5  A    between atoms: C_13  and  C_16
REMARK    6  A    between atoms: C_18  and  C_21
REMARK    7  A    between atoms: C_18  and  O_33
REMARK    8  A    between atoms: C_27  and  O_31
REMARK                            x       y       z     vdW  Elec       q    Type
REMARK                         _______ _______ _______ _____ _____    ______ ____
ROOT
ATOM      1  C   UNL     1      34.192 -18.129 -21.720  0.00  0.00    -0.047 C 
ENDROOT
BRANCH   1   2
ATOM      2  N   UNL     1      35.098 -19.132 -22.264  0.00  0.00    +0.387 N 
ATOM      3  H   UNL     1      34.778 -19.401 -23.195  0.00  0.00    -0.084 HD
ATOM      4  H   UNL     1      36.035 -18.734 -22.308  0.00  0.00    -0.084 HD
BRANCH   2   5
ATOM      5  C   UNL     1      35.137 -20.314 -21.417  0.00  0.00    -0.053 C 
ATOM      6  C   UNL     1      36.198 -20.220 -20.300  0.00  0.00    +0.005 C 
ATOM      7  C   UNL     1      33.790 -20.577 -20.711  0.00  0.00    +0.005 C 
ATOM      8  C   UNL     1      35.611 -21.138 -19.273  0.00  0.00    -0.029 C 
ATOM      9  C   UNL     1      34.246 -21.340 -19.506  0.00  0.00    -0.029 C 
ATOM     10  C   UNL     1      36.243 -21.713 -18.183  0.00  0.00    -0.009 C 
ATOM     11  C   UNL     1      33.484 -22.121 -18.654  0.00  0.00    -0.009 C 
ATOM     12  C   UNL     1      35.485 -22.513 -17.325  0.00  0.00    -0.026 C 
ATOM     13  C   UNL     1      34.115 -22.716 -17.559  0.00  0.00    -0.026 C 
BRANCH  12  14
ATOM     14  C   UNL     1      36.157 -23.143 -16.148  0.00  0.00    +0.026 C 
ATOM     15  C   UNL     1      37.613 -22.710 -16.015  0.00  0.00    +0.005 C 
ENDBRANCH  12  14
BRANCH  13  16
ATOM     16  C   UNL     1      33.304 -23.566 -16.636  0.00  0.00    +0.026 C 
ATOM     17  C   UNL     1      31.852 -23.105 -16.551  0.00  0.00    +0.005 C 
ENDBRANCH  13  16
ENDBRANCH   2   5
ENDBRANCH   1   2
BRANCH   1  18
ATOM     18  C   UNL     1      34.918 -16.795 -21.510  0.00  0.00    +0.112 C 
BRANCH  18  21
ATOM     19  O   UNL     1      32.695 -13.953 -26.815  0.00  0.00    -0.270 OA
ATOM     20  N   UNL     1      32.504 -13.697 -24.534  0.00  0.00    -0.278 N 
ATOM     21  C   UNL     1      34.003 -15.619 -21.770  0.00  0.00    +0.004 C 
ATOM     22  C   UNL     1      33.686 -15.215 -23.060  0.00  0.00    +0.015 C 
ATOM     23  C   UNL     1      33.490 -14.957 -20.662  0.00  0.00    +0.001 C 
ATOM     24  C   UNL     1      32.833 -14.118 -23.233  0.00  0.00    +0.084 C 
ATOM     25  C   UNL     1      32.641 -13.864 -20.843  0.00  0.00    +0.038 C 
ATOM     26  C   UNL     1      34.211 -15.896 -24.241  0.00  0.00    +0.006 C 
ATOM     27  C   UNL     1      32.310 -13.441 -22.130  0.00  0.00    +0.147 C 
ATOM     28  C   UNL     1      33.884 -15.479 -25.470  0.00  0.00    +0.058 C 
ATOM     29  C   UNL     1      32.980 -14.315 -25.675  0.00  0.00    +0.250 C 
ATOM     30  H   UNL     1      31.902 -12.925 -24.638  0.00  0.00    +0.155 HD
BRANCH  27  31
ATOM     31  O   UNL     1      31.481 -12.373 -22.287  0.00  0.00    -0.504 OA
ATOM     32  H   UNL     1      30.998 -12.044 -21.555  0.00  0.00    +0.292 HD
ENDBRANCH  27  31
ENDBRANCH  18  21
BRANCH  18  33
ATOM     33  O   UNL     1      35.397 -16.699 -20.170  0.00  0.00    -0.382 OA
ATOM     34  H   UNL     1      35.447 -15.766 -19.909  0.00  0.00    +0.211 HD
ENDBRANCH  18  33
ENDBRANCH   1  18
TORSDOF 8
ENDMDL
MODEL 2
REMARK VINA RESULT:     -11.3      1.592      2.363
REMARK  Name = 6918554
REMARK  8 active torsions:
REMARK  status: ('A' for Active; 'I' for Inactive)
REMARK    1  A    between atoms: C_1  and  N_2
REMARK    2  A    between atoms: C_1  and  C_18
REMARK    3  A    between atoms: N_2  and  C_5
REMARK    4  A    between atoms: C_12  and  C_14
REMARK    5  A    between atoms: C_13  and  C_16
REMARK    6  A    between atoms: C_18  and  C_21
REMARK    7  A    between atoms: C_18  and  O_33
REMARK    8  A    between atoms: C_27  and  O_31
REMARK                            x       y       z     vdW  Elec       q    Type
REMARK                         _______ _______ _______ _____ _____    ______ ____
ROOT
ATOM      1  C   UNL     1      35.366 -19.730 -20.643  0.00  0.00    -0.047 C 
ENDROOT
BRANCH   1   2
ATOM      2  N   UNL     1      36.317 -20.783 -20.314  0.00  0.00    +0.387 N 
ATOM      3  H   UNL     1      36.671 -21.195 -21.177  0.00  0.00    -0.084 HD
ATOM      4  H   UNL     1      37.079 -20.375 -19.773  0.00  0.00    -0.084 HD
BRANCH   2   5
ATOM      5  C   UNL     1      35.687 -21.823 -19.515  0.00  0.00    -0.053 C 
ATOM      6  C   UNL     1      36.203 -21.861 -18.061  0.00  0.00    +0.005 C 
ATOM      7  C   UNL     1      34.156 -21.651 -19.426  0.00  0.00    +0.005 C 
ATOM      8  C   UNL     1      35.028 -22.468 -17.359  0.00  0.00    -0.029 C 
ATOM      9  C   UNL     1      33.867 -22.349 -18.134  0.00  0.00    -0.029 C 
ATOM     10  C   UNL     1      34.990 -23.044 -16.100  0.00  0.00    -0.009 C 
ATOM     11  C   UNL     1      32.646 -22.803 -17.665  0.00  0.00    -0.009 C 
ATOM     12  C   UNL     1      33.765 -23.516 -15.624  0.00  0.00    -0.026 C 
ATOM     13  C   UNL     1      32.601 -23.396 -16.401  0.00  0.00    -0.026 C 
BRANCH  12  14
ATOM     14  C   UNL     1      33.714 -24.145 -14.269  0.00  0.00    +0.026 C 
ATOM     15  C   UNL     1      35.088 -24.206 -13.609  0.00  0.00    +0.005 C 
ENDBRANCH  12  14
BRANCH  13  16
ATOM     16  C   UNL     1      31.290 -23.896 -15.888  0.00  0.00    +0.026 C 
ATOM     17  C   UNL     1      30.402 -22.766 -15.376  0.00  0.00    +0.005 C 
ENDBRANCH  13  16
ENDBRANCH   2   5
ENDBRANCH   1   2
BRANCH   1  18
ATOM     18  C   UNL     1      35.851 -18.914 -21.848  0.00  0.00    +0.112 C 
BRANCH  18  21
ATOM     19  O   UNL     1      33.408 -15.393 -26.622  0.00  0.00    -0.270 OA
ATOM     20  N   UNL     1      33.652 -15.236 -24.338  0.00  0.00    -0.278 N 
ATOM     21  C   UNL     1      35.164 -17.569 -21.919  0.00  0.00    +0.004 C 
ATOM     22  C   UNL     1      34.727 -17.037 -23.125  0.00  0.00    +0.015 C 
ATOM     23  C   UNL     1      34.986 -16.883 -20.724  0.00  0.00    +0.001 C 
ATOM     24  C   UNL     1      34.098 -15.786 -23.123  0.00  0.00    +0.084 C 
ATOM     25  C   UNL     1      34.359 -15.636 -20.731  0.00  0.00    +0.038 C 
ATOM     26  C   UNL     1      34.901 -17.739 -24.394  0.00  0.00    +0.006 C 
ATOM     27  C   UNL     1      33.913 -15.084 -21.931  0.00  0.00    +0.147 C 
ATOM     28  C   UNL     1      34.468 -17.197 -25.538  0.00  0.00    +0.058 C 
ATOM     29  C   UNL     1      33.797 -15.868 -25.558  0.00  0.00    +0.250 C 
ATOM     30  H   UNL     1      33.211 -14.355 -24.318  0.00  0.00    +0.155 HD
BRANCH  27  31
ATOM     31  O   UNL     1      33.305 -13.866 -21.918  0.00  0.00    -0.504 OA
ATOM     32  H   UNL     1      33.184 -13.394 -22.718  0.00  0.00    +0.292 HD
ENDBRANCH  27  31
ENDBRANCH  18  21
BRANCH  18  33
ATOM     33  O   UNL     1      37.257 -18.692 -21.759  0.00  0.00    -0.382 OA
ATOM     34  H   UNL     1      37.456 -17.773 -21.998  0.00  0.00    +0.211 HD
ENDBRANCH  18  33
ENDBRANCH   1  18
TORSDOF 8
ENDMDL
MODEL 3
REMARK VINA RESULT:     -11.0      2.139      4.238
REMARK  Name = 6918554
REMARK  8 active torsions:
REMARK  status: ('A' for Active; 'I' for Inactive)
REMARK    1  A    between atoms: C_1  and  N_2
REMARK    2  A    between atoms: C_1  and  C_18
REMARK    3  A    between atoms: N_2  and  C_5
REMARK    4  A    between atoms: C_12  and  C_14
REMARK    5  A    between atoms: C_13  and  C_16
REMARK    6  A    between atoms: C_18  and  C_21
REMARK    7  A    between atoms: C_18  and  O_33
REMARK    8  A    between atoms: C_27  and  O_31
REMARK                            x       y       z     vdW  Elec       q    Type
REMARK                         _______ _______ _______ _____ _____    ______ ____
ROOT
ATOM      1  C   UNL     1      36.028 -20.158 -20.634  0.00  0.00    -0.047 C 
ENDROOT
BRANCH   1   2
ATOM      2  N   UNL     1      35.746 -21.506 -20.156  0.00  0.00    +0.387 N 
ATOM      3  H   UNL     1      34.906 -21.854 -20.617  0.00  0.00    -0.084 HD
ATOM      4  H   UNL     1      36.546 -22.101 -20.372  0.00  0.00    -0.084 HD
BRANCH   2   5
ATOM      5  C   UNL     1      35.536 -21.515 -18.717  0.00  0.00    -0.053 C 
ATOM      6  C   UNL     1      34.483 -22.550 -18.269  0.00  0.00    +0.005 C 
ATOM      7  C   UNL     1      36.826 -21.844 -17.936  0.00  0.00    +0.005 C 
ATOM      8  C   UNL     1      34.927 -22.814 -16.863  0.00  0.00    -0.029 C 
ATOM      9  C   UNL     1      36.255 -22.414 -16.675  0.00  0.00    -0.029 C 
ATOM     10  C   UNL     1      34.209 -23.413 -15.841  0.00  0.00    -0.009 C 
ATOM     11  C   UNL     1      36.893 -22.603 -15.460  0.00  0.00    -0.009 C 
ATOM     12  C   UNL     1      34.840 -23.596 -14.608  0.00  0.00    -0.026 C 
ATOM     13  C   UNL     1      36.172 -23.194 -14.419  0.00  0.00    -0.026 C 
BRANCH  12  14
ATOM     14  C   UNL     1      34.073 -24.235 -13.496  0.00  0.00    +0.026 C 
ATOM     15  C   UNL     1      32.624 -24.517 -13.881  0.00  0.00    +0.005 C 
ENDBRANCH  12  14
BRANCH  13  16
ATOM     16  C   UNL     1      36.847 -23.397 -13.102  0.00  0.00    +0.026 C 
ATOM     17  C   UNL     1      37.830 -24.564 -13.131  0.00  0.00    +0.005 C 
ENDBRANCH  13  16
ENDBRANCH   2   5
ENDBRANCH   1   2
BRANCH   1  18
ATOM     18  C   UNL     1      34.730 -19.371 -20.847  0.00  0.00    +0.112 C 
BRANCH  18  21
ATOM     19  O   UNL     1      34.169 -13.246 -22.672  0.00  0.00    -0.270 OA
ATOM     20  N   UNL     1      34.433 -15.307 -23.667  0.00  0.00    -0.278 N 
ATOM     21  C   UNL     1      34.719 -18.669 -22.185  0.00  0.00    +0.004 C 
ATOM     22  C   UNL     1      34.578 -17.290 -22.284  0.00  0.00    +0.015 C 
ATOM     23  C   UNL     1      34.858 -19.461 -23.318  0.00  0.00    +0.001 C 
ATOM     24  C   UNL     1      34.576 -16.701 -23.553  0.00  0.00    +0.084 C 
ATOM     25  C   UNL     1      34.854 -18.864 -24.580  0.00  0.00    +0.038 C 
ATOM     26  C   UNL     1      34.432 -16.437 -21.107  0.00  0.00    +0.006 C 
ATOM     27  C   UNL     1      34.713 -17.482 -24.702  0.00  0.00    +0.147 C 
ATOM     28  C   UNL     1      34.298 -15.112 -21.239  0.00  0.00    +0.058 C 
ATOM     29  C   UNL     1      34.293 -14.466 -22.580  0.00  0.00    +0.250 C 
ATOM     30  H   UNL     1      34.434 -14.909 -24.568  0.00  0.00    +0.155 HD
BRANCH  27  31
ATOM     31  O   UNL     1      34.711 -16.920 -25.942  0.00  0.00    -0.504 OA
ATOM     32  H   UNL     1      34.118 -16.222 -26.138  0.00  0.00    +0.292 HD
ENDBRANCH  27  31
ENDBRANCH  18  21
BRANCH  18  33
ATOM     33  O   UNL     1      33.606 -20.250 -20.795  0.00  0.00    -0.382 OA
ATOM     34  H   UNL     1      33.631 -20.758 -19.970  0.00  0.00    +0.211 HD
ENDBRANCH  18  33
ENDBRANCH   1  18
TORSDOF 8
ENDMDL
MODEL 4
REMARK VINA RESULT:     -10.9      1.603      3.027
REMARK  Name = 6918554
REMARK  8 active torsions:
REMARK  status: ('A' for Active; 'I' for Inactive)
REMARK    1  A    between atoms: C_1  and  N_2
REMARK    2  A    between atoms: C_1  and  C_18
REMARK    3  A    between atoms: N_2  and  C_5
REMARK    4  A    between atoms: C_12  and  C_14
REMARK    5  A    between atoms: C_13  and  C_16
REMARK    6  A    between atoms: C_18  and  C_21
REMARK    7  A    between atoms: C_18  and  O_33
REMARK    8  A    between atoms: C_27  and  O_31
REMARK                            x       y       z     vdW  Elec       q    Type
REMARK                         _______ _______ _______ _____ _____    ______ ____
ROOT
ATOM      1  C   UNL     1      34.604 -19.839 -21.114  0.00  0.00    -0.047 C 
ENDROOT
BRANCH   1   2
ATOM      2  N   UNL     1      35.256 -21.059 -20.658  0.00  0.00    +0.387 N 
ATOM      3  H   UNL     1      34.818 -21.861 -21.111  0.00  0.00    -0.084 HD
ATOM      4  H   UNL     1      36.245 -21.008 -20.900  0.00  0.00    -0.084 HD
BRANCH   2   5
ATOM      5  C   UNL     1      35.138 -21.206 -19.215  0.00  0.00    -0.053 C 
ATOM      6  C   UNL     1      34.111 -22.281 -18.801  0.00  0.00    +0.005 C 
ATOM      7  C   UNL     1      36.473 -21.606 -18.554  0.00  0.00    +0.005 C 
ATOM      8  C   UNL     1      34.642 -22.677 -17.459  0.00  0.00    -0.029 C 
ATOM      9  C   UNL     1      35.982 -22.295 -17.319  0.00  0.00    -0.029 C 
ATOM     10  C   UNL     1      33.988 -23.371 -16.454  0.00  0.00    -0.009 C 
ATOM     11  C   UNL     1      36.694 -22.598 -16.171  0.00  0.00    -0.009 C 
ATOM     12  C   UNL     1      34.695 -23.670 -15.288  0.00  0.00    -0.026 C 
ATOM     13  C   UNL     1      36.039 -23.286 -15.147  0.00  0.00    -0.026 C 
BRANCH  12  14
ATOM     14  C   UNL     1      33.997 -24.412 -14.194  0.00  0.00    +0.026 C 
ATOM     15  C   UNL     1      32.505 -24.102 -14.146  0.00  0.00    +0.005 C 
ENDBRANCH  12  14
BRANCH  13  16
ATOM     16  C   UNL     1      36.796 -23.613 -13.901  0.00  0.00    +0.026 C 
ATOM     17  C   UNL     1      37.972 -24.547 -14.168  0.00  0.00    +0.005 C 
ENDBRANCH  13  16
ENDBRANCH   2   5
ENDBRANCH   1   2
BRANCH   1  18
ATOM     18  C   UNL     1      35.633 -18.838 -21.652  0.00  0.00    +0.112 C 
BRANCH  18  21
ATOM     19  O   UNL     1      33.445 -15.485 -26.666  0.00  0.00    -0.270 OA
ATOM     20  N   UNL     1      33.686 -15.196 -24.394  0.00  0.00    -0.278 N 
ATOM     21  C   UNL     1      35.033 -17.459 -21.816  0.00  0.00    +0.004 C 
ATOM     22  C   UNL     1      34.637 -16.980 -23.058  0.00  0.00    +0.015 C 
ATOM     23  C   UNL     1      34.893 -16.689 -20.669  0.00  0.00    +0.001 C 
ATOM     24  C   UNL     1      34.089 -15.695 -23.142  0.00  0.00    +0.084 C 
ATOM     25  C   UNL     1      34.346 -15.408 -20.762  0.00  0.00    +0.038 C 
ATOM     26  C   UNL     1      34.774 -17.772 -24.278  0.00  0.00    +0.006 C 
ATOM     27  C   UNL     1      33.943 -14.907 -21.999  0.00  0.00    +0.147 C 
ATOM     28  C   UNL     1      34.382 -17.278 -25.458  0.00  0.00    +0.058 C 
ATOM     29  C   UNL     1      33.798 -15.914 -25.569  0.00  0.00    +0.250 C 
ATOM     30  H   UNL     1      33.302 -14.291 -24.434  0.00  0.00    +0.155 HD
BRANCH  27  31
ATOM     31  O   UNL     1      33.413 -13.655 -22.069  0.00  0.00    -0.504 OA
ATOM     32  H   UNL     1      32.734 -13.399 -21.476  0.00  0.00    +0.292 HD
ENDBRANCH  27  31
ENDBRANCH  18  21
BRANCH  18  33
ATOM     33  O   UNL     1      36.740 -18.739 -20.758  0.00  0.00    -0.382 OA
ATOM     34  H   UNL     1      37.029 -19.629 -20.500  0.00  0.00    +0.211 HD
ENDBRANCH  18  33
ENDBRANCH   1  18
TORSDOF 8
ENDMDL
MODEL 5
REMARK VINA RESULT:     -10.8      2.778      9.404
REMARK  Name = 6918554
REMARK  8 active torsions:
REMARK  status: ('A' for Active; 'I' for Inactive)
REMARK    1  A    between atoms: C_1  and  N_2
REMARK    2  A    between atoms: C_1  and  C_18
REMARK    3  A    between atoms: N_2  and  C_5
REMARK    4  A    between atoms: C_12  and  C_14
REMARK    5  A    between atoms: C_13  and  C_16
REMARK    6  A    between atoms: C_18  and  C_21
REMARK    7  A    between atoms: C_18  and  O_33
REMARK    8  A    between atoms: C_27  and  O_31
REMARK                            x       y       z     vdW  Elec       q    Type
REMARK                         _______ _______ _______ _____ _____    ______ ____
ROOT
ATOM      1  C   UNL     1      35.050 -16.850 -22.175  0.00  0.00    -0.047 C 
ENDROOT
BRANCH   1   2
ATOM      2  N   UNL     1      34.594 -16.342 -23.463  0.00  0.00    +0.387 N 
ATOM      3  H   UNL     1      35.383 -15.919 -23.952  0.00  0.00    -0.084 HD
ATOM      4  H   UNL     1      34.213 -17.119 -24.001  0.00  0.00    -0.084 HD
BRANCH   2   5
ATOM      5  C   UNL     1      33.552 -15.342 -23.289  0.00  0.00    -0.053 C 
ATOM      6  C   UNL     1      33.211 -15.078 -21.807  0.00  0.00    +0.005 C 
ATOM      7  C   UNL     1      33.941 -13.976 -23.892  0.00  0.00    +0.005 C 
ATOM      8  C   UNL     1      32.689 -13.677 -21.882  0.00  0.00    -0.029 C 
ATOM      9  C   UNL     1      33.104 -13.052 -23.064  0.00  0.00    -0.029 C 
ATOM     10  C   UNL     1      31.938 -12.996 -20.939  0.00  0.00    -0.009 C 
ATOM     11  C   UNL     1      32.775 -11.733 -23.328  0.00  0.00    -0.009 C 
ATOM     12  C   UNL     1      31.591 -11.669 -21.202  0.00  0.00    -0.026 C 
ATOM     13  C   UNL     1      32.007 -11.041 -22.388  0.00  0.00    -0.026 C 
BRANCH  12  14
ATOM     14  C   UNL     1      30.775 -10.926 -20.194  0.00  0.00    +0.026 C 
ATOM     15  C   UNL     1      31.505 -10.764 -18.865  0.00  0.00    +0.005 C 
ENDBRANCH  12  14
BRANCH  13  16
ATOM     16  C   UNL     1      31.640  -9.620 -22.664  0.00  0.00    +0.026 C 
ATOM     17  C   UNL     1      32.688  -8.908 -23.515  0.00  0.00    +0.005 C 
ENDBRANCH  13  16
ENDBRANCH   2   5
ENDBRANCH   1   2
BRANCH   1  18
ATOM     18  C   UNL     1      35.555 -18.292 -22.304  0.00  0.00    +0.112 C 
BRANCH  18  21
ATOM     19  O   UNL     1      37.117 -22.401 -17.632  0.00  0.00    -0.270 OA
ATOM     20  N   UNL     1      35.213 -21.695 -18.718  0.00  0.00    -0.278 N 
ATOM     21  C   UNL     1      34.766 -19.237 -21.427  0.00  0.00    +0.004 C 
ATOM     22  C   UNL     1      35.386 -20.031 -20.470  0.00  0.00    +0.015 C 
ATOM     23  C   UNL     1      33.391 -19.280 -21.617  0.00  0.00    +0.001 C 
ATOM     24  C   UNL     1      34.599 -20.885 -19.689  0.00  0.00    +0.084 C 
ATOM     25  C   UNL     1      32.614 -20.136 -20.834  0.00  0.00    +0.038 C 
ATOM     26  C   UNL     1      36.830 -20.002 -20.251  0.00  0.00    +0.006 C 
ATOM     27  C   UNL     1      33.216 -20.941 -19.868  0.00  0.00    +0.147 C 
ATOM     28  C   UNL     1      37.393 -20.781 -19.320  0.00  0.00    +0.058 C 
ATOM     29  C   UNL     1      36.574 -21.697 -18.481  0.00  0.00    +0.250 C 
ATOM     30  H   UNL     1      34.644 -22.290 -18.177  0.00  0.00    +0.155 HD
BRANCH  27  31
ATOM     31  O   UNL     1      32.440 -21.770 -19.116  0.00  0.00    -0.504 OA
ATOM     32  H   UNL     1      32.439 -21.692 -18.183  0.00  0.00    +0.292 HD
ENDBRANCH  27  31
ENDBRANCH  18  21
BRANCH  18  33
ATOM     33  O   UNL     1      35.439 -18.736 -23.655  0.00  0.00    -0.382 OA
ATOM     34  H   UNL     1      34.801 -18.177 -24.126  0.00  0.00    +0.211 HD
ENDBRANCH  18  33
ENDBRANCH   1  18
TORSDOF 8
ENDMDL
MODEL 6
REMARK VINA RESULT:     -10.7      3.456      9.839
REMARK  Name = 6918554
REMARK  8 active torsions:
REMARK  status: ('A' for Active; 'I' for Inactive)
REMARK    1  A    between atoms: C_1  and  N_2
REMARK    2  A    between atoms: C_1  and  C_18
REMARK    3  A    between atoms: N_2  and  C_5
REMARK    4  A    between atoms: C_12  and  C_14
REMARK    5  A    between atoms: C_13  and  C_16
REMARK    6  A    between atoms: C_18  and  C_21
REMARK    7  A    between atoms: C_18  and  O_33
REMARK    8  A    between atoms: C_27  and  O_31
REMARK                            x       y       z     vdW  Elec       q    Type
REMARK                         _______ _______ _______ _____ _____    ______ ____
ROOT
ATOM      1  C   UNL     1      35.561 -19.935 -20.856  0.00  0.00    -0.047 C 
ENDROOT
BRANCH   1   2
ATOM      2  N   UNL     1      35.915 -18.524 -20.773  0.00  0.00    +0.387 N 
ATOM      3  H   UNL     1      36.003 -18.260 -19.792  0.00  0.00    -0.084 HD
ATOM      4  H   UNL     1      36.797 -18.381 -21.263  0.00  0.00    -0.084 HD
BRANCH   2   5
ATOM      5  C   UNL     1      34.897 -17.694 -21.398  0.00  0.00    -0.053 C 
ATOM      6  C   UNL     1      34.647 -16.374 -20.639  0.00  0.00    +0.005 C 
ATOM      7  C   UNL     1      35.267 -17.299 -22.843  0.00  0.00    +0.005 C 
ATOM      8  C   UNL     1      34.139 -15.503 -21.746  0.00  0.00    -0.029 C 
ATOM      9  C   UNL     1      34.491 -16.027 -22.996  0.00  0.00    -0.029 C 
ATOM     10  C   UNL     1      33.453 -14.304 -21.641  0.00  0.00    -0.009 C 
ATOM     11  C   UNL     1      34.164 -15.364 -24.166  0.00  0.00    -0.009 C 
ATOM     12  C   UNL     1      33.108 -13.634 -22.817  0.00  0.00    -0.026 C 
ATOM     13  C   UNL     1      33.460 -14.161 -24.071  0.00  0.00    -0.026 C 
BRANCH  12  14
ATOM     14  C   UNL     1      32.362 -12.343 -22.716  0.00  0.00    +0.026 C 
ATOM     15  C   UNL     1      31.775 -12.122 -21.326  0.00  0.00    +0.005 C 
ENDBRANCH  12  14
BRANCH  13  16
ATOM     16  C   UNL     1      33.096 -13.439 -25.327  0.00  0.00    +0.026 C 
ATOM     17  C   UNL     1      32.962 -14.384 -26.518  0.00  0.00    +0.005 C 
ENDBRANCH  13  16
ENDBRANCH   2   5
ENDBRANCH   1   2
BRANCH   1  18
ATOM     18  C   UNL     1      36.326 -20.753 -19.808  0.00  0.00    +0.112 C 
BRANCH  18  21
ATOM     19  O   UNL     1      36.870 -23.543 -14.056  0.00  0.00    -0.270 OA
ATOM     20  N   UNL     1      35.258 -23.281 -15.681  0.00  0.00    -0.278 N 
ATOM     21  C   UNL     1      35.385 -21.547 -18.930  0.00  0.00    +0.004 C 
ATOM     22  C   UNL     1      35.785 -22.044 -17.696  0.00  0.00    +0.015 C 
ATOM     23  C   UNL     1      34.099 -21.760 -19.409  0.00  0.00    +0.001 C 
ATOM     24  C   UNL     1      34.866 -22.771 -16.931  0.00  0.00    +0.084 C 
ATOM     25  C   UNL     1      33.189 -22.488 -18.640  0.00  0.00    +0.038 C 
ATOM     26  C   UNL     1      37.132 -21.831 -17.171  0.00  0.00    +0.006 C 
ATOM     27  C   UNL     1      33.570 -22.996 -17.398  0.00  0.00    +0.147 C 
ATOM     28  C   UNL     1      37.483 -22.325 -15.978  0.00  0.00    +0.058 C 
ATOM     29  C   UNL     1      36.521 -23.102 -15.150  0.00  0.00    +0.250 C 
ATOM     30  H   UNL     1      34.599 -23.790 -15.156  0.00  0.00    +0.155 HD
BRANCH  27  31
ATOM     31  O   UNL     1      32.668 -23.704 -16.664  0.00  0.00    -0.504 OA
ATOM     32  H   UNL     1      32.394 -24.552 -16.950  0.00  0.00    +0.292 HD
ENDBRANCH  27  31
ENDBRANCH  18  21
BRANCH  18  33
ATOM     33  O   UNL     1      37.216 -21.666 -20.447  0.00  0.00    -0.382 OA
ATOM     34  H   UNL     1      37.142 -21.570 -21.410  0.00  0.00    +0.211 HD
ENDBRANCH  18  33
ENDBRANCH   1  18
TORSDOF 8
ENDMDL
MODEL 7
REMARK VINA RESULT:     -10.7      5.488      9.224
REMARK  Name = 6918554
REMARK  8 active torsions:
REMARK  status: ('A' for Active; 'I' for Inactive)
REMARK    1  A    between atoms: C_1  and  N_2
REMARK    2  A    between atoms: C_1  and  C_18
REMARK    3  A    between atoms: N_2  and  C_5
REMARK    4  A    between atoms: C_12  and  C_14
REMARK    5  A    between atoms: C_13  and  C_16
REMARK    6  A    between atoms: C_18  and  C_21
REMARK    7  A    between atoms: C_18  and  O_33
REMARK    8  A    between atoms: C_27  and  O_31
REMARK                            x       y       z     vdW  Elec       q    Type
REMARK                         _______ _______ _______ _____ _____    ______ ____
ROOT
ATOM      1  C   UNL     1      31.977  -9.237 -20.711  0.00  0.00    -0.047 C 
ENDROOT
BRANCH   1   2
ATOM      2  N   UNL     1      31.308  -9.515 -21.975  0.00  0.00    +0.387 N 
ATOM      3  H   UNL     1      30.315  -9.304 -21.881  0.00  0.00    -0.084 HD
ATOM      4  H   UNL     1      31.730  -8.935 -22.700  0.00  0.00    -0.084 HD
BRANCH   2   5
ATOM      5  C   UNL     1      31.463 -10.912 -22.351  0.00  0.00    -0.053 C 
ATOM      6  C   UNL     1      32.677 -11.157 -23.271  0.00  0.00    +0.005 C 
ATOM      7  C   UNL     1      31.655 -11.832 -21.128  0.00  0.00    +0.005 C 
ATOM      8  C   UNL     1      32.982 -12.589 -22.962  0.00  0.00    -0.029 C 
ATOM      9  C   UNL     1      32.403 -12.972 -21.747  0.00  0.00    -0.029 C 
ATOM     10  C   UNL     1      33.761 -13.472 -23.692  0.00  0.00    -0.009 C 
ATOM     11  C   UNL     1      32.589 -14.246 -21.236  0.00  0.00    -0.009 C 
ATOM     12  C   UNL     1      33.944 -14.763 -23.192  0.00  0.00    -0.026 C 
ATOM     13  C   UNL     1      33.362 -15.147 -21.972  0.00  0.00    -0.026 C 
BRANCH  12  14
ATOM     14  C   UNL     1      34.777 -15.726 -23.974  0.00  0.00    +0.026 C 
ATOM     15  C   UNL     1      34.016 -16.322 -25.153  0.00  0.00    +0.005 C 
ENDBRANCH  12  14
BRANCH  13  16
ATOM     16  C   UNL     1      33.565 -16.526 -21.435  0.00  0.00    +0.026 C 
ATOM     17  C   UNL     1      34.907 -16.677 -20.723  0.00  0.00    +0.005 C 
ENDBRANCH  13  16
ENDBRANCH   2   5
ENDBRANCH   1   2
BRANCH   1  18
ATOM     18  C   UNL     1      32.900  -8.020 -20.837  0.00  0.00    +0.112 C 
BRANCH  18  21
ATOM     19  O   UNL     1      34.317  -5.582 -26.600  0.00  0.00    -0.270 OA
ATOM     20  N   UNL     1      32.735  -5.268 -24.956  0.00  0.00    -0.278 N 
ATOM     21  C   UNL     1      32.286  -6.945 -21.706  0.00  0.00    +0.004 C 
ATOM     22  C   UNL     1      32.820  -6.617 -22.945  0.00  0.00    +0.015 C 
ATOM     23  C   UNL     1      31.160  -6.298 -21.212  0.00  0.00    +0.001 C 
ATOM     24  C   UNL     1      32.204  -5.612 -23.700  0.00  0.00    +0.084 C 
ATOM     25  C   UNL     1      30.553  -5.296 -21.972  0.00  0.00    +0.038 C 
ATOM     26  C   UNL     1      34.001  -7.285 -23.485  0.00  0.00    +0.006 C 
ATOM     27  C   UNL     1      31.073  -4.950 -23.219  0.00  0.00    +0.147 C 
ATOM     28  C   UNL     1      34.489  -6.942 -24.683  0.00  0.00    +0.058 C 
ATOM     29  C   UNL     1      33.850  -5.876 -25.502  0.00  0.00    +0.250 C 
ATOM     30  H   UNL     1      32.289  -4.560 -25.474  0.00  0.00    +0.155 HD
BRANCH  27  31
ATOM     31  O   UNL     1      30.467  -3.970 -23.944  0.00  0.00    -0.504 OA
ATOM     32  H   UNL     1      30.036  -3.263 -23.507  0.00  0.00    +0.292 HD
ENDBRANCH  27  31
ENDBRANCH  18  21
BRANCH  18  33
ATOM     33  O   UNL     1      33.157  -7.460 -19.550  0.00  0.00    -0.382 OA
ATOM     34  H   UNL     1      33.009  -6.502 -19.578  0.00  0.00    +0.211 HD
ENDBRANCH  18  33
ENDBRANCH   1  18
TORSDOF 8
ENDMDL
MODEL 8
REMARK VINA RESULT:     -10.7      1.473      2.897
REMARK  Name = 6918554
REMARK  8 active torsions:
REMARK  status: ('A' for Active; 'I' for Inactive)
REMARK    1  A    between atoms: C_1  and  N_2
REMARK    2  A    between atoms: C_1  and  C_18
REMARK    3  A    between atoms: N_2  and  C_5
REMARK    4  A    between atoms: C_12  and  C_14
REMARK    5  A    between atoms: C_13  and  C_16
REMARK    6  A    between atoms: C_18  and  C_21
REMARK    7  A    between atoms: C_18  and  O_33
REMARK    8  A    between atoms: C_27  and  O_31
REMARK                            x       y       z     vdW  Elec       q    Type
REMARK                         _______ _______ _______ _____ _____    ______ ____
ROOT
ATOM      1  C   UNL     1      35.732 -19.374 -21.025  0.00  0.00    -0.047 C 
ENDROOT
BRANCH   1   2
ATOM      2  N   UNL     1      35.079 -20.650 -21.286  0.00  0.00    +0.387 N 
ATOM      3  H   UNL     1      34.071 -20.505 -21.334  0.00  0.00    -0.084 HD
ATOM      4  H   UNL     1      35.430 -21.020 -22.168  0.00  0.00    -0.084 HD
BRANCH   2   5
ATOM      5  C   UNL     1      35.370 -21.610 -20.231  0.00  0.00    -0.053 C 
ATOM      6  C   UNL     1      36.454 -21.116 -19.250  0.00  0.00    +0.005 C 
ATOM      7  C   UNL     1      34.129 -21.937 -19.375  0.00  0.00    +0.005 C 
ATOM      8  C   UNL     1      36.092 -21.886 -18.018  0.00  0.00    -0.029 C 
ATOM      9  C   UNL     1      34.774 -22.351 -18.089  0.00  0.00    -0.029 C 
ATOM     10  C   UNL     1      36.871 -22.113 -16.895  0.00  0.00    -0.009 C 
ATOM     11  C   UNL     1      34.207 -23.054 -17.039  0.00  0.00    -0.009 C 
ATOM     12  C   UNL     1      36.312 -22.831 -15.836  0.00  0.00    -0.026 C 
ATOM     13  C   UNL     1      34.989 -23.298 -15.907  0.00  0.00    -0.026 C 
BRANCH  12  14
ATOM     14  C   UNL     1      37.145 -23.088 -14.623  0.00  0.00    +0.026 C 
ATOM     15  C   UNL     1      38.030 -24.320 -14.779  0.00  0.00    +0.005 C 
ENDBRANCH  12  14
BRANCH  13  16
ATOM     16  C   UNL     1      34.391 -24.061 -14.771  0.00  0.00    +0.026 C 
ATOM     17  C   UNL     1      33.007 -23.541 -14.392  0.00  0.00    +0.005 C 
ENDBRANCH  13  16
ENDBRANCH   2   5
ENDBRANCH   1   2
BRANCH   1  18
ATOM     18  C   UNL     1      34.712 -18.229 -21.019  0.00  0.00    +0.112 C 
BRANCH  18  21
ATOM     19  O   UNL     1      33.015 -12.395 -23.079  0.00  0.00    -0.270 OA
ATOM     20  N   UNL     1      33.688 -14.399 -23.993  0.00  0.00    -0.278 N 
ATOM     21  C   UNL     1      34.590 -17.589 -22.384  0.00  0.00    +0.004 C 
ATOM     22  C   UNL     1      34.188 -16.268 -22.535  0.00  0.00    +0.015 C 
ATOM     23  C   UNL     1      34.898 -18.378 -23.484  0.00  0.00    +0.001 C 
ATOM     24  C   UNL     1      34.095 -15.734 -23.826  0.00  0.00    +0.084 C 
ATOM     25  C   UNL     1      34.802 -17.838 -24.768  0.00  0.00    +0.038 C 
ATOM     26  C   UNL     1      33.860 -15.419 -21.393  0.00  0.00    +0.006 C 
ATOM     27  C   UNL     1      34.400 -16.514 -24.943  0.00  0.00    +0.147 C 
ATOM     28  C   UNL     1      33.475 -14.150 -21.575  0.00  0.00    +0.058 C 
ATOM     29  C   UNL     1      33.369 -13.564 -22.939  0.00  0.00    +0.250 C 
ATOM     30  H   UNL     1      33.628 -14.040 -24.908  0.00  0.00    +0.155 HD
BRANCH  27  31
ATOM     31  O   UNL     1      34.311 -16.006 -26.203  0.00  0.00    -0.504 OA
ATOM     32  H   UNL     1      35.086 -15.882 -26.713  0.00  0.00    +0.292 HD
ENDBRANCH  27  31
ENDBRANCH  18  21
BRANCH  18  33
ATOM     33  O   UNL     1      33.426 -18.716 -20.639  0.00  0.00    -0.382 OA
ATOM     34  H   UNL     1      32.738 -18.167 -21.046  0.00  0.00    +0.211 HD
ENDBRANCH  18  33
ENDBRANCH   1  18
TORSDOF 8
ENDMDL
MODEL 9
REMARK VINA RESULT:     -10.5      1.234      3.428
REMARK  Name = 6918554
REMARK  8 active torsions:
REMARK  status: ('A' for Active; 'I' for Inactive)
REMARK    1  A    between atoms: C_1  and  N_2
REMARK    2  A    between atoms: C_1  and  C_18
REMARK    3  A    between atoms: N_2  and  C_5
REMARK    4  A    between atoms: C_12  and  C_14
REMARK    5  A    between atoms: C_13  and  C_16
REMARK    6  A    between atoms: C_18  and  C_21
REMARK    7  A    between atoms: C_18  and  O_33
REMARK    8  A    between atoms: C_27  and  O_31
REMARK                            x       y       z     vdW  Elec       q    Type
REMARK                         _______ _______ _______ _____ _____    ______ ____
ROOT
ATOM      1  C   UNL     1      34.417 -19.407 -21.758  0.00  0.00    -0.047 C 
ENDROOT
BRANCH   1   2
ATOM      2  N   UNL     1      35.151 -20.532 -21.193  0.00  0.00    +0.387 N 
ATOM      3  H   UNL     1      34.964 -21.366 -21.749  0.00  0.00    -0.084 HD
ATOM      4  H   UNL     1      36.146 -20.309 -21.206  0.00  0.00    -0.084 HD
BRANCH   2   5
ATOM      5  C   UNL     1      34.749 -20.778 -19.817  0.00  0.00    -0.053 C 
ATOM      6  C   UNL     1      33.384 -21.489 -19.707  0.00  0.00    +0.005 C 
ATOM      7  C   UNL     1      35.760 -21.663 -19.058  0.00  0.00    +0.005 C 
ATOM      8  C   UNL     1      33.528 -22.174 -18.383  0.00  0.00    -0.029 C 
ATOM      9  C   UNL     1      34.875 -22.273 -18.016  0.00  0.00    -0.029 C 
ATOM     10  C   UNL     1      32.529 -22.712 -17.588  0.00  0.00    -0.009 C 
ATOM     11  C   UNL     1      35.252 -22.910 -16.845  0.00  0.00    -0.009 C 
ATOM     12  C   UNL     1      32.898 -23.346 -16.400  0.00  0.00    -0.026 C 
ATOM     13  C   UNL     1      34.250 -23.445 -16.031  0.00  0.00    -0.026 C 
BRANCH  12  14
ATOM     14  C   UNL     1      31.829 -23.924 -15.531  0.00  0.00    +0.026 C 
ATOM     15  C   UNL     1      30.921 -22.851 -14.941  0.00  0.00    +0.005 C 
ENDBRANCH  12  14
BRANCH  13  16
ATOM     16  C   UNL     1      34.644 -24.129 -14.763  0.00  0.00    +0.026 C 
ATOM     17  C   UNL     1      35.706 -25.201 -14.990  0.00  0.00    +0.005 C 
ENDBRANCH  13  16
ENDBRANCH   2   5
ENDBRANCH   1   2
BRANCH   1  18
ATOM     18  C   UNL     1      35.331 -18.188 -21.930  0.00  0.00    +0.112 C 
BRANCH  18  21
ATOM     19  O   UNL     1      31.915 -12.789 -21.350  0.00  0.00    -0.270 OA
ATOM     20  N   UNL     1      32.798 -14.076 -23.043  0.00  0.00    -0.278 N 
ATOM     21  C   UNL     1      34.754 -17.197 -22.915  0.00  0.00    +0.004 C 
ATOM     22  C   UNL     1      34.036 -16.085 -22.493  0.00  0.00    +0.015 C 
ATOM     23  C   UNL     1      34.971 -17.444 -24.264  0.00  0.00    +0.001 C 
ATOM     24  C   UNL     1      33.528 -15.205 -23.456  0.00  0.00    +0.084 C 
ATOM     25  C   UNL     1      34.460 -16.561 -25.218  0.00  0.00    +0.038 C 
ATOM     26  C   UNL     1      33.796 -15.804 -21.080  0.00  0.00    +0.006 C 
ATOM     27  C   UNL     1      33.736 -15.439 -24.816  0.00  0.00    +0.147 C 
ATOM     28  C   UNL     1      33.100 -14.723 -20.710  0.00  0.00    +0.058 C 
ATOM     29  C   UNL     1      32.550 -13.775 -21.717  0.00  0.00    +0.250 C 
ATOM     30  H   UNL     1      32.449 -13.467 -23.733  0.00  0.00    +0.155 HD
BRANCH  27  31
ATOM     31  O   UNL     1      33.245 -14.591 -25.761  0.00  0.00    -0.504 OA
ATOM     32  H   UNL     1      33.648 -14.546 -26.605  0.00  0.00    +0.292 HD
ENDBRANCH  27  31
ENDBRANCH  18  21
BRANCH  18  33
ATOM     33  O   UNL     1      35.508 -17.524 -20.680  0.00  0.00    -0.382 OA
ATOM     34  H   UNL     1      36.077 -18.060 -20.106  0.00  0.00    +0.211 HD
ENDBRANCH  18  33
ENDBRANCH   1  18
TORSDOF 8
ENDMDL
