MODEL 1
REMARK VINA RESULT:      -8.1      0.000      0.000
REMARK  Name = 445940
REMARK  4 active torsions:
REMARK  status: ('A' for Active; 'I' for Inactive)
REMARK    1  A    between atoms: C_7  and  O_15
REMARK    2  A    between atoms: O_15  and  C_16
REMARK    3  A    between atoms: C_16  and  C_18
REMARK    4  A    between atoms: C_18  and  C_19
REMARK                            x       y       z     vdW  Elec       q    Type
REMARK                         _______ _______ _______ _____ _____    ______ ____
ROOT
ATOM      1  N   UNL     1      29.068 -22.378 -17.126  0.00  0.00    -0.266 NA
ATOM      2  N   UNL     1      32.060 -23.910 -15.632  0.00  0.00    -0.293 NA
ATOM      3  N   UNL     1      28.043 -23.244 -15.346  0.00  0.00    -0.296 N 
ATOM      4  N   UNL     1      30.014 -24.260 -14.351  0.00  0.00    -0.316 NA
ATOM      5  N   UNL     1      32.064 -25.126 -13.631  0.00  0.00    -0.283 N 
ATOM      6  C   UNL     1      30.042 -23.015 -16.411  0.00  0.00    +0.215 C 
ATOM      7  C   UNL     1      31.398 -23.201 -16.573  0.00  0.00    +0.288 C 
ATOM      8  C   UNL     1      29.380 -23.545 -15.311  0.00  0.00    +0.196 C 
ATOM      9  C   UNL     1      27.889 -22.542 -16.449  0.00  0.00    +0.164 C 
ATOM     10  C   UNL     1      31.336 -24.390 -14.593  0.00  0.00    +0.200 C 
ATOM     11  H   UNL     1      29.192 -21.890 -17.972  0.00  0.00    +0.126 HD
ATOM     12  H   UNL     1      27.351 -23.496 -14.693  0.00  0.00    +0.150 HD
ATOM     13  H   UNL     1      33.034 -25.260 -13.745  0.00  0.00    +0.156 HD
ATOM     14  H   UNL     1      31.604 -25.504 -12.848  0.00  0.00    +0.156 HD
ENDROOT
BRANCH   7  15
ATOM     15  O   UNL     1      32.103 -22.699 -17.640  0.00  0.00    -0.445 OA
BRANCH  15  16
ATOM     16  C   UNL     1      33.500 -22.909 -17.647  0.00  0.00    +0.271 C 
BRANCH  16  18
ATOM     17  O   UNL     1      34.092 -23.676 -19.847  0.00  0.00    -0.292 OA
ATOM     18  C   UNL     1      34.060 -22.741 -19.047  0.00  0.00    +0.194 C 
BRANCH  18  19
ATOM     19  C   UNL     1      34.556 -21.345 -19.415  0.00  0.00    +0.061 C 
ATOM     20  C   UNL     1      35.868 -21.419 -20.193  0.00  0.00    +0.008 C 
ATOM     21  C   UNL     1      33.489 -20.612 -20.218  0.00  0.00    +0.008 C 
ENDBRANCH  18  19
ENDBRANCH  16  18
ENDBRANCH  15  16
ENDBRANCH   7  15
TORSDOF 4
ENDMDL
MODEL 2
REMARK VINA RESULT:      -8.0      7.159      9.761
REMARK  Name = 445940
REMARK  4 active torsions:
REMARK  status: ('A' for Active; 'I' for Inactive)
REMARK    1  A    between atoms: C_7  and  O_15
REMARK    2  A    between atoms: O_15  and  C_16
REMARK    3  A    between atoms: C_16  and  C_18
REMARK    4  A    between atoms: C_18  and  C_19
REMARK                            x       y       z     vdW  Elec       q    Type
REMARK                         _______ _______ _______ _____ _____    ______ ____
ROOT
ATOM      1  N   UNL     1      34.859 -16.037 -21.011  0.00  0.00    -0.266 NA
ATOM      2  N   UNL     1      34.495 -16.817 -24.586  0.00  0.00    -0.293 NA
ATOM      3  N   UNL     1      33.700 -14.211 -21.547  0.00  0.00    -0.296 N 
ATOM      4  N   UNL     1      33.453 -14.717 -23.912  0.00  0.00    -0.316 NA
ATOM      5  N   UNL     1      33.374 -15.458 -26.129  0.00  0.00    -0.283 N 
ATOM      6  C   UNL     1      34.612 -16.136 -22.350  0.00  0.00    +0.215 C 
ATOM      7  C   UNL     1      34.918 -17.060 -23.326  0.00  0.00    +0.288 C 
ATOM      8  C   UNL     1      33.891 -14.990 -22.659  0.00  0.00    +0.196 C 
ATOM      9  C   UNL     1      34.294 -14.869 -20.574  0.00  0.00    +0.164 C 
ATOM     10  C   UNL     1      33.798 -15.675 -24.799  0.00  0.00    +0.200 C 
ATOM     11  H   UNL     1      35.353 -16.687 -20.460  0.00  0.00    +0.126 HD
ATOM     12  H   UNL     1      33.224 -13.351 -21.489  0.00  0.00    +0.150 HD
ATOM     13  H   UNL     1      33.591 -16.117 -26.828  0.00  0.00    +0.156 HD
ATOM     14  H   UNL     1      32.862 -14.649 -26.358  0.00  0.00    +0.156 HD
ENDROOT
BRANCH   7  15
ATOM     15  O   UNL     1      35.627 -18.210 -23.076  0.00  0.00    -0.445 OA
BRANCH  15  16
ATOM     16  C   UNL     1      34.905 -19.318 -22.581  0.00  0.00    +0.271 C 
BRANCH  16  18
ATOM     17  O   UNL     1      36.005 -18.835 -20.500  0.00  0.00    -0.292 OA
ATOM     18  C   UNL     1      35.268 -19.590 -21.133  0.00  0.00    +0.194 C 
BRANCH  18  19
ATOM     19  C   UNL     1      34.650 -20.836 -20.502  0.00  0.00    +0.061 C 
ATOM     20  C   UNL     1      35.515 -21.353 -19.355  0.00  0.00    +0.008 C 
ATOM     21  C   UNL     1      33.239 -20.525 -20.021  0.00  0.00    +0.008 C 
ENDBRANCH  18  19
ENDBRANCH  16  18
ENDBRANCH  15  16
ENDBRANCH   7  15
TORSDOF 4
ENDMDL
MODEL 3
REMARK VINA RESULT:      -8.0      6.456      8.765
REMARK  Name = 445940
REMARK  4 active torsions:
REMARK  status: ('A' for Active; 'I' for Inactive)
REMARK    1  A    between atoms: C_7  and  O_15
REMARK    2  A    between atoms: O_15  and  C_16
REMARK    3  A    between atoms: C_16  and  C_18
REMARK    4  A    between atoms: C_18  and  C_19
REMARK                            x       y       z     vdW  Elec       q    Type
REMARK                         _______ _______ _______ _____ _____    ______ ____
ROOT
ATOM      1  N   UNL     1      34.950 -15.994 -20.221  0.00  0.00    -0.266 NA
ATOM      2  N   UNL     1      35.251 -18.620 -22.779  0.00  0.00    -0.293 NA
ATOM      3  N   UNL     1      34.203 -14.768 -21.926  0.00  0.00    -0.296 N 
ATOM      4  N   UNL     1      34.397 -16.497 -23.624  0.00  0.00    -0.316 NA
ATOM      5  N   UNL     1      34.689 -18.340 -25.035  0.00  0.00    -0.283 N 
ATOM      6  C   UNL     1      34.983 -16.816 -21.311  0.00  0.00    +0.215 C 
ATOM      7  C   UNL     1      35.356 -18.126 -21.526  0.00  0.00    +0.288 C 
ATOM      8  C   UNL     1      34.515 -16.032 -22.357  0.00  0.00    +0.196 C 
ATOM      9  C   UNL     1      34.476 -14.779 -20.639  0.00  0.00    +0.164 C 
ATOM     10  C   UNL     1      34.784 -17.786 -23.739  0.00  0.00    +0.200 C 
ATOM     11  H   UNL     1      35.217 -16.232 -19.304  0.00  0.00    +0.126 HD
ATOM     12  H   UNL     1      33.853 -14.020 -22.461  0.00  0.00    +0.150 HD
ATOM     13  H   UNL     1      34.955 -19.276 -25.191  0.00  0.00    +0.156 HD
ATOM     14  H   UNL     1      34.358 -17.792 -25.782  0.00  0.00    +0.156 HD
ENDROOT
BRANCH   7  15
ATOM     15  O   UNL     1      35.825 -18.947 -20.529  0.00  0.00    -0.445 OA
BRANCH  15  16
ATOM     16  C   UNL     1      35.857 -20.333 -20.796  0.00  0.00    +0.271 C 
BRANCH  16  18
ATOM     17  O   UNL     1      36.086 -21.251 -18.587  0.00  0.00    -0.292 OA
ATOM     18  C   UNL     1      35.384 -21.123 -19.590  0.00  0.00    +0.194 C 
BRANCH  18  19
ATOM     19  C   UNL     1      33.985 -21.726 -19.681  0.00  0.00    +0.061 C 
ATOM     20  C   UNL     1      33.643 -22.507 -18.415  0.00  0.00    +0.008 C 
ATOM     21  C   UNL     1      32.963 -20.623 -19.931  0.00  0.00    +0.008 C 
ENDBRANCH  18  19
ENDBRANCH  16  18
ENDBRANCH  15  16
ENDBRANCH   7  15
TORSDOF 4
ENDMDL
MODEL 4
REMARK VINA RESULT:      -7.9      1.811      2.620
REMARK  Name = 445940
REMARK  4 active torsions:
REMARK  status: ('A' for Active; 'I' for Inactive)
REMARK    1  A    between atoms: C_7  and  O_15
REMARK    2  A    between atoms: O_15  and  C_16
REMARK    3  A    between atoms: C_16  and  C_18
REMARK    4  A    between atoms: C_18  and  C_19
REMARK                            x       y       z     vdW  Elec       q    Type
REMARK                         _______ _______ _______ _____ _____    ______ ____
ROOT
ATOM      1  N   UNL     1      31.068 -22.739 -17.106  0.00  0.00    -0.266 NA
ATOM      2  N   UNL     1      34.530 -23.847 -16.549  0.00  0.00    -0.293 NA
ATOM      3  N   UNL     1      30.891 -23.008 -14.900  0.00  0.00    -0.296 N 
ATOM      4  N   UNL     1      33.177 -23.741 -14.521  0.00  0.00    -0.316 NA
ATOM      5  N   UNL     1      35.417 -24.415 -14.457  0.00  0.00    -0.283 N 
ATOM      6  C   UNL     1      32.295 -23.164 -16.685  0.00  0.00    +0.215 C 
ATOM      7  C   UNL     1      33.495 -23.429 -17.310  0.00  0.00    +0.288 C 
ATOM      8  C   UNL     1      32.160 -23.324 -15.313  0.00  0.00    +0.196 C 
ATOM      9  C   UNL     1      30.260 -22.660 -16.002  0.00  0.00    +0.164 C 
ATOM     10  C   UNL     1      34.310 -23.976 -15.218  0.00  0.00    +0.200 C 
ATOM     11  H   UNL     1      30.810 -22.527 -18.032  0.00  0.00    +0.126 HD
ATOM     12  H   UNL     1      30.531 -23.035 -13.985  0.00  0.00    +0.150 HD
ATOM     13  H   UNL     1      36.275 -24.605 -14.901  0.00  0.00    +0.156 HD
ATOM     14  H   UNL     1      35.330 -24.531 -13.483  0.00  0.00    +0.156 HD
ENDROOT
BRANCH   7  15
ATOM     15  O   UNL     1      33.685 -23.288 -18.663  0.00  0.00    -0.445 OA
BRANCH  15  16
ATOM     16  C   UNL     1      34.524 -22.235 -19.090  0.00  0.00    +0.271 C 
BRANCH  16  18
ATOM     17  O   UNL     1      32.554 -20.891 -19.386  0.00  0.00    -0.292 OA
ATOM     18  C   UNL     1      33.710 -21.128 -19.735  0.00  0.00    +0.194 C 
BRANCH  18  19
ATOM     19  C   UNL     1      34.412 -20.314 -20.819  0.00  0.00    +0.061 C 
ATOM     20  C   UNL     1      33.731 -18.962 -21.012  0.00  0.00    +0.008 C 
ATOM     21  C   UNL     1      35.882 -20.137 -20.462  0.00  0.00    +0.008 C 
ENDBRANCH  18  19
ENDBRANCH  16  18
ENDBRANCH  15  16
ENDBRANCH   7  15
TORSDOF 4
ENDMDL
MODEL 5
REMARK VINA RESULT:      -7.9      7.857     10.433
REMARK  Name = 445940
REMARK  4 active torsions:
REMARK  status: ('A' for Active; 'I' for Inactive)
REMARK    1  A    between atoms: C_7  and  O_15
REMARK    2  A    between atoms: O_15  and  C_16
REMARK    3  A    between atoms: C_16  and  C_18
REMARK    4  A    between atoms: C_18  and  C_19
REMARK                            x       y       z     vdW  Elec       q    Type
REMARK                         _______ _______ _______ _____ _____    ______ ____
ROOT
ATOM      1  N   UNL     1      34.027 -15.833 -25.767  0.00  0.00    -0.266 NA
ATOM      2  N   UNL     1      33.924 -15.116 -22.161  0.00  0.00    -0.293 NA
ATOM      3  N   UNL     1      32.509 -14.204 -25.879  0.00  0.00    -0.296 N 
ATOM      4  N   UNL     1      32.434 -13.722 -23.498  0.00  0.00    -0.316 NA
ATOM      5  N   UNL     1      32.569 -13.479 -21.175  0.00  0.00    -0.283 N 
ATOM      6  C   UNL     1      33.839 -15.412 -24.482  0.00  0.00    +0.215 C 
ATOM      7  C   UNL     1      34.360 -15.773 -23.257  0.00  0.00    +0.288 C 
ATOM      8  C   UNL     1      32.892 -14.401 -24.577  0.00  0.00    +0.196 C 
ATOM      9  C   UNL     1      33.210 -15.080 -26.568  0.00  0.00    +0.164 C 
ATOM     10  C   UNL     1      32.999 -14.143 -22.346  0.00  0.00    +0.200 C 
ATOM     11  H   UNL     1      34.638 -16.545 -26.063  0.00  0.00    +0.126 HD
ATOM     12  H   UNL     1      31.855 -13.553 -26.223  0.00  0.00    +0.150 HD
ATOM     13  H   UNL     1      32.941 -13.736 -20.300  0.00  0.00    +0.156 HD
ATOM     14  H   UNL     1      31.899 -12.761 -21.234  0.00  0.00    +0.156 HD
ENDROOT
BRANCH   7  15
ATOM     15  O   UNL     1      35.299 -16.765 -23.104  0.00  0.00    -0.445 OA
BRANCH  15  16
ATOM     16  C   UNL     1      34.822 -18.086 -22.950  0.00  0.00    +0.271 C 
BRANCH  16  18
ATOM     17  O   UNL     1      35.461 -17.817 -20.649  0.00  0.00    -0.292 OA
ATOM     18  C   UNL     1      34.952 -18.537 -21.507  0.00  0.00    +0.194 C 
BRANCH  18  19
ATOM     19  C   UNL     1      34.395 -19.919 -21.177  0.00  0.00    +0.061 C 
ATOM     20  C   UNL     1      35.295 -20.647 -20.182  0.00  0.00    +0.008 C 
ATOM     21  C   UNL     1      32.978 -19.789 -20.634  0.00  0.00    +0.008 C 
ENDBRANCH  18  19
ENDBRANCH  16  18
ENDBRANCH  15  16
ENDBRANCH   7  15
TORSDOF 4
ENDMDL
MODEL 6
REMARK VINA RESULT:      -7.8      5.528      6.498
REMARK  Name = 445940
REMARK  4 active torsions:
REMARK  status: ('A' for Active; 'I' for Inactive)
REMARK    1  A    between atoms: C_7  and  O_15
REMARK    2  A    between atoms: O_15  and  C_16
REMARK    3  A    between atoms: C_16  and  C_18
REMARK    4  A    between atoms: C_18  and  C_19
REMARK                            x       y       z     vdW  Elec       q    Type
REMARK                         _______ _______ _______ _____ _____    ______ ____
ROOT
ATOM      1  N   UNL     1      37.220 -25.929 -15.529  0.00  0.00    -0.266 NA
ATOM      2  N   UNL     1      37.359 -22.992 -13.320  0.00  0.00    -0.293 NA
ATOM      3  N   UNL     1      36.994 -27.047 -13.613  0.00  0.00    -0.296 N 
ATOM      4  N   UNL     1      37.085 -25.112 -12.145  0.00  0.00    -0.316 NA
ATOM      5  N   UNL     1      37.204 -23.084 -10.985  0.00  0.00    -0.283 N 
ATOM      6  C   UNL     1      37.247 -24.985 -14.543  0.00  0.00    +0.215 C 
ATOM      7  C   UNL     1      37.376 -23.612 -14.520  0.00  0.00    +0.288 C 
ATOM      8  C   UNL     1      37.105 -25.703 -13.363  0.00  0.00    +0.196 C 
ATOM      9  C   UNL     1      37.066 -27.148 -14.924  0.00  0.00    +0.164 C 
ATOM     10  C   UNL     1      37.217 -23.770 -12.220  0.00  0.00    +0.200 C 
ATOM     11  H   UNL     1      37.295 -25.764 -16.496  0.00  0.00    +0.126 HD
ATOM     12  H   UNL     1      36.884 -27.774 -12.959  0.00  0.00    +0.150 HD
ATOM     13  H   UNL     1      37.296 -22.103 -10.966  0.00  0.00    +0.156 HD
ATOM     14  H   UNL     1      37.104 -23.585 -10.144  0.00  0.00    +0.156 HD
ENDROOT
BRANCH   7  15
ATOM     15  O   UNL     1      37.518 -22.852 -15.655  0.00  0.00    -0.445 OA
BRANCH  15  16
ATOM     16  C   UNL     1      36.353 -22.601 -16.414  0.00  0.00    +0.271 C 
BRANCH  16  18
ATOM     17  O   UNL     1      37.333 -20.601 -17.316  0.00  0.00    -0.292 OA
ATOM     18  C   UNL     1      36.637 -21.596 -17.514  0.00  0.00    +0.194 C 
BRANCH  18  19
ATOM     19  C   UNL     1      36.032 -21.900 -18.883  0.00  0.00    +0.061 C 
ATOM     20  C   UNL     1      34.522 -22.103 -18.779  0.00  0.00    +0.008 C 
ATOM     21  C   UNL     1      36.364 -20.776 -19.856  0.00  0.00    +0.008 C 
ENDBRANCH  18  19
ENDBRANCH  16  18
ENDBRANCH  15  16
ENDBRANCH   7  15
TORSDOF 4
ENDMDL
MODEL 7
REMARK VINA RESULT:      -7.8      3.358      6.271
REMARK  Name = 445940
REMARK  4 active torsions:
REMARK  status: ('A' for Active; 'I' for Inactive)
REMARK    1  A    between atoms: C_7  and  O_15
REMARK    2  A    between atoms: O_15  and  C_16
REMARK    3  A    between atoms: C_16  and  C_18
REMARK    4  A    between atoms: C_18  and  C_19
REMARK                            x       y       z     vdW  Elec       q    Type
REMARK                         _______ _______ _______ _____ _____    ______ ____
ROOT
ATOM      1  N   UNL     1      32.830 -20.673 -20.523  0.00  0.00    -0.266 NA
ATOM      2  N   UNL     1      34.838 -22.484 -18.030  0.00  0.00    -0.293 NA
ATOM      3  N   UNL     1      34.775 -19.700 -21.014  0.00  0.00    -0.296 N 
ATOM      4  N   UNL     1      36.110 -20.892 -19.370  0.00  0.00    -0.316 NA
ATOM      5  N   UNL     1      37.137 -22.180 -17.708  0.00  0.00    -0.283 N 
ATOM      6  C   UNL     1      33.746 -21.228 -19.676  0.00  0.00    +0.215 C 
ATOM      7  C   UNL     1      33.693 -22.178 -18.678  0.00  0.00    +0.288 C 
ATOM      8  C   UNL     1      34.946 -20.607 -20.000  0.00  0.00    +0.196 C 
ATOM      9  C   UNL     1      33.493 -19.765 -21.306  0.00  0.00    +0.164 C 
ATOM     10  C   UNL     1      35.961 -21.831 -18.410  0.00  0.00    +0.200 C 
ATOM     11  H   UNL     1      31.871 -20.888 -20.565  0.00  0.00    +0.126 HD
ATOM     12  H   UNL     1      35.458 -19.128 -21.432  0.00  0.00    +0.150 HD
ATOM     13  H   UNL     1      37.101 -22.858 -16.995  0.00  0.00    +0.156 HD
ATOM     14  H   UNL     1      37.991 -21.746 -17.931  0.00  0.00    +0.156 HD
ENDROOT
BRANCH   7  15
ATOM     15  O   UNL     1      32.535 -22.823 -18.317  0.00  0.00    -0.445 OA
BRANCH  15  16
ATOM     16  C   UNL     1      32.415 -23.227 -16.969  0.00  0.00    +0.271 C 
BRANCH  16  18
ATOM     17  O   UNL     1      30.166 -22.389 -17.088  0.00  0.00    -0.292 OA
ATOM     18  C   UNL     1      30.979 -23.100 -16.497  0.00  0.00    +0.194 C 
BRANCH  18  19
ATOM     19  C   UNL     1      30.594 -23.918 -15.267  0.00  0.00    +0.061 C 
ATOM     20  C   UNL     1      31.024 -23.211 -13.984  0.00  0.00    +0.008 C 
ATOM     21  C   UNL     1      29.093 -24.177 -15.268  0.00  0.00    +0.008 C 
ENDBRANCH  18  19
ENDBRANCH  16  18
ENDBRANCH  15  16
ENDBRANCH   7  15
TORSDOF 4
ENDMDL
MODEL 8
REMARK VINA RESULT:      -7.7      2.044      3.951
REMARK  Name = 445940
REMARK  4 active torsions:
REMARK  status: ('A' for Active; 'I' for Inactive)
REMARK    1  A    between atoms: C_7  and  O_15
REMARK    2  A    between atoms: O_15  and  C_16
REMARK    3  A    between atoms: C_16  and  C_18
REMARK    4  A    between atoms: C_18  and  C_19
REMARK                            x       y       z     vdW  Elec       q    Type
REMARK                         _______ _______ _______ _____ _____    ______ ____
ROOT
ATOM      1  N   UNL     1      35.527 -23.160 -16.402  0.00  0.00    -0.266 NA
ATOM      2  N   UNL     1      31.990 -23.138 -17.412  0.00  0.00    -0.293 NA
ATOM      3  N   UNL     1      34.679 -23.262 -14.343  0.00  0.00    -0.296 N 
ATOM      4  N   UNL     1      32.339 -23.249 -15.000  0.00  0.00    -0.316 NA
ATOM      5  N   UNL     1      30.187 -23.222 -15.919  0.00  0.00    -0.283 N 
ATOM      6  C   UNL     1      34.171 -23.162 -16.560  0.00  0.00    +0.215 C 
ATOM      7  C   UNL     1      33.321 -23.117 -17.645  0.00  0.00    +0.288 C 
ATOM      8  C   UNL     1      33.666 -23.227 -15.268  0.00  0.00    +0.196 C 
ATOM      9  C   UNL     1      35.783 -23.221 -15.059  0.00  0.00    +0.164 C 
ATOM     10  C   UNL     1      31.586 -23.201 -16.121  0.00  0.00    +0.200 C 
ATOM     11  H   UNL     1      36.197 -23.121 -17.122  0.00  0.00    +0.126 HD
ATOM     12  H   UNL     1      34.598 -23.309 -13.363  0.00  0.00    +0.150 HD
ATOM     13  H   UNL     1      29.579 -23.189 -16.693  0.00  0.00    +0.156 HD
ATOM     14  H   UNL     1      29.822 -23.267 -15.007  0.00  0.00    +0.156 HD
ENDROOT
BRANCH   7  15
ATOM     15  O   UNL     1      33.764 -23.054 -18.944  0.00  0.00    -0.445 OA
BRANCH  15  16
ATOM     16  C   UNL     1      33.731 -21.791 -19.576  0.00  0.00    +0.271 C 
BRANCH  16  18
ATOM     17  O   UNL     1      36.075 -21.635 -19.073  0.00  0.00    -0.292 OA
ATOM     18  C   UNL     1      35.136 -21.252 -19.770  0.00  0.00    +0.194 C 
BRANCH  18  19
ATOM     19  C   UNL     1      35.321 -20.231 -20.889  0.00  0.00    +0.061 C 
ATOM     20  C   UNL     1      34.104 -19.318 -21.003  0.00  0.00    +0.008 C 
ATOM     21  C   UNL     1      36.588 -19.420 -20.644  0.00  0.00    +0.008 C 
ENDBRANCH  18  19
ENDBRANCH  16  18
ENDBRANCH  15  16
ENDBRANCH   7  15
TORSDOF 4
ENDMDL
MODEL 9
REMARK VINA RESULT:      -7.7      4.454      6.832
REMARK  Name = 445940
REMARK  4 active torsions:
REMARK  status: ('A' for Active; 'I' for Inactive)
REMARK    1  A    between atoms: C_7  and  O_15
REMARK    2  A    between atoms: O_15  and  C_16
REMARK    3  A    between atoms: C_16  and  C_18
REMARK    4  A    between atoms: C_18  and  C_19
REMARK                            x       y       z     vdW  Elec       q    Type
REMARK                         _______ _______ _______ _____ _____    ______ ____
ROOT
ATOM      1  N   UNL     1      34.961 -24.357 -11.998  0.00  0.00    -0.266 NA
ATOM      2  N   UNL     1      36.275 -24.043 -15.419  0.00  0.00    -0.293 NA
ATOM      3  N   UNL     1      37.074 -23.952 -11.417  0.00  0.00    -0.296 N 
ATOM      4  N   UNL     1      37.953 -23.742 -13.673  0.00  0.00    -0.316 NA
ATOM      5  N   UNL     1      38.514 -23.594 -15.940  0.00  0.00    -0.283 N 
ATOM      6  C   UNL     1      35.644 -24.203 -13.170  0.00  0.00    +0.215 C 
ATOM      7  C   UNL     1      35.302 -24.249 -14.504  0.00  0.00    +0.288 C 
ATOM      8  C   UNL     1      36.954 -23.952 -12.783  0.00  0.00    +0.196 C 
ATOM      9  C   UNL     1      35.858 -24.197 -10.976  0.00  0.00    +0.164 C 
ATOM     10  C   UNL     1      37.525 -23.805 -14.953  0.00  0.00    +0.200 C 
ATOM     11  H   UNL     1      34.000 -24.546 -11.905  0.00  0.00    +0.126 HD
ATOM     12  H   UNL     1      37.888 -23.801 -10.884  0.00  0.00    +0.150 HD
ATOM     13  H   UNL     1      38.271 -23.627 -16.894  0.00  0.00    +0.156 HD
ATOM     14  H   UNL     1      39.444 -23.416 -15.674  0.00  0.00    +0.156 HD
ENDROOT
BRANCH   7  15
ATOM     15  O   UNL     1      34.023 -24.492 -14.944  0.00  0.00    -0.445 OA
BRANCH  15  16
ATOM     16  C   UNL     1      33.206 -23.369 -15.205  0.00  0.00    +0.271 C 
BRANCH  16  18
ATOM     17  O   UNL     1      32.133 -23.463 -13.057  0.00  0.00    -0.292 OA
ATOM     18  C   UNL     1      32.007 -23.351 -14.276  0.00  0.00    +0.194 C 
BRANCH  18  19
ATOM     19  C   UNL     1      30.642 -23.164 -14.934  0.00  0.00    +0.061 C 
ATOM     20  C   UNL     1      30.790 -22.891 -16.428  0.00  0.00    +0.008 C 
ATOM     21  C   UNL     1      29.777 -24.394 -14.689  0.00  0.00    +0.008 C 
ENDBRANCH  18  19
ENDBRANCH  16  18
ENDBRANCH  15  16
ENDBRANCH   7  15
TORSDOF 4
ENDMDL
