MODEL 1
REMARK VINA RESULT:      -6.2      0.000      0.000
REMARK  Name = 5071
REMARK  2 active torsions:
REMARK  status: ('A' for Active; 'I' for Inactive)
REMARK    1  A    between atoms: C_1  and  C_11
REMARK    2  A    between atoms: C_11  and  N_13
REMARK                            x       y       z     vdW  Elec       q    Type
REMARK                         _______ _______ _______ _____ _____    ______ ____
ROOT
ATOM      1  C   UNL     1      31.860  -6.377 -23.546  0.00  0.00    -0.018 C 
ATOM      2  C   UNL     1      32.803  -7.424 -21.439  0.00  0.00    -0.000 C 
ATOM      3  C   UNL     1      31.595  -8.863 -23.120  0.00  0.00    -0.000 C 
ATOM      4  C   UNL     1      33.867  -7.920 -23.669  0.00  0.00    -0.000 C 
ATOM      5  C   UNL     1      32.139  -6.172 -22.038  0.00  0.00    -0.002 C 
ATOM      6  C   UNL     1      30.934  -7.607 -23.714  0.00  0.00    -0.002 C 
ATOM      7  C   UNL     1      33.200  -6.667 -24.262  0.00  0.00    -0.002 C 
ATOM      8  C   UNL     1      31.868  -8.631 -21.624  0.00  0.00    -0.000 C 
ATOM      9  C   UNL     1      34.129  -7.694 -22.171  0.00  0.00    -0.000 C 
ATOM     10  C   UNL     1      32.926  -9.124 -23.844  0.00  0.00    -0.000 C 
ENDROOT
BRANCH   1  11
ATOM     11  C   UNL     1      31.199  -5.130 -24.139  0.00  0.00    -0.066 C 
ATOM     12  C   UNL     1      31.236  -3.973 -23.147  0.00  0.00    -0.024 C 
BRANCH  11  13
ATOM     13  N   UNL     1      31.883  -4.766 -25.376  0.00  0.00    +0.382 N 
ATOM     14  H   UNL     1      31.903  -5.570 -26.003  0.00  0.00    -0.089 HD
ATOM     15  H   UNL     1      32.839  -4.477 -25.164  0.00  0.00    -0.089 HD
ATOM     16  H   UNL     1      31.387  -3.996 -25.825  0.00  0.00    -0.089 HD
ENDBRANCH  11  13
ENDBRANCH   1  11
TORSDOF 2
ENDMDL
MODEL 2
REMARK VINA RESULT:      -6.2      0.012      2.094
REMARK  Name = 5071
REMARK  2 active torsions:
REMARK  status: ('A' for Active; 'I' for Inactive)
REMARK    1  A    between atoms: C_1  and  C_11
REMARK    2  A    between atoms: C_11  and  N_13
REMARK                            x       y       z     vdW  Elec       q    Type
REMARK                         _______ _______ _______ _____ _____    ______ ____
ROOT
ATOM      1  C   UNL     1      31.865  -6.372 -23.552  0.00  0.00    -0.018 C 
ATOM      2  C   UNL     1      31.597  -8.857 -23.134  0.00  0.00    -0.000 C 
ATOM      3  C   UNL     1      33.872  -7.916 -23.675  0.00  0.00    -0.000 C 
ATOM      4  C   UNL     1      32.802  -7.426 -21.446  0.00  0.00    -0.000 C 
ATOM      5  C   UNL     1      30.939  -7.598 -23.726  0.00  0.00    -0.002 C 
ATOM      6  C   UNL     1      33.208  -6.660 -24.265  0.00  0.00    -0.002 C 
ATOM      7  C   UNL     1      32.141  -6.172 -22.043  0.00  0.00    -0.002 C 
ATOM      8  C   UNL     1      32.930  -9.118 -23.855  0.00  0.00    -0.000 C 
ATOM      9  C   UNL     1      31.866  -8.632 -21.637  0.00  0.00    -0.000 C 
ATOM     10  C   UNL     1      34.130  -7.694 -22.175  0.00  0.00    -0.000 C 
ENDROOT
BRANCH   1  11
ATOM     11  C   UNL     1      31.208  -5.121 -24.142  0.00  0.00    -0.066 C 
ATOM     12  C   UNL     1      31.247  -3.967 -23.147  0.00  0.00    -0.024 C 
BRANCH  11  13
ATOM     13  N   UNL     1      31.896  -4.755 -25.377  0.00  0.00    +0.382 N 
ATOM     14  H   UNL     1      32.738  -4.226 -25.153  0.00  0.00    -0.089 HD
ATOM     15  H   UNL     1      31.278  -4.182 -25.954  0.00  0.00    -0.089 HD
ATOM     16  H   UNL     1      32.150  -5.600 -25.888  0.00  0.00    -0.089 HD
ENDBRANCH  11  13
ENDBRANCH   1  11
TORSDOF 2
ENDMDL
MODEL 3
REMARK VINA RESULT:      -6.2      0.013      2.089
REMARK  Name = 5071
REMARK  2 active torsions:
REMARK  status: ('A' for Active; 'I' for Inactive)
REMARK    1  A    between atoms: C_1  and  C_11
REMARK    2  A    between atoms: C_11  and  N_13
REMARK                            x       y       z     vdW  Elec       q    Type
REMARK                         _______ _______ _______ _____ _____    ______ ____
ROOT
ATOM      1  C   UNL     1      31.868  -6.371 -23.552  0.00  0.00    -0.018 C 
ATOM      2  C   UNL     1      33.873  -7.916 -23.673  0.00  0.00    -0.000 C 
ATOM      3  C   UNL     1      32.802  -7.426 -21.444  0.00  0.00    -0.000 C 
ATOM      4  C   UNL     1      31.598  -8.857 -23.135  0.00  0.00    -0.000 C 
ATOM      5  C   UNL     1      33.210  -6.660 -24.264  0.00  0.00    -0.002 C 
ATOM      6  C   UNL     1      32.142  -6.171 -22.042  0.00  0.00    -0.002 C 
ATOM      7  C   UNL     1      30.941  -7.598 -23.728  0.00  0.00    -0.002 C 
ATOM      8  C   UNL     1      34.129  -7.694 -22.173  0.00  0.00    -0.000 C 
ATOM      9  C   UNL     1      32.932  -9.119 -23.854  0.00  0.00    -0.000 C 
ATOM     10  C   UNL     1      31.865  -8.630 -21.637  0.00  0.00    -0.000 C 
ENDROOT
BRANCH   1  11
ATOM     11  C   UNL     1      31.211  -5.120 -24.143  0.00  0.00    -0.066 C 
ATOM     12  C   UNL     1      31.249  -3.967 -23.147  0.00  0.00    -0.024 C 
BRANCH  11  13
ATOM     13  N   UNL     1      31.899  -4.754 -25.377  0.00  0.00    +0.382 N 
ATOM     14  H   UNL     1      32.025  -5.584 -25.956  0.00  0.00    -0.089 HD
ATOM     15  H   UNL     1      32.811  -4.355 -25.153  0.00  0.00    -0.089 HD
ATOM     16  H   UNL     1      31.343  -4.066 -25.885  0.00  0.00    -0.089 HD
ENDBRANCH  11  13
ENDBRANCH   1  11
TORSDOF 2
ENDMDL
MODEL 4
REMARK VINA RESULT:      -6.1      2.110      3.615
REMARK  Name = 5071
REMARK  2 active torsions:
REMARK  status: ('A' for Active; 'I' for Inactive)
REMARK    1  A    between atoms: C_1  and  C_11
REMARK    2  A    between atoms: C_11  and  N_13
REMARK                            x       y       z     vdW  Elec       q    Type
REMARK                         _______ _______ _______ _____ _____    ______ ____
ROOT
ATOM      1  C   UNL     1      32.296  -7.869 -21.627  0.00  0.00    -0.018 C 
ATOM      2  C   UNL     1      32.132  -9.164 -23.799  0.00  0.00    -0.000 C 
ATOM      3  C   UNL     1      31.805  -6.665 -23.803  0.00  0.00    -0.000 C 
ATOM      4  C   UNL     1      34.095  -7.636 -23.397  0.00  0.00    -0.000 C 
ATOM      5  C   UNL     1      31.851  -9.195 -22.287  0.00  0.00    -0.002 C 
ATOM      6  C   UNL     1      31.524  -6.703 -22.291  0.00  0.00    -0.002 C 
ATOM      7  C   UNL     1      33.808  -7.671 -21.886  0.00  0.00    -0.002 C 
ATOM      8  C   UNL     1      31.360  -7.995 -24.434  0.00  0.00    -0.000 C 
ATOM      9  C   UNL     1      33.639  -8.961 -24.030  0.00  0.00    -0.000 C 
ATOM     10  C   UNL     1      33.313  -6.474 -24.033  0.00  0.00    -0.000 C 
ENDROOT
BRANCH   1  11
ATOM     11  C   UNL     1      32.014  -7.903 -20.122  0.00  0.00    -0.066 C 
ATOM     12  C   UNL     1      32.012  -9.336 -19.603  0.00  0.00    -0.024 C 
BRANCH  11  13
ATOM     13  N   UNL     1      33.023  -7.108 -19.427  0.00  0.00    +0.382 N 
ATOM     14  H   UNL     1      32.704  -6.142 -19.354  0.00  0.00    -0.089 HD
ATOM     15  H   UNL     1      33.899  -7.137 -19.949  0.00  0.00    -0.089 HD
ATOM     16  H   UNL     1      33.171  -7.489 -18.493  0.00  0.00    -0.089 HD
ENDBRANCH  11  13
ENDBRANCH   1  11
TORSDOF 2
ENDMDL
MODEL 5
REMARK VINA RESULT:      -6.1      2.139      3.552
REMARK  Name = 5071
REMARK  2 active torsions:
REMARK  status: ('A' for Active; 'I' for Inactive)
REMARK    1  A    between atoms: C_1  and  C_11
REMARK    2  A    between atoms: C_11  and  N_13
REMARK                            x       y       z     vdW  Elec       q    Type
REMARK                         _______ _______ _______ _____ _____    ______ ____
ROOT
ATOM      1  C   UNL     1      32.315  -7.918 -21.624  0.00  0.00    -0.018 C 
ATOM      2  C   UNL     1      34.125  -7.630 -23.375  0.00  0.00    -0.000 C 
ATOM      3  C   UNL     1      32.236  -9.249 -23.781  0.00  0.00    -0.000 C 
ATOM      4  C   UNL     1      31.800  -6.767 -23.822  0.00  0.00    -0.000 C 
ATOM      5  C   UNL     1      33.821  -7.658 -21.867  0.00  0.00    -0.002 C 
ATOM      6  C   UNL     1      31.937  -9.273 -22.272  0.00  0.00    -0.002 C 
ATOM      7  C   UNL     1      31.503  -6.797 -22.313  0.00  0.00    -0.002 C 
ATOM      8  C   UNL     1      33.735  -8.982 -23.995  0.00  0.00    -0.000 C 
ATOM      9  C   UNL     1      33.302  -6.513 -24.037  0.00  0.00    -0.000 C 
ATOM     10  C   UNL     1      31.422  -8.123 -24.440  0.00  0.00    -0.000 C 
ENDROOT
BRANCH   1  11
ATOM     11  C   UNL     1      32.016  -7.946 -20.123  0.00  0.00    -0.066 C 
ATOM     12  C   UNL     1      32.017  -9.377 -19.596  0.00  0.00    -0.024 C 
BRANCH  11  13
ATOM     13  N   UNL     1      33.010  -7.141 -19.420  0.00  0.00    +0.382 N 
ATOM     14  H   UNL     1      33.396  -7.679 -18.644  0.00  0.00    -0.089 HD
ATOM     15  H   UNL     1      32.569  -6.294 -19.059  0.00  0.00    -0.089 HD
ATOM     16  H   UNL     1      33.759  -6.886 -20.064  0.00  0.00    -0.089 HD
ENDBRANCH  11  13
ENDBRANCH   1  11
TORSDOF 2
ENDMDL
MODEL 6
REMARK VINA RESULT:      -6.1      2.128      3.776
REMARK  Name = 5071
REMARK  2 active torsions:
REMARK  status: ('A' for Active; 'I' for Inactive)
REMARK    1  A    between atoms: C_1  and  C_11
REMARK    2  A    between atoms: C_11  and  N_13
REMARK                            x       y       z     vdW  Elec       q    Type
REMARK                         _______ _______ _______ _____ _____    ______ ____
ROOT
ATOM      1  C   UNL     1      32.302  -7.893 -21.622  0.00  0.00    -0.018 C 
ATOM      2  C   UNL     1      31.803  -6.724 -23.814  0.00  0.00    -0.000 C 
ATOM      3  C   UNL     1      34.112  -7.635 -23.378  0.00  0.00    -0.000 C 
ATOM      4  C   UNL     1      32.190  -9.214 -23.782  0.00  0.00    -0.000 C 
ATOM      5  C   UNL     1      31.509  -6.754 -22.304  0.00  0.00    -0.002 C 
ATOM      6  C   UNL     1      33.812  -7.661 -21.869  0.00  0.00    -0.002 C 
ATOM      7  C   UNL     1      31.895  -9.237 -22.272  0.00  0.00    -0.002 C 
ATOM      8  C   UNL     1      33.308  -6.499 -24.033  0.00  0.00    -0.000 C 
ATOM      9  C   UNL     1      31.396  -8.071 -24.436  0.00  0.00    -0.000 C 
ATOM     10  C   UNL     1      33.694  -8.977 -24.001  0.00  0.00    -0.000 C 
ENDROOT
BRANCH   1  11
ATOM     11  C   UNL     1      32.008  -7.920 -20.119  0.00  0.00    -0.066 C 
ATOM     12  C   UNL     1      31.990  -9.351 -19.595  0.00  0.00    -0.024 C 
BRANCH  11  13
ATOM     13  N   UNL     1      33.018  -7.131 -19.419  0.00  0.00    +0.382 N 
ATOM     14  H   UNL     1      32.604  -6.710 -18.587  0.00  0.00    -0.089 HD
ATOM     15  H   UNL     1      33.363  -6.394 -20.036  0.00  0.00    -0.089 HD
ATOM     16  H   UNL     1      33.792  -7.735 -19.146  0.00  0.00    -0.089 HD
ENDBRANCH  11  13
ENDBRANCH   1  11
TORSDOF 2
ENDMDL
MODEL 7
REMARK VINA RESULT:      -5.9     18.817     20.353
REMARK  Name = 5071
REMARK  2 active torsions:
REMARK  status: ('A' for Active; 'I' for Inactive)
REMARK    1  A    between atoms: C_1  and  C_11
REMARK    2  A    between atoms: C_11  and  N_13
REMARK                            x       y       z     vdW  Elec       q    Type
REMARK                         _______ _______ _______ _____ _____    ______ ____
ROOT
ATOM      1  C   UNL     1      36.928 -23.835 -14.491  0.00  0.00    -0.018 C 
ATOM      2  C   UNL     1      38.053 -24.841 -12.455  0.00  0.00    -0.000 C 
ATOM      3  C   UNL     1      36.790 -26.328 -14.050  0.00  0.00    -0.000 C 
ATOM      4  C   UNL     1      38.981 -25.300 -14.753  0.00  0.00    -0.000 C 
ATOM      5  C   UNL     1      37.302 -23.616 -13.006  0.00  0.00    -0.002 C 
ATOM      6  C   UNL     1      36.042 -25.099 -14.596  0.00  0.00    -0.002 C 
ATOM      7  C   UNL     1      38.227 -24.074 -15.298  0.00  0.00    -0.002 C 
ATOM      8  C   UNL     1      37.155 -26.083 -12.577  0.00  0.00    -0.000 C 
ATOM      9  C   UNL     1      39.336 -25.061 -13.276  0.00  0.00    -0.000 C 
ATOM     10  C   UNL     1      38.077 -26.539 -14.864  0.00  0.00    -0.000 C 
ENDROOT
BRANCH   1  11
ATOM     11  C   UNL     1      36.181 -22.615 -15.036  0.00  0.00    -0.066 C 
ATOM     12  C   UNL     1      36.452 -22.434 -16.525  0.00  0.00    -0.024 C 
BRANCH  11  13
ATOM     13  N   UNL     1      34.750 -22.781 -14.794  0.00  0.00    +0.382 N 
ATOM     14  H   UNL     1      34.547 -23.765 -14.617  0.00  0.00    -0.089 HD
ATOM     15  H   UNL     1      34.228 -22.468 -15.613  0.00  0.00    -0.089 HD
ATOM     16  H   UNL     1      34.476 -22.226 -13.984  0.00  0.00    -0.089 HD
ENDBRANCH  11  13
ENDBRANCH   1  11
TORSDOF 2
ENDMDL
MODEL 8
REMARK VINA RESULT:      -5.9     18.817     20.458
REMARK  Name = 5071
REMARK  2 active torsions:
REMARK  status: ('A' for Active; 'I' for Inactive)
REMARK    1  A    between atoms: C_1  and  C_11
REMARK    2  A    between atoms: C_11  and  N_13
REMARK                            x       y       z     vdW  Elec       q    Type
REMARK                         _______ _______ _______ _____ _____    ______ ____
ROOT
ATOM      1  C   UNL     1      36.925 -23.838 -14.493  0.00  0.00    -0.018 C 
ATOM      2  C   UNL     1      36.794 -26.330 -14.056  0.00  0.00    -0.000 C 
ATOM      3  C   UNL     1      38.984 -25.295 -14.752  0.00  0.00    -0.000 C 
ATOM      4  C   UNL     1      38.049 -24.842 -12.455  0.00  0.00    -0.000 C 
ATOM      5  C   UNL     1      36.043 -25.104 -14.602  0.00  0.00    -0.002 C 
ATOM      6  C   UNL     1      38.227 -24.071 -15.298  0.00  0.00    -0.002 C 
ATOM      7  C   UNL     1      37.294 -23.620 -13.007  0.00  0.00    -0.002 C 
ATOM      8  C   UNL     1      38.085 -26.537 -14.866  0.00  0.00    -0.000 C 
ATOM      9  C   UNL     1      37.155 -26.088 -12.580  0.00  0.00    -0.000 C 
ATOM     10  C   UNL     1      39.334 -25.055 -13.274  0.00  0.00    -0.000 C 
ENDROOT
BRANCH   1  11
ATOM     11  C   UNL     1      36.175 -22.619 -15.039  0.00  0.00    -0.066 C 
ATOM     12  C   UNL     1      36.441 -22.441 -16.529  0.00  0.00    -0.024 C 
BRANCH  11  13
ATOM     13  N   UNL     1      34.746 -22.784 -14.791  0.00  0.00    +0.382 N 
ATOM     14  H   UNL     1      34.437 -22.094 -14.106  0.00  0.00    -0.089 HD
ATOM     15  H   UNL     1      34.569 -23.723 -14.430  0.00  0.00    -0.089 HD
ATOM     16  H   UNL     1      34.232 -22.653 -15.662  0.00  0.00    -0.089 HD
ENDBRANCH  11  13
ENDBRANCH   1  11
TORSDOF 2
ENDMDL
MODEL 9
REMARK VINA RESULT:      -5.9     18.805     20.450
REMARK  Name = 5071
REMARK  2 active torsions:
REMARK  status: ('A' for Active; 'I' for Inactive)
REMARK    1  A    between atoms: C_1  and  C_11
REMARK    2  A    between atoms: C_11  and  N_13
REMARK                            x       y       z     vdW  Elec       q    Type
REMARK                         _______ _______ _______ _____ _____    ______ ____
ROOT
ATOM      1  C   UNL     1      36.924 -23.825 -14.498  0.00  0.00    -0.018 C 
ATOM      2  C   UNL     1      38.979 -25.285 -14.759  0.00  0.00    -0.000 C 
ATOM      3  C   UNL     1      38.053 -24.826 -12.460  0.00  0.00    -0.000 C 
ATOM      4  C   UNL     1      36.791 -26.317 -14.052  0.00  0.00    -0.000 C 
ATOM      5  C   UNL     1      38.222 -24.062 -15.305  0.00  0.00    -0.002 C 
ATOM      6  C   UNL     1      37.299 -23.604 -13.013  0.00  0.00    -0.002 C 
ATOM      7  C   UNL     1      36.040 -25.091 -14.601  0.00  0.00    -0.002 C 
ATOM      8  C   UNL     1      39.334 -25.043 -13.282  0.00  0.00    -0.000 C 
ATOM      9  C   UNL     1      38.079 -26.528 -14.866  0.00  0.00    -0.000 C 
ATOM     10  C   UNL     1      37.157 -26.069 -12.579  0.00  0.00    -0.000 C 
ENDROOT
BRANCH   1  11
ATOM     11  C   UNL     1      36.173 -22.607 -15.043  0.00  0.00    -0.066 C 
ATOM     12  C   UNL     1      36.452 -22.419 -16.530  0.00  0.00    -0.024 C 
BRANCH  11  13
ATOM     13  N   UNL     1      34.743 -22.781 -14.809  0.00  0.00    +0.382 N 
ATOM     14  H   UNL     1      34.597 -23.218 -13.899  0.00  0.00    -0.089 HD
ATOM     15  H   UNL     1      34.348 -23.377 -15.538  0.00  0.00    -0.089 HD
ATOM     16  H   UNL     1      34.282 -21.871 -14.828  0.00  0.00    -0.089 HD
ENDBRANCH  11  13
ENDBRANCH   1  11
TORSDOF 2
ENDMDL
