MODEL 1
REMARK VINA RESULT:     -11.6      0.000      0.000
REMARK  Name = 9956726
REMARK  9 active torsions:
REMARK  status: ('A' for Active; 'I' for Inactive)
REMARK    1  A    between atoms: N_2  and  C_21
REMARK    2  A    between atoms: C_3  and  C_7
REMARK    3  A    between atoms: C_8  and  C_11
REMARK    4  A    between atoms: C_14  and  C_20
REMARK    5  A    between atoms: C_21  and  C_22
REMARK    6  A    between atoms: C_23  and  O_28
REMARK    7  A    between atoms: O_28  and  C_29
REMARK    8  A    between atoms: C_29  and  C_33
REMARK    9  A    between atoms: C_33  and  O_34
REMARK                            x       y       z     vdW  Elec       q    Type
REMARK                         _______ _______ _______ _____ _____    ______ ____
ROOT
ATOM      1  O   UNL     1      33.047 -13.981 -25.182  0.00  0.00    -0.274 OA
ATOM      2  N   UNL     1      34.248 -12.574 -23.819  0.00  0.00    -0.299 N 
ATOM      3  C   UNL     1      33.587 -13.772 -24.094  0.00  0.00    +0.239 C 
ATOM      4  H   UNL     1      34.665 -12.454 -22.936  0.00  0.00    +0.150 HD
ENDROOT
BRANCH   3   7
ATOM      5  S   UNL     1      34.433 -16.230 -23.286  0.00  0.00    -0.067 S 
ATOM      6  N   UNL     1      33.249 -15.846 -21.021  0.00  0.00    -0.403 NA
ATOM      7  C   UNL     1      33.605 -14.776 -23.021  0.00  0.00    +0.178 C 
ATOM      8  C   UNL     1      33.970 -16.707 -21.704  0.00  0.00    +0.157 C 
ATOM      9  C   UNL     1      33.040 -14.722 -21.796  0.00  0.00    +0.107 C 
ATOM     10  C   UNL     1      32.247 -13.618 -21.219  0.00  0.00    +0.063 C 
BRANCH   8  11
ATOM     11  C   UNL     1      34.390 -18.001 -21.222  0.00  0.00    +0.036 C 
ATOM     12  C   UNL     1      33.438 -18.961 -20.885  0.00  0.00    +0.003 C 
ATOM     13  C   UNL     1      35.749 -18.288 -21.093  0.00  0.00    +0.003 C 
ATOM     14  C   UNL     1      35.202 -20.500 -20.290  0.00  0.00    +0.071 C 
ATOM     15  C   UNL     1      33.844 -20.212 -20.418  0.00  0.00    +0.004 C 
ATOM     16  C   UNL     1      36.154 -19.539 -20.627  0.00  0.00    +0.004 C 
BRANCH  14  20
ATOM     17  F   UNL     1      36.206 -21.799 -18.549  0.00  0.00    -0.166 F 
ATOM     18  F   UNL     1      34.616 -22.739 -19.686  0.00  0.00    -0.166 F 
ATOM     19  F   UNL     1      36.565 -22.425 -20.600  0.00  0.00    -0.166 F 
ATOM     20  C   UNL     1      35.637 -21.837 -19.790  0.00  0.00    +0.419 C 
ENDBRANCH  14  20
ENDBRANCH   8  11
ENDBRANCH   3   7
BRANCH   2  21
ATOM     21  C   UNL     1      34.342 -11.508 -24.784  0.00  0.00    +0.116 C 
BRANCH  21  22
ATOM     22  C   UNL     1      33.908 -10.196 -24.223  0.00  0.00    -0.002 C 
ATOM     23  C   UNL     1      33.098  -7.748 -23.175  0.00  0.00    +0.139 C 
ATOM     24  C   UNL     1      34.689  -9.058 -24.426  0.00  0.00    +0.000 C 
ATOM     25  C   UNL     1      32.721 -10.107 -23.495  0.00  0.00    +0.000 C 
ATOM     26  C   UNL     1      34.284  -7.831 -23.901  0.00  0.00    +0.037 C 
ATOM     27  C   UNL     1      32.316  -8.880 -22.970  0.00  0.00    +0.037 C 
BRANCH  23  28
ATOM     28  O   UNL     1      32.702  -6.545 -22.661  0.00  0.00    -0.472 OA
BRANCH  28  29
ATOM     29  C   UNL     1      31.641  -5.876 -23.345  0.00  0.00    +0.221 C 
ATOM     30  C   UNL     1      32.259  -4.984 -24.418  0.00  0.00    +0.055 C 
ATOM     31  C   UNL     1      30.716  -6.936 -23.935  0.00  0.00    +0.055 C 
BRANCH  29  33
ATOM     32  O   UNL     1      30.296  -4.024 -22.514  0.00  0.00    -0.246 OA
ATOM     33  C   UNL     1      30.926  -5.050 -22.284  0.00  0.00    +0.350 C 
BRANCH  33  34
ATOM     34  O   UNL     1      31.047  -5.560 -21.032  0.00  0.00    -0.478 OA
ATOM     35  H   UNL     1      30.374  -6.111 -20.684  0.00  0.00    +0.295 HD
ENDBRANCH  33  34
ENDBRANCH  29  33
ENDBRANCH  28  29
ENDBRANCH  23  28
ENDBRANCH  21  22
ENDBRANCH   2  21
TORSDOF 9
ENDMDL
MODEL 2
REMARK VINA RESULT:     -11.4      7.973     14.014
REMARK  Name = 9956726
REMARK  9 active torsions:
REMARK  status: ('A' for Active; 'I' for Inactive)
REMARK    1  A    between atoms: N_2  and  C_21
REMARK    2  A    between atoms: C_3  and  C_7
REMARK    3  A    between atoms: C_8  and  C_11
REMARK    4  A    between atoms: C_14  and  C_20
REMARK    5  A    between atoms: C_21  and  C_22
REMARK    6  A    between atoms: C_23  and  O_28
REMARK    7  A    between atoms: O_28  and  C_29
REMARK    8  A    between atoms: C_29  and  C_33
REMARK    9  A    between atoms: C_33  and  O_34
REMARK                            x       y       z     vdW  Elec       q    Type
REMARK                         _______ _______ _______ _____ _____    ______ ____
ROOT
ATOM      1  O   UNL     1      33.911 -23.524 -19.535  0.00  0.00    -0.274 OA
ATOM      2  N   UNL     1      32.925 -22.158 -17.972  0.00  0.00    -0.299 N 
ATOM      3  C   UNL     1      33.711 -22.387 -19.103  0.00  0.00    +0.239 C 
ATOM      4  H   UNL     1      32.794 -21.232 -17.665  0.00  0.00    +0.150 HD
ENDROOT
BRANCH   3   7
ATOM      5  S   UNL     1      33.178 -20.127 -20.522  0.00  0.00    -0.067 S 
ATOM      6  N   UNL     1      35.708 -19.598 -20.549  0.00  0.00    -0.403 NA
ATOM      7  C   UNL     1      34.254 -21.190 -19.760  0.00  0.00    +0.178 C 
ATOM      8  C   UNL     1      34.533 -19.162 -20.946  0.00  0.00    +0.157 C 
ATOM      9  C   UNL     1      35.537 -20.781 -19.858  0.00  0.00    +0.107 C 
ATOM     10  C   UNL     1      36.738 -21.450 -19.318  0.00  0.00    +0.063 C 
BRANCH   8  11
ATOM     11  C   UNL     1      34.311 -17.951 -21.700  0.00  0.00    +0.036 C 
ATOM     12  C   UNL     1      33.704 -16.854 -21.092  0.00  0.00    +0.003 C 
ATOM     13  C   UNL     1      34.705 -17.882 -23.036  0.00  0.00    +0.003 C 
ATOM     14  C   UNL     1      33.884 -15.612 -23.157  0.00  0.00    +0.071 C 
ATOM     15  C   UNL     1      33.489 -15.683 -21.821  0.00  0.00    +0.004 C 
ATOM     16  C   UNL     1      34.491 -16.711 -23.764  0.00  0.00    +0.004 C 
BRANCH  14  20
ATOM     17  F   UNL     1      33.805 -14.522 -25.285  0.00  0.00    -0.166 F 
ATOM     18  F   UNL     1      32.400 -13.843 -23.778  0.00  0.00    -0.166 F 
ATOM     19  F   UNL     1      34.512 -13.360 -23.588  0.00  0.00    -0.166 F 
ATOM     20  C   UNL     1      33.654 -14.362 -23.936  0.00  0.00    +0.419 C 
ENDBRANCH  14  20
ENDBRANCH   8  11
ENDBRANCH   3   7
BRANCH   2  21
ATOM     21  C   UNL     1      32.300 -23.230 -17.240  0.00  0.00    +0.116 C 
BRANCH  21  22
ATOM     22  C   UNL     1      33.056 -23.590 -16.006  0.00  0.00    -0.002 C 
ATOM     23  C   UNL     1      34.464 -24.264 -13.701  0.00  0.00    +0.139 C 
ATOM     24  C   UNL     1      34.267 -24.275 -16.104  0.00  0.00    +0.000 C 
ATOM     25  C   UNL     1      32.551 -23.243 -14.752  0.00  0.00    +0.000 C 
ATOM     26  C   UNL     1      34.973 -24.613 -14.949  0.00  0.00    +0.037 C 
ATOM     27  C   UNL     1      33.256 -23.582 -13.598  0.00  0.00    +0.037 C 
BRANCH  23  28
ATOM     28  O   UNL     1      35.157 -24.596 -12.571  0.00  0.00    -0.472 OA
BRANCH  28  29
ATOM     29  C   UNL     1      36.508 -24.140 -12.492  0.00  0.00    +0.221 C 
ATOM     30  C   UNL     1      37.425 -25.346 -12.674  0.00  0.00    +0.055 C 
ATOM     31  C   UNL     1      36.715 -23.085 -13.575  0.00  0.00    +0.055 C 
BRANCH  29  33
ATOM     32  O   UNL     1      36.226 -24.049 -10.075  0.00  0.00    -0.246 OA
ATOM     33  C   UNL     1      36.657 -23.537 -11.101  0.00  0.00    +0.350 C 
BRANCH  33  34
ATOM     34  O   UNL     1      37.326 -22.356 -11.095  0.00  0.00    -0.478 OA
ATOM     35  H   UNL     1      38.261 -22.347 -11.156  0.00  0.00    +0.295 HD
ENDBRANCH  33  34
ENDBRANCH  29  33
ENDBRANCH  28  29
ENDBRANCH  23  28
ENDBRANCH  21  22
ENDBRANCH   2  21
TORSDOF 9
ENDMDL
MODEL 3
REMARK VINA RESULT:     -11.1      6.833     13.167
REMARK  Name = 9956726
REMARK  9 active torsions:
REMARK  status: ('A' for Active; 'I' for Inactive)
REMARK    1  A    between atoms: N_2  and  C_21
REMARK    2  A    between atoms: C_3  and  C_7
REMARK    3  A    between atoms: C_8  and  C_11
REMARK    4  A    between atoms: C_14  and  C_20
REMARK    5  A    between atoms: C_21  and  C_22
REMARK    6  A    between atoms: C_23  and  O_28
REMARK    7  A    between atoms: O_28  and  C_29
REMARK    8  A    between atoms: C_29  and  C_33
REMARK    9  A    between atoms: C_33  and  O_34
REMARK                            x       y       z     vdW  Elec       q    Type
REMARK                         _______ _______ _______ _____ _____    ______ ____
ROOT
ATOM      1  O   UNL     1      37.642 -19.052 -21.287  0.00  0.00    -0.274 OA
ATOM      2  N   UNL     1      35.827 -20.252 -20.550  0.00  0.00    -0.299 N 
ATOM      3  C   UNL     1      36.419 -19.155 -21.176  0.00  0.00    +0.239 C 
ATOM      4  H   UNL     1      34.846 -20.290 -20.486  0.00  0.00    +0.150 HD
ENDROOT
BRANCH   3   7
ATOM      5  S   UNL     1      35.102 -16.808 -20.769  0.00  0.00    -0.067 S 
ATOM      6  N   UNL     1      34.064 -17.029 -23.126  0.00  0.00    -0.403 NA
ATOM      7  C   UNL     1      35.494 -18.151 -21.722  0.00  0.00    +0.178 C 
ATOM      8  C   UNL     1      34.105 -16.266 -22.056  0.00  0.00    +0.157 C 
ATOM      9  C   UNL     1      34.877 -18.127 -22.923  0.00  0.00    +0.107 C 
ATOM     10  C   UNL     1      34.979 -19.125 -24.008  0.00  0.00    +0.063 C 
BRANCH   8  11
ATOM     11  C   UNL     1      33.382 -15.027 -21.896  0.00  0.00    +0.036 C 
ATOM     12  C   UNL     1      33.016 -14.593 -20.623  0.00  0.00    +0.003 C 
ATOM     13  C   UNL     1      33.051 -14.266 -23.017  0.00  0.00    +0.003 C 
ATOM     14  C   UNL     1      31.985 -12.633 -21.589  0.00  0.00    +0.071 C 
ATOM     15  C   UNL     1      32.316 -13.396 -20.469  0.00  0.00    +0.004 C 
ATOM     16  C   UNL     1      32.352 -13.068 -22.862  0.00  0.00    +0.004 C 
BRANCH  14  20
ATOM     17  F   UNL     1      31.787 -10.512 -20.499  0.00  0.00    -0.166 F 
ATOM     18  F   UNL     1      31.158 -10.616 -22.572  0.00  0.00    -0.166 F 
ATOM     19  F   UNL     1      29.947 -11.546 -21.023  0.00  0.00    -0.166 F 
ATOM     20  C   UNL     1      31.237 -11.354 -21.425  0.00  0.00    +0.419 C 
ENDBRANCH  14  20
ENDBRANCH   8  11
ENDBRANCH   3   7
BRANCH   2  21
ATOM     21  C   UNL     1      36.603 -21.331 -19.994  0.00  0.00    +0.116 C 
BRANCH  21  22
ATOM     22  C   UNL     1      36.076 -21.790 -18.676  0.00  0.00    -0.002 C 
ATOM     23  C   UNL     1      35.092 -22.642 -16.216  0.00  0.00    +0.139 C 
ATOM     24  C   UNL     1      34.800 -22.347 -18.591  0.00  0.00    +0.000 C 
ATOM     25  C   UNL     1      36.859 -21.659 -17.528  0.00  0.00    +0.000 C 
ATOM     26  C   UNL     1      34.307 -22.775 -17.358  0.00  0.00    +0.037 C 
ATOM     27  C   UNL     1      36.365 -22.086 -16.296  0.00  0.00    +0.037 C 
BRANCH  23  28
ATOM     28  O   UNL     1      34.608 -23.062 -15.009  0.00  0.00    -0.472 OA
BRANCH  28  29
ATOM     29  C   UNL     1      35.402 -24.012 -14.297  0.00  0.00    +0.221 C 
ATOM     30  C   UNL     1      35.660 -25.199 -15.221  0.00  0.00    +0.055 C 
ATOM     31  C   UNL     1      36.692 -23.322 -13.865  0.00  0.00    +0.055 C 
BRANCH  29  33
ATOM     32  O   UNL     1      33.369 -24.192 -12.967  0.00  0.00    -0.246 OA
ATOM     33  C   UNL     1      34.567 -24.422 -13.091  0.00  0.00    +0.350 C 
BRANCH  33  34
ATOM     34  O   UNL     1      35.279 -25.082 -12.142  0.00  0.00    -0.478 OA
ATOM     35  H   UNL     1      36.056 -25.548 -12.379  0.00  0.00    +0.295 HD
ENDBRANCH  33  34
ENDBRANCH  29  33
ENDBRANCH  28  29
ENDBRANCH  23  28
ENDBRANCH  21  22
ENDBRANCH   2  21
TORSDOF 9
ENDMDL
MODEL 4
REMARK VINA RESULT:     -10.9      6.806     12.789
REMARK  Name = 9956726
REMARK  9 active torsions:
REMARK  status: ('A' for Active; 'I' for Inactive)
REMARK    1  A    between atoms: N_2  and  C_21
REMARK    2  A    between atoms: C_3  and  C_7
REMARK    3  A    between atoms: C_8  and  C_11
REMARK    4  A    between atoms: C_14  and  C_20
REMARK    5  A    between atoms: C_21  and  C_22
REMARK    6  A    between atoms: C_23  and  O_28
REMARK    7  A    between atoms: O_28  and  C_29
REMARK    8  A    between atoms: C_29  and  C_33
REMARK    9  A    between atoms: C_33  and  O_34
REMARK                            x       y       z     vdW  Elec       q    Type
REMARK                         _______ _______ _______ _____ _____    ______ ____
ROOT
ATOM      1  O   UNL     1      37.459 -19.153 -21.220  0.00  0.00    -0.274 OA
ATOM      2  N   UNL     1      35.601 -20.071 -20.226  0.00  0.00    -0.299 N 
ATOM      3  C   UNL     1      36.243 -19.117 -21.017  0.00  0.00    +0.239 C 
ATOM      4  H   UNL     1      34.629 -20.000 -20.094  0.00  0.00    +0.150 HD
ENDROOT
BRANCH   3   7
ATOM      5  S   UNL     1      34.921 -16.763 -20.671  0.00  0.00    -0.067 S 
ATOM      6  N   UNL     1      34.081 -16.924 -23.110  0.00  0.00    -0.403 NA
ATOM      7  C   UNL     1      35.377 -18.092 -21.617  0.00  0.00    +0.178 C 
ATOM      8  C   UNL     1      34.041 -16.183 -22.025  0.00  0.00    +0.157 C 
ATOM      9  C   UNL     1      34.863 -18.036 -22.864  0.00  0.00    +0.107 C 
ATOM     10  C   UNL     1      35.045 -19.013 -23.957  0.00  0.00    +0.063 C 
BRANCH   8  11
ATOM     11  C   UNL     1      33.319 -14.939 -21.900  0.00  0.00    +0.036 C 
ATOM     12  C   UNL     1      32.915 -14.492 -20.643  0.00  0.00    +0.003 C 
ATOM     13  C   UNL     1      33.029 -14.186 -23.037  0.00  0.00    +0.003 C 
ATOM     14  C   UNL     1      31.927 -12.536 -21.659  0.00  0.00    +0.071 C 
ATOM     15  C   UNL     1      32.217 -13.290 -20.523  0.00  0.00    +0.004 C 
ATOM     16  C   UNL     1      32.332 -12.984 -22.916  0.00  0.00    +0.004 C 
BRANCH  14  20
ATOM     17  F   UNL     1      29.994 -11.371 -20.865  0.00  0.00    -0.166 F 
ATOM     18  F   UNL     1      31.870 -10.284 -20.855  0.00  0.00    -0.166 F 
ATOM     19  F   UNL     1      30.867 -10.701 -22.740  0.00  0.00    -0.166 F 
ATOM     20  C   UNL     1      31.180 -11.251 -21.531  0.00  0.00    +0.419 C 
ENDBRANCH  14  20
ENDBRANCH   8  11
ENDBRANCH   3   7
BRANCH   2  21
ATOM     21  C   UNL     1      36.313 -21.154 -19.598  0.00  0.00    +0.116 C 
BRANCH  21  22
ATOM     22  C   UNL     1      35.459 -21.915 -18.641  0.00  0.00    -0.002 C 
ATOM     23  C   UNL     1      33.865 -23.338 -16.856  0.00  0.00    +0.139 C 
ATOM     24  C   UNL     1      35.907 -22.150 -17.341  0.00  0.00    +0.000 C 
ATOM     25  C   UNL     1      34.212 -22.393 -19.047  0.00  0.00    +0.000 C 
ATOM     26  C   UNL     1      35.108 -22.863 -16.446  0.00  0.00    +0.037 C 
ATOM     27  C   UNL     1      33.415 -23.107 -18.152  0.00  0.00    +0.037 C 
BRANCH  23  28
ATOM     28  O   UNL     1      33.084 -24.036 -15.979  0.00  0.00    -0.472 OA
BRANCH  28  29
ATOM     29  C   UNL     1      31.842 -23.433 -15.609  0.00  0.00    +0.221 C 
ATOM     30  C   UNL     1      32.094 -22.537 -14.400  0.00  0.00    +0.055 C 
ATOM     31  C   UNL     1      31.320 -22.652 -16.811  0.00  0.00    +0.055 C 
BRANCH  29  33
ATOM     32  O   UNL     1      31.153 -25.433 -14.402  0.00  0.00    -0.246 OA
ATOM     33  C   UNL     1      30.914 -24.589 -15.258  0.00  0.00    +0.350 C 
BRANCH  33  34
ATOM     34  O   UNL     1      29.772 -24.604 -15.992  0.00  0.00    -0.478 OA
ATOM     35  H   UNL     1      29.717 -24.104 -16.782  0.00  0.00    +0.295 HD
ENDBRANCH  33  34
ENDBRANCH  29  33
ENDBRANCH  28  29
ENDBRANCH  23  28
ENDBRANCH  21  22
ENDBRANCH   2  21
TORSDOF 9
ENDMDL
MODEL 5
REMARK VINA RESULT:     -10.7      7.449     14.049
REMARK  Name = 9956726
REMARK  9 active torsions:
REMARK  status: ('A' for Active; 'I' for Inactive)
REMARK    1  A    between atoms: N_2  and  C_21
REMARK    2  A    between atoms: C_3  and  C_7
REMARK    3  A    between atoms: C_8  and  C_11
REMARK    4  A    between atoms: C_14  and  C_20
REMARK    5  A    between atoms: C_21  and  C_22
REMARK    6  A    between atoms: C_23  and  O_28
REMARK    7  A    between atoms: O_28  and  C_29
REMARK    8  A    between atoms: C_29  and  C_33
REMARK    9  A    between atoms: C_33  and  O_34
REMARK                            x       y       z     vdW  Elec       q    Type
REMARK                         _______ _______ _______ _____ _____    ______ ____
ROOT
ATOM      1  O   UNL     1      32.688 -21.680 -20.236  0.00  0.00    -0.274 OA
ATOM      2  N   UNL     1      34.526 -21.722 -18.857  0.00  0.00    -0.299 N 
ATOM      3  C   UNL     1      33.757 -21.175 -19.885  0.00  0.00    +0.239 C 
ATOM      4  H   UNL     1      35.372 -21.283 -18.612  0.00  0.00    +0.150 HD
ENDROOT
BRANCH   3   7
ATOM      5  S   UNL     1      33.182 -18.786 -21.055  0.00  0.00    -0.067 S 
ATOM      6  N   UNL     1      35.717 -18.342 -21.295  0.00  0.00    -0.403 NA
ATOM      7  C   UNL     1      34.282 -19.945 -20.495  0.00  0.00    +0.178 C 
ATOM      8  C   UNL     1      34.528 -17.835 -21.535  0.00  0.00    +0.157 C 
ATOM      9  C   UNL     1      35.565 -19.573 -20.688  0.00  0.00    +0.107 C 
ATOM     10  C   UNL     1      36.785 -20.325 -20.329  0.00  0.00    +0.063 C 
BRANCH   8  11
ATOM     11  C   UNL     1      34.284 -16.557 -22.162  0.00  0.00    +0.036 C 
ATOM     12  C   UNL     1      33.933 -15.456 -21.383  0.00  0.00    +0.003 C 
ATOM     13  C   UNL     1      34.400 -16.429 -23.545  0.00  0.00    +0.003 C 
ATOM     14  C   UNL     1      33.814 -14.091 -23.373  0.00  0.00    +0.071 C 
ATOM     15  C   UNL     1      33.697 -14.221 -21.990  0.00  0.00    +0.004 C 
ATOM     16  C   UNL     1      34.164 -15.194 -24.151  0.00  0.00    +0.004 C 
BRANCH  14  20
ATOM     17  F   UNL     1      33.189 -12.869 -25.333  0.00  0.00    -0.166 F 
ATOM     18  F   UNL     1      32.566 -12.051 -23.423  0.00  0.00    -0.166 F 
ATOM     19  F   UNL     1      34.658 -11.961 -24.011  0.00  0.00    -0.166 F 
ATOM     20  C   UNL     1      33.560 -12.772 -24.022  0.00  0.00    +0.419 C 
ENDBRANCH  14  20
ENDBRANCH   8  11
ENDBRANCH   3   7
BRANCH   2  21
ATOM     21  C   UNL     1      34.125 -22.908 -18.144  0.00  0.00    +0.116 C 
BRANCH  21  22
ATOM     22  C   UNL     1      34.784 -23.018 -16.810  0.00  0.00    -0.002 C 
ATOM     23  C   UNL     1      36.013 -23.221 -14.321  0.00  0.00    +0.139 C 
ATOM     24  C   UNL     1      34.138 -23.679 -15.765  0.00  0.00    +0.000 C 
ATOM     25  C   UNL     1      36.046 -22.458 -16.607  0.00  0.00    +0.000 C 
ATOM     26  C   UNL     1      34.753 -23.781 -14.518  0.00  0.00    +0.037 C 
ATOM     27  C   UNL     1      36.660 -22.560 -15.360  0.00  0.00    +0.037 C 
BRANCH  23  28
ATOM     28  O   UNL     1      36.615 -23.322 -13.098  0.00  0.00    -0.472 OA
BRANCH  28  29
ATOM     29  C   UNL     1      37.517 -24.415 -12.918  0.00  0.00    +0.221 C 
ATOM     30  C   UNL     1      38.043 -24.824 -14.291  0.00  0.00    +0.055 C 
ATOM     31  C   UNL     1      38.632 -23.957 -11.983  0.00  0.00    +0.055 C 
BRANCH  29  33
ATOM     32  O   UNL     1      36.036 -25.407 -11.260  0.00  0.00    -0.246 OA
ATOM     33  C   UNL     1      36.692 -25.529 -12.288  0.00  0.00    +0.350 C 
BRANCH  33  34
ATOM     34  O   UNL     1      36.744 -26.695 -12.979  0.00  0.00    -0.478 OA
ATOM     35  H   UNL     1      37.517 -27.224 -12.949  0.00  0.00    +0.295 HD
ENDBRANCH  33  34
ENDBRANCH  29  33
ENDBRANCH  28  29
ENDBRANCH  23  28
ENDBRANCH  21  22
ENDBRANCH   2  21
TORSDOF 9
ENDMDL
MODEL 6
REMARK VINA RESULT:     -10.5      7.155     13.682
REMARK  Name = 9956726
REMARK  9 active torsions:
REMARK  status: ('A' for Active; 'I' for Inactive)
REMARK    1  A    between atoms: N_2  and  C_21
REMARK    2  A    between atoms: C_3  and  C_7
REMARK    3  A    between atoms: C_8  and  C_11
REMARK    4  A    between atoms: C_14  and  C_20
REMARK    5  A    between atoms: C_21  and  C_22
REMARK    6  A    between atoms: C_23  and  O_28
REMARK    7  A    between atoms: O_28  and  C_29
REMARK    8  A    between atoms: C_29  and  C_33
REMARK    9  A    between atoms: C_33  and  O_34
REMARK                            x       y       z     vdW  Elec       q    Type
REMARK                         _______ _______ _______ _____ _____    ______ ____
ROOT
ATOM      1  O   UNL     1      32.522 -20.738 -20.845  0.00  0.00    -0.274 OA
ATOM      2  N   UNL     1      34.543 -20.804 -19.754  0.00  0.00    -0.299 N 
ATOM      3  C   UNL     1      33.562 -20.165 -20.513  0.00  0.00    +0.239 C 
ATOM      4  H   UNL     1      35.356 -20.306 -19.514  0.00  0.00    +0.150 HD
ENDROOT
BRANCH   3   7
ATOM      5  S   UNL     1      32.537 -17.671 -20.881  0.00  0.00    -0.067 S 
ATOM      6  N   UNL     1      34.911 -16.826 -21.459  0.00  0.00    -0.403 NA
ATOM      7  C   UNL     1      33.831 -18.763 -20.861  0.00  0.00    +0.178 C 
ATOM      8  C   UNL     1      33.657 -16.451 -21.331  0.00  0.00    +0.157 C 
ATOM      9  C   UNL     1      35.004 -18.177 -21.183  0.00  0.00    +0.107 C 
ATOM     10  C   UNL     1      36.335 -18.812 -21.268  0.00  0.00    +0.063 C 
BRANCH   8  11
ATOM     11  C   UNL     1      33.170 -15.108 -21.540  0.00  0.00    +0.036 C 
ATOM     12  C   UNL     1      32.737 -14.348 -20.455  0.00  0.00    +0.003 C 
ATOM     13  C   UNL     1      33.134 -14.575 -22.827  0.00  0.00    +0.003 C 
ATOM     14  C   UNL     1      32.231 -12.515 -21.944  0.00  0.00    +0.071 C 
ATOM     15  C   UNL     1      32.266 -13.050 -20.657  0.00  0.00    +0.004 C 
ATOM     16  C   UNL     1      32.664 -13.276 -23.029  0.00  0.00    +0.004 C 
BRANCH  14  20
ATOM     17  F   UNL     1      30.376 -11.059 -22.352  0.00  0.00    -0.166 F 
ATOM     18  F   UNL     1      31.981 -10.285 -21.116  0.00  0.00    -0.166 F 
ATOM     19  F   UNL     1      32.282 -10.532 -23.256  0.00  0.00    -0.166 F 
ATOM     20  C   UNL     1      31.727 -11.128 -22.161  0.00  0.00    +0.419 C 
ENDBRANCH  14  20
ENDBRANCH   8  11
ENDBRANCH   3   7
BRANCH   2  21
ATOM     21  C   UNL     1      34.406 -22.168 -19.311  0.00  0.00    +0.116 C 
BRANCH  21  22
ATOM     22  C   UNL     1      35.065 -22.406 -17.994  0.00  0.00    -0.002 C 
ATOM     23  C   UNL     1      36.295 -22.848 -15.537  0.00  0.00    +0.139 C 
ATOM     24  C   UNL     1      34.367 -23.046 -16.970  0.00  0.00    +0.000 C 
ATOM     25  C   UNL     1      36.380 -21.988 -17.786  0.00  0.00    +0.000 C 
ATOM     26  C   UNL     1      34.983 -23.267 -15.739  0.00  0.00    +0.037 C 
ATOM     27  C   UNL     1      36.995 -22.208 -16.555  0.00  0.00    +0.037 C 
BRANCH  23  28
ATOM     28  O   UNL     1      36.898 -23.066 -14.329  0.00  0.00    -0.472 OA
BRANCH  28  29
ATOM     29  C   UNL     1      37.421 -24.375 -14.103  0.00  0.00    +0.221 C 
ATOM     30  C   UNL     1      36.360 -25.387 -14.524  0.00  0.00    +0.055 C 
ATOM     31  C   UNL     1      38.709 -24.515 -14.910  0.00  0.00    +0.055 C 
BRANCH  29  33
ATOM     32  O   UNL     1      37.195 -25.277 -11.852  0.00  0.00    -0.246 OA
ATOM     33  C   UNL     1      37.698 -24.453 -12.607  0.00  0.00    +0.350 C 
BRANCH  33  34
ATOM     34  O   UNL     1      38.572 -23.511 -12.172  0.00  0.00    -0.478 OA
ATOM     35  H   UNL     1      38.644 -23.326 -11.256  0.00  0.00    +0.295 HD
ENDBRANCH  33  34
ENDBRANCH  29  33
ENDBRANCH  28  29
ENDBRANCH  23  28
ENDBRANCH  21  22
ENDBRANCH   2  21
TORSDOF 9
ENDMDL
MODEL 7
REMARK VINA RESULT:     -10.4      6.839     12.144
REMARK  Name = 9956726
REMARK  9 active torsions:
REMARK  status: ('A' for Active; 'I' for Inactive)
REMARK    1  A    between atoms: N_2  and  C_21
REMARK    2  A    between atoms: C_3  and  C_7
REMARK    3  A    between atoms: C_8  and  C_11
REMARK    4  A    between atoms: C_14  and  C_20
REMARK    5  A    between atoms: C_21  and  C_22
REMARK    6  A    between atoms: C_23  and  O_28
REMARK    7  A    between atoms: O_28  and  C_29
REMARK    8  A    between atoms: C_29  and  C_33
REMARK    9  A    between atoms: C_33  and  O_34
REMARK                            x       y       z     vdW  Elec       q    Type
REMARK                         _______ _______ _______ _____ _____    ______ ____
ROOT
ATOM      1  O   UNL     1      30.854 -10.513 -20.054  0.00  0.00    -0.274 OA
ATOM      2  N   UNL     1      32.033 -11.612 -21.691  0.00  0.00    -0.299 N 
ATOM      3  C   UNL     1      31.577 -10.459 -21.050  0.00  0.00    +0.239 C 
ATOM      4  H   UNL     1      32.609 -11.519 -22.483  0.00  0.00    +0.150 HD
ENDROOT
BRANCH   3   7
ATOM      5  S   UNL     1      32.245  -9.071 -23.294  0.00  0.00    -0.067 S 
ATOM      6  N   UNL     1      32.750  -7.010 -21.819  0.00  0.00    -0.403 NA
ATOM      7  C   UNL     1      32.040  -9.185 -21.617  0.00  0.00    +0.178 C 
ATOM      8  C   UNL     1      32.737  -7.444 -23.059  0.00  0.00    +0.157 C 
ATOM      9  C   UNL     1      32.342  -8.031 -20.983  0.00  0.00    +0.107 C 
ATOM     10  C   UNL     1      32.282  -7.759 -19.532  0.00  0.00    +0.063 C 
BRANCH   8  11
ATOM     11  C   UNL     1      33.103  -6.659 -24.214  0.00  0.00    +0.036 C 
ATOM     12  C   UNL     1      32.176  -5.790 -24.788  0.00  0.00    +0.003 C 
ATOM     13  C   UNL     1      34.384  -6.771 -24.753  0.00  0.00    +0.003 C 
ATOM     14  C   UNL     1      33.811  -5.142 -26.444  0.00  0.00    +0.071 C 
ATOM     15  C   UNL     1      32.530  -5.032 -25.905  0.00  0.00    +0.004 C 
ATOM     16  C   UNL     1      34.738  -6.012 -25.869  0.00  0.00    +0.004 C 
BRANCH  14  20
ATOM     17  F   UNL     1      34.324  -2.999 -27.375  0.00  0.00    -0.166 F 
ATOM     18  F   UNL     1      35.380  -4.705 -28.196  0.00  0.00    -0.166 F 
ATOM     19  F   UNL     1      33.271  -4.416 -28.644  0.00  0.00    -0.166 F 
ATOM     20  C   UNL     1      34.190  -4.332 -27.638  0.00  0.00    +0.419 C 
ENDBRANCH  14  20
ENDBRANCH   8  11
ENDBRANCH   3   7
BRANCH   2  21
ATOM     21  C   UNL     1      31.690 -12.934 -21.231  0.00  0.00    +0.116 C 
BRANCH  21  22
ATOM     22  C   UNL     1      32.724 -13.947 -21.591  0.00  0.00    -0.002 C 
ATOM     23  C   UNL     1      34.655 -15.835 -22.264  0.00  0.00    +0.139 C 
ATOM     24  C   UNL     1      33.528 -14.507 -20.598  0.00  0.00    +0.000 C 
ATOM     25  C   UNL     1      32.888 -14.333 -22.922  0.00  0.00    +0.000 C 
ATOM     26  C   UNL     1      34.495 -15.453 -20.935  0.00  0.00    +0.037 C 
ATOM     27  C   UNL     1      33.856 -15.279 -23.258  0.00  0.00    +0.037 C 
BRANCH  23  28
ATOM     28  O   UNL     1      35.603 -16.763 -22.593  0.00  0.00    -0.472 OA
BRANCH  28  29
ATOM     29  C   UNL     1      35.283 -18.128 -22.323  0.00  0.00    +0.221 C 
ATOM     30  C   UNL     1      34.033 -18.156 -21.448  0.00  0.00    +0.055 C 
ATOM     31  C   UNL     1      35.072 -18.837 -23.658  0.00  0.00    +0.055 C 
BRANCH  29  33
ATOM     32  O   UNL     1      36.441 -19.205 -20.471  0.00  0.00    -0.246 OA
ATOM     33  C   UNL     1      36.488 -18.694 -21.584  0.00  0.00    +0.350 C 
BRANCH  33  34
ATOM     34  O   UNL     1      37.648 -18.583 -22.281  0.00  0.00    -0.478 OA
ATOM     35  H   UNL     1      38.467 -18.745 -21.856  0.00  0.00    +0.295 HD
ENDBRANCH  33  34
ENDBRANCH  29  33
ENDBRANCH  28  29
ENDBRANCH  23  28
ENDBRANCH  21  22
ENDBRANCH   2  21
TORSDOF 9
ENDMDL
MODEL 8
REMARK VINA RESULT:     -10.4      6.253     11.936
REMARK  Name = 9956726
REMARK  9 active torsions:
REMARK  status: ('A' for Active; 'I' for Inactive)
REMARK    1  A    between atoms: N_2  and  C_21
REMARK    2  A    between atoms: C_3  and  C_7
REMARK    3  A    between atoms: C_8  and  C_11
REMARK    4  A    between atoms: C_14  and  C_20
REMARK    5  A    between atoms: C_21  and  C_22
REMARK    6  A    between atoms: C_23  and  O_28
REMARK    7  A    between atoms: O_28  and  C_29
REMARK    8  A    between atoms: C_29  and  C_33
REMARK    9  A    between atoms: C_33  and  O_34
REMARK                            x       y       z     vdW  Elec       q    Type
REMARK                         _______ _______ _______ _____ _____    ______ ____
ROOT
ATOM      1  O   UNL     1      34.542 -17.534 -25.441  0.00  0.00    -0.274 OA
ATOM      2  N   UNL     1      35.286 -17.025 -23.327  0.00  0.00    -0.299 N 
ATOM      3  C   UNL     1      34.616 -16.725 -24.513  0.00  0.00    +0.239 C 
ATOM      4  H   UNL     1      35.317 -16.347 -22.615  0.00  0.00    +0.150 HD
ENDROOT
BRANCH   3   7
ATOM      5  S   UNL     1      34.270 -14.305 -23.316  0.00  0.00    -0.067 S 
ATOM      6  N   UNL     1      32.730 -13.605 -25.271  0.00  0.00    -0.403 NA
ATOM      7  C   UNL     1      33.979 -15.401 -24.573  0.00  0.00    +0.178 C 
ATOM      8  C   UNL     1      33.253 -13.193 -24.138  0.00  0.00    +0.157 C 
ATOM      9  C   UNL     1      33.159 -14.894 -25.519  0.00  0.00    +0.107 C 
ATOM     10  C   UNL     1      32.687 -15.558 -26.751  0.00  0.00    +0.063 C 
BRANCH   8  11
ATOM     11  C   UNL     1      33.033 -11.893 -23.549  0.00  0.00    +0.036 C 
ATOM     12  C   UNL     1      32.114 -11.744 -22.512  0.00  0.00    +0.003 C 
ATOM     13  C   UNL     1      33.740 -10.787 -24.021  0.00  0.00    +0.003 C 
ATOM     14  C   UNL     1      32.608  -9.382 -22.415  0.00  0.00    +0.071 C 
ATOM     15  C   UNL     1      31.901 -10.488 -21.944  0.00  0.00    +0.004 C 
ATOM     16  C   UNL     1      33.527  -9.531 -23.453  0.00  0.00    +0.004 C 
BRANCH  14  20
ATOM     17  F   UNL     1      32.428  -8.038 -20.443  0.00  0.00    -0.166 F 
ATOM     18  F   UNL     1      33.297  -7.102 -22.196  0.00  0.00    -0.166 F 
ATOM     19  F   UNL     1      31.162  -7.515 -22.132  0.00  0.00    -0.166 F 
ATOM     20  C   UNL     1      32.380  -8.038 -21.808  0.00  0.00    +0.419 C 
ENDBRANCH  14  20
ENDBRANCH   8  11
ENDBRANCH   3   7
BRANCH   2  21
ATOM     21  C   UNL     1      35.932 -18.294 -23.109  0.00  0.00    +0.116 C 
BRANCH  21  22
ATOM     22  C   UNL     1      35.269 -19.093 -22.037  0.00  0.00    -0.002 C 
ATOM     23  C   UNL     1      34.031 -20.584 -20.040  0.00  0.00    +0.139 C 
ATOM     24  C   UNL     1      36.038 -19.720 -21.057  0.00  0.00    +0.000 C 
ATOM     25  C   UNL     1      33.879 -19.213 -22.016  0.00  0.00    +0.000 C 
ATOM     26  C   UNL     1      35.418 -20.467 -20.056  0.00  0.00    +0.037 C 
ATOM     27  C   UNL     1      33.259 -19.961 -21.015  0.00  0.00    +0.037 C 
BRANCH  23  28
ATOM     28  O   UNL     1      33.424 -21.316 -19.058  0.00  0.00    -0.472 OA
BRANCH  28  29
ATOM     29  C   UNL     1      34.099 -22.502 -18.636  0.00  0.00    +0.221 C 
ATOM     30  C   UNL     1      34.177 -23.451 -19.828  0.00  0.00    +0.055 C 
ATOM     31  C   UNL     1      35.478 -22.104 -18.120  0.00  0.00    +0.055 C 
BRANCH  29  33
ATOM     32  O   UNL     1      32.049 -22.851 -17.368  0.00  0.00    -0.246 OA
ATOM     33  C   UNL     1      33.242 -23.086 -17.520  0.00  0.00    +0.350 C 
BRANCH  33  34
ATOM     34  O   UNL     1      33.928 -23.911 -16.689  0.00  0.00    -0.478 OA
ATOM     35  H   UNL     1      34.406 -23.556 -15.966  0.00  0.00    +0.295 HD
ENDBRANCH  33  34
ENDBRANCH  29  33
ENDBRANCH  28  29
ENDBRANCH  23  28
ENDBRANCH  21  22
ENDBRANCH   2  21
TORSDOF 9
ENDMDL
MODEL 9
REMARK VINA RESULT:     -10.2      6.998     12.456
REMARK  Name = 9956726
REMARK  9 active torsions:
REMARK  status: ('A' for Active; 'I' for Inactive)
REMARK    1  A    between atoms: N_2  and  C_21
REMARK    2  A    between atoms: C_3  and  C_7
REMARK    3  A    between atoms: C_8  and  C_11
REMARK    4  A    between atoms: C_14  and  C_20
REMARK    5  A    between atoms: C_21  and  C_22
REMARK    6  A    between atoms: C_23  and  O_28
REMARK    7  A    between atoms: O_28  and  C_29
REMARK    8  A    between atoms: C_29  and  C_33
REMARK    9  A    between atoms: C_33  and  O_34
REMARK                            x       y       z     vdW  Elec       q    Type
REMARK                         _______ _______ _______ _____ _____    ______ ____
ROOT
ATOM      1  O   UNL     1      34.584 -11.562 -24.897  0.00  0.00    -0.274 OA
ATOM      2  N   UNL     1      32.952 -12.936 -24.042  0.00  0.00    -0.299 N 
ATOM      3  C   UNL     1      33.559 -11.693 -24.223  0.00  0.00    +0.239 C 
ATOM      4  H   UNL     1      32.135 -12.990 -23.497  0.00  0.00    +0.150 HD
ENDROOT
BRANCH   3   7
ATOM      5  S   UNL     1      33.073  -9.015 -24.281  0.00  0.00    -0.067 S 
ATOM      6  N   UNL     1      31.614  -9.277 -22.163  0.00  0.00    -0.403 NA
ATOM      7  C   UNL     1      32.884 -10.550 -23.591  0.00  0.00    +0.178 C 
ATOM      8  C   UNL     1      32.064  -8.403 -23.035  0.00  0.00    +0.157 C 
ATOM      9  C   UNL     1      32.096 -10.528 -22.494  0.00  0.00    +0.107 C 
ATOM     10  C   UNL     1      31.711 -11.670 -21.640  0.00  0.00    +0.063 C 
BRANCH   8  11
ATOM     11  C   UNL     1      31.771  -6.989 -23.015  0.00  0.00    +0.036 C 
ATOM     12  C   UNL     1      32.115  -6.191 -24.104  0.00  0.00    +0.003 C 
ATOM     13  C   UNL     1      31.146  -6.425 -21.904  0.00  0.00    +0.003 C 
ATOM     14  C   UNL     1      31.206  -4.259 -22.974  0.00  0.00    +0.071 C 
ATOM     15  C   UNL     1      31.833  -4.824 -24.084  0.00  0.00    +0.004 C 
ATOM     16  C   UNL     1      30.863  -5.058 -21.884  0.00  0.00    +0.004 C 
BRANCH  14  20
ATOM     17  F   UNL     1      31.999  -2.017 -22.711  0.00  0.00    -0.166 F 
ATOM     18  F   UNL     1      30.385  -2.330 -24.125  0.00  0.00    -0.166 F 
ATOM     19  F   UNL     1      29.997  -2.463 -21.989  0.00  0.00    -0.166 F 
ATOM     20  C   UNL     1      30.905  -2.798 -22.951  0.00  0.00    +0.419 C 
ENDBRANCH  14  20
ENDBRANCH   8  11
ENDBRANCH   3   7
BRANCH   2  21
ATOM     21  C   UNL     1      33.480 -14.142 -24.627  0.00  0.00    +0.116 C 
BRANCH  21  22
ATOM     22  C   UNL     1      33.852 -15.156 -23.598  0.00  0.00    -0.002 C 
ATOM     23  C   UNL     1      34.549 -17.046 -21.678  0.00  0.00    +0.139 C 
ATOM     24  C   UNL     1      33.150 -15.219 -22.394  0.00  0.00    +0.000 C 
ATOM     25  C   UNL     1      34.904 -16.041 -23.840  0.00  0.00    +0.000 C 
ATOM     26  C   UNL     1      33.499 -16.166 -21.432  0.00  0.00    +0.037 C 
ATOM     27  C   UNL     1      35.253 -16.987 -22.877  0.00  0.00    +0.037 C 
BRANCH  23  28
ATOM     28  O   UNL     1      34.890 -17.975 -20.734  0.00  0.00    -0.472 OA
BRANCH  28  29
ATOM     29  C   UNL     1      34.582 -19.336 -21.036  0.00  0.00    +0.221 C 
ATOM     30  C   UNL     1      33.161 -19.617 -20.555  0.00  0.00    +0.055 C 
ATOM     31  C   UNL     1      34.734 -19.533 -22.541  0.00  0.00    +0.055 C 
BRANCH  29  33
ATOM     32  O   UNL     1      36.730 -19.788 -19.981  0.00  0.00    -0.246 OA
ATOM     33  C   UNL     1      35.600 -20.167 -20.267  0.00  0.00    +0.350 C 
BRANCH  33  34
ATOM     34  O   UNL     1      35.138 -21.393 -19.913  0.00  0.00    -0.478 OA
ATOM     35  H   UNL     1      34.744 -21.949 -20.557  0.00  0.00    +0.295 HD
ENDBRANCH  33  34
ENDBRANCH  29  33
ENDBRANCH  28  29
ENDBRANCH  23  28
ENDBRANCH  21  22
ENDBRANCH   2  21
TORSDOF 9
ENDMDL
