MODEL 1
REMARK VINA RESULT:      -7.7      0.000      0.000
REMARK  Name = 60825
REMARK  3 active torsions:
REMARK  status: ('A' for Active; 'I' for Inactive)
REMARK    1  A    between atoms: N_2  and  C_13
REMARK    2  A    between atoms: C_15  and  C_16
REMARK    3  A    between atoms: C_16  and  O_17
REMARK                            x       y       z     vdW  Elec       q    Type
REMARK                         _______ _______ _______ _____ _____    ______ ____
ROOT
ATOM      1  O   UNL     1      36.787 -20.438 -20.206  0.00  0.00    -0.193 OA
ATOM      2  N   UNL     1      34.719 -19.677 -20.885  0.00  0.00    -0.179 N 
ATOM      3  N   UNL     1      34.970 -21.522 -19.381  0.00  0.00    -0.306 NA
ATOM      4  N   UNL     1      33.105 -22.627 -18.540  0.00  0.00    -0.332 N 
ATOM      5  C   UNL     1      33.351 -19.807 -20.823  0.00  0.00    +0.083 C 
ATOM      6  C   UNL     1      35.559 -20.540 -20.160  0.00  0.00    +0.275 C 
ATOM      7  C   UNL     1      32.765 -20.745 -20.081  0.00  0.00    +0.065 C 
ATOM      8  C   UNL     1      33.670 -21.646 -19.320  0.00  0.00    +0.193 C 
ATOM      9  H   UNL     1      33.680 -23.239 -18.025  0.00  0.00    +0.145 HD
ATOM     10  H   UNL     1      32.126 -22.719 -18.497  0.00  0.00    +0.145 HD
ENDROOT
BRANCH   2  13
ATOM     11  S   UNL     1      35.020 -16.330 -22.893  0.00  0.00    -0.105 S 
ATOM     12  O   UNL     1      35.027 -18.975 -23.086  0.00  0.00    -0.325 OA
ATOM     13  C   UNL     1      35.257 -18.636 -21.714  0.00  0.00    +0.218 C 
ATOM     14  C   UNL     1      34.583 -17.300 -21.441  0.00  0.00    +0.112 C 
ATOM     15  C   UNL     1      35.326 -17.819 -23.881  0.00  0.00    +0.194 C 
BRANCH  15  16
ATOM     16  C   UNL     1      34.456 -17.843 -25.125  0.00  0.00    +0.178 C 
BRANCH  16  17
ATOM     17  O   UNL     1      34.718 -16.680 -25.892  0.00  0.00    -0.379 OA
ATOM     18  H   UNL     1      35.261 -16.915 -26.661  0.00  0.00    +0.211 HD
ENDBRANCH  16  17
ENDBRANCH  15  16
ENDBRANCH   2  13
TORSDOF 3
ENDMDL
MODEL 2
REMARK VINA RESULT:      -7.4      6.237      8.308
REMARK  Name = 60825
REMARK  3 active torsions:
REMARK  status: ('A' for Active; 'I' for Inactive)
REMARK    1  A    between atoms: N_2  and  C_13
REMARK    2  A    between atoms: C_15  and  C_16
REMARK    3  A    between atoms: C_16  and  O_17
REMARK                            x       y       z     vdW  Elec       q    Type
REMARK                         _______ _______ _______ _____ _____    ______ ____
ROOT
ATOM      1  O   UNL     1      32.284 -23.657 -16.213  0.00  0.00    -0.193 OA
ATOM      2  N   UNL     1      34.445 -23.063 -16.754  0.00  0.00    -0.179 N 
ATOM      3  N   UNL     1      32.591 -22.575 -18.185  0.00  0.00    -0.306 NA
ATOM      4  N   UNL     1      32.913 -21.466 -20.204  0.00  0.00    -0.332 N 
ATOM      5  C   UNL     1      35.301 -22.469 -17.652  0.00  0.00    +0.083 C 
ATOM      6  C   UNL     1      33.064 -23.128 -17.007  0.00  0.00    +0.275 C 
ATOM      7  C   UNL     1      34.866 -21.933 -18.790  0.00  0.00    +0.065 C 
ATOM      8  C   UNL     1      33.403 -22.009 -19.040  0.00  0.00    +0.193 C 
ATOM      9  H   UNL     1      31.947 -21.502 -20.395  0.00  0.00    +0.145 HD
ATOM     10  H   UNL     1      33.526 -21.041 -20.846  0.00  0.00    +0.145 HD
ENDROOT
BRANCH   2  13
ATOM     11  S   UNL     1      37.030 -23.968 -13.956  0.00  0.00    -0.105 S 
ATOM     12  O   UNL     1      35.420 -24.961 -15.815  0.00  0.00    -0.325 OA
ATOM     13  C   UNL     1      35.008 -23.614 -15.554  0.00  0.00    +0.218 C 
ATOM     14  C   UNL     1      36.230 -22.830 -15.098  0.00  0.00    +0.112 C 
ATOM     15  C   UNL     1      36.212 -25.403 -14.703  0.00  0.00    +0.194 C 
BRANCH  15  16
ATOM     16  C   UNL     1      37.225 -26.420 -15.198  0.00  0.00    +0.178 C 
BRANCH  16  17
ATOM     17  O   UNL     1      36.647 -27.165 -16.257  0.00  0.00    -0.379 OA
ATOM     18  H   UNL     1      35.708 -27.318 -16.071  0.00  0.00    +0.211 HD
ENDBRANCH  16  17
ENDBRANCH  15  16
ENDBRANCH   2  13
TORSDOF 3
ENDMDL
MODEL 3
REMARK VINA RESULT:      -7.0      2.919      3.885
REMARK  Name = 60825
REMARK  3 active torsions:
REMARK  status: ('A' for Active; 'I' for Inactive)
REMARK    1  A    between atoms: N_2  and  C_13
REMARK    2  A    between atoms: C_15  and  C_16
REMARK    3  A    between atoms: C_16  and  O_17
REMARK                            x       y       z     vdW  Elec       q    Type
REMARK                         _______ _______ _______ _____ _____    ______ ____
ROOT
ATOM      1  O   UNL     1      34.969 -15.714 -20.175  0.00  0.00    -0.193 OA
ATOM      2  N   UNL     1      34.638 -16.449 -22.335  0.00  0.00    -0.179 N 
ATOM      3  N   UNL     1      35.330 -17.919 -20.578  0.00  0.00    -0.306 NA
ATOM      4  N   UNL     1      35.698 -20.177 -20.999  0.00  0.00    -0.332 N 
ATOM      5  C   UNL     1      34.656 -17.497 -23.226  0.00  0.00    +0.083 C 
ATOM      6  C   UNL     1      34.978 -16.643 -20.985  0.00  0.00    +0.275 C 
ATOM      7  C   UNL     1      34.991 -18.731 -22.855  0.00  0.00    +0.065 C 
ATOM      8  C   UNL     1      35.346 -18.917 -21.424  0.00  0.00    +0.193 C 
ATOM      9  H   UNL     1      35.939 -20.329 -20.056  0.00  0.00    +0.145 HD
ATOM     10  H   UNL     1      35.711 -20.925 -21.638  0.00  0.00    +0.145 HD
ENDROOT
BRANCH   2  13
ATOM     11  S   UNL     1      32.439 -13.400 -23.429  0.00  0.00    -0.105 S 
ATOM     12  O   UNL     1      34.189 -15.211 -24.259  0.00  0.00    -0.325 OA
ATOM     13  C   UNL     1      34.263 -15.155 -22.830  0.00  0.00    +0.218 C 
ATOM     14  C   UNL     1      32.900 -14.729 -22.306  0.00  0.00    +0.112 C 
ATOM     15  C   UNL     1      33.564 -14.004 -24.716  0.00  0.00    +0.194 C 
BRANCH  15  16
ATOM     16  C   UNL     1      32.819 -14.297 -26.006  0.00  0.00    +0.178 C 
BRANCH  16  17
ATOM     17  O   UNL     1      33.390 -15.443 -26.616  0.00  0.00    -0.379 OA
ATOM     18  H   UNL     1      32.861 -15.696 -27.388  0.00  0.00    +0.211 HD
ENDBRANCH  16  17
ENDBRANCH  15  16
ENDBRANCH   2  13
TORSDOF 3
ENDMDL
MODEL 4
REMARK VINA RESULT:      -7.0      6.882      9.065
REMARK  Name = 60825
REMARK  3 active torsions:
REMARK  status: ('A' for Active; 'I' for Inactive)
REMARK    1  A    between atoms: N_2  and  C_13
REMARK    2  A    between atoms: C_15  and  C_16
REMARK    3  A    between atoms: C_16  and  O_17
REMARK                            x       y       z     vdW  Elec       q    Type
REMARK                         _______ _______ _______ _____ _____    ______ ____
ROOT
ATOM      1  O   UNL     1      34.693 -23.096 -17.903  0.00  0.00    -0.193 OA
ATOM      2  N   UNL     1      34.150 -23.481 -15.695  0.00  0.00    -0.179 N 
ATOM      3  N   UNL     1      32.499 -22.941 -17.342  0.00  0.00    -0.306 NA
ATOM      4  N   UNL     1      30.253 -22.784 -16.760  0.00  0.00    -0.332 N 
ATOM      5  C   UNL     1      33.171 -23.556 -14.732  0.00  0.00    +0.083 C 
ATOM      6  C   UNL     1      33.828 -23.169 -17.028  0.00  0.00    +0.275 C 
ATOM      7  C   UNL     1      31.888 -23.340 -15.013  0.00  0.00    +0.065 C 
ATOM      8  C   UNL     1      31.567 -23.013 -16.427  0.00  0.00    +0.193 C 
ATOM      9  H   UNL     1      30.011 -22.565 -17.689  0.00  0.00    +0.145 HD
ATOM     10  H   UNL     1      29.554 -22.838 -16.069  0.00  0.00    +0.145 HD
ENDROOT
BRANCH   2  13
ATOM     11  S   UNL     1      37.267 -25.166 -14.030  0.00  0.00    -0.105 S 
ATOM     12  O   UNL     1      35.784 -22.968 -14.114  0.00  0.00    -0.325 OA
ATOM     13  C   UNL     1      35.505 -23.729 -15.295  0.00  0.00    +0.218 C 
ATOM     14  C   UNL     1      35.734 -25.198 -14.972  0.00  0.00    +0.112 C 
ATOM     15  C   UNL     1      37.035 -23.424 -13.581  0.00  0.00    +0.194 C 
BRANCH  15  16
ATOM     16  C   UNL     1      37.020 -23.241 -12.074  0.00  0.00    +0.178 C 
BRANCH  16  17
ATOM     17  O   UNL     1      38.314 -22.849 -11.646  0.00  0.00    -0.379 OA
ATOM     18  H   UNL     1      38.909 -23.615 -11.671  0.00  0.00    +0.211 HD
ENDBRANCH  16  17
ENDBRANCH  15  16
ENDBRANCH   2  13
TORSDOF 3
ENDMDL
MODEL 5
REMARK VINA RESULT:      -6.9      6.579      9.426
REMARK  Name = 60825
REMARK  3 active torsions:
REMARK  status: ('A' for Active; 'I' for Inactive)
REMARK    1  A    between atoms: N_2  and  C_13
REMARK    2  A    between atoms: C_15  and  C_16
REMARK    3  A    between atoms: C_16  and  O_17
REMARK                            x       y       z     vdW  Elec       q    Type
REMARK                         _______ _______ _______ _____ _____    ______ ____
ROOT
ATOM      1  O   UNL     1      37.305 -22.042 -16.947  0.00  0.00    -0.193 OA
ATOM      2  N   UNL     1      35.689 -23.083 -15.675  0.00  0.00    -0.179 N 
ATOM      3  N   UNL     1      35.270 -22.335 -17.909  0.00  0.00    -0.306 NA
ATOM      4  N   UNL     1      33.182 -22.639 -18.887  0.00  0.00    -0.332 N 
ATOM      5  C   UNL     1      34.397 -23.547 -15.582  0.00  0.00    +0.083 C 
ATOM      6  C   UNL     1      36.152 -22.464 -16.849  0.00  0.00    +0.275 C 
ATOM      7  C   UNL     1      33.534 -23.433 -16.590  0.00  0.00    +0.065 C 
ATOM      8  C   UNL     1      34.042 -22.777 -17.823  0.00  0.00    +0.193 C 
ATOM      9  H   UNL     1      33.491 -22.208 -19.717  0.00  0.00    +0.145 HD
ATOM     10  H   UNL     1      32.258 -22.972 -18.820  0.00  0.00    +0.145 HD
ENDROOT
BRANCH   2  13
ATOM     11  S   UNL     1      37.867 -24.785 -12.901  0.00  0.00    -0.105 S 
ATOM     12  O   UNL     1      35.739 -23.267 -13.351  0.00  0.00    -0.325 OA
ATOM     13  C   UNL     1      36.545 -23.251 -14.535  0.00  0.00    +0.218 C 
ATOM     14  C   UNL     1      37.310 -24.565 -14.599  0.00  0.00    +0.112 C 
ATOM     15  C   UNL     1      36.566 -23.697 -12.260  0.00  0.00    +0.194 C 
BRANCH  15  16
ATOM     16  C   UNL     1      35.698 -24.414 -11.243  0.00  0.00    +0.178 C 
BRANCH  16  17
ATOM     17  O   UNL     1      36.194 -24.142  -9.943  0.00  0.00    -0.379 OA
ATOM     18  H   UNL     1      35.815 -23.310  -9.620  0.00  0.00    +0.211 HD
ENDBRANCH  16  17
ENDBRANCH  15  16
ENDBRANCH   2  13
TORSDOF 3
ENDMDL
MODEL 6
REMARK VINA RESULT:      -6.8      2.760      5.707
REMARK  Name = 60825
REMARK  3 active torsions:
REMARK  status: ('A' for Active; 'I' for Inactive)
REMARK    1  A    between atoms: N_2  and  C_13
REMARK    2  A    between atoms: C_15  and  C_16
REMARK    3  A    between atoms: C_16  and  O_17
REMARK                            x       y       z     vdW  Elec       q    Type
REMARK                         _______ _______ _______ _____ _____    ______ ____
ROOT
ATOM      1  O   UNL     1      34.697 -18.859 -24.151  0.00  0.00    -0.193 OA
ATOM      2  N   UNL     1      34.575 -18.315 -21.914  0.00  0.00    -0.179 N 
ATOM      3  N   UNL     1      34.682 -16.649 -23.629  0.00  0.00    -0.306 NA
ATOM      4  N   UNL     1      34.666 -14.388 -23.085  0.00  0.00    -0.332 N 
ATOM      5  C   UNL     1      34.530 -17.331 -20.954  0.00  0.00    +0.083 C 
ATOM      6  C   UNL     1      34.654 -17.989 -23.279  0.00  0.00    +0.275 C 
ATOM      7  C   UNL     1      34.556 -16.038 -21.269  0.00  0.00    +0.065 C 
ATOM      8  C   UNL     1      34.637 -15.713 -22.717  0.00  0.00    +0.193 C 
ATOM      9  H   UNL     1      34.719 -14.143 -24.038  0.00  0.00    +0.145 HD
ATOM     10  H   UNL     1      34.633 -13.685 -22.398  0.00  0.00    +0.145 HD
ENDROOT
BRANCH   2  13
ATOM     11  S   UNL     1      33.848 -21.487 -19.737  0.00  0.00    -0.105 S 
ATOM     12  O   UNL     1      35.759 -19.971 -20.777  0.00  0.00    -0.325 OA
ATOM     13  C   UNL     1      34.543 -19.682 -21.476  0.00  0.00    +0.218 C 
ATOM     14  C   UNL     1      33.383 -19.937 -20.525  0.00  0.00    +0.112 C 
ATOM     15  C   UNL     1      35.601 -21.238 -20.124  0.00  0.00    +0.194 C 
BRANCH  15  16
ATOM     16  C   UNL     1      36.451 -21.248 -18.866  0.00  0.00    +0.178 C 
BRANCH  16  17
ATOM     17  O   UNL     1      35.928 -22.212 -17.966  0.00  0.00    -0.379 OA
ATOM     18  H   UNL     1      35.089 -21.891 -17.600  0.00  0.00    +0.211 HD
ENDBRANCH  16  17
ENDBRANCH  15  16
ENDBRANCH   2  13
TORSDOF 3
ENDMDL
MODEL 7
REMARK VINA RESULT:      -6.7      4.325      5.956
REMARK  Name = 60825
REMARK  3 active torsions:
REMARK  status: ('A' for Active; 'I' for Inactive)
REMARK    1  A    between atoms: N_2  and  C_13
REMARK    2  A    between atoms: C_15  and  C_16
REMARK    3  A    between atoms: C_16  and  O_17
REMARK                            x       y       z     vdW  Elec       q    Type
REMARK                         _______ _______ _______ _____ _____    ______ ____
ROOT
ATOM      1  O   UNL     1      32.303 -14.390 -21.804  0.00  0.00    -0.193 OA
ATOM      2  N   UNL     1      33.727 -15.087 -23.479  0.00  0.00    -0.179 N 
ATOM      3  N   UNL     1      33.779 -16.034 -21.281  0.00  0.00    -0.306 NA
ATOM      4  N   UNL     1      35.294 -17.718 -20.754  0.00  0.00    -0.332 N 
ATOM      5  C   UNL     1      34.751 -15.919 -23.867  0.00  0.00    +0.083 C 
ATOM      6  C   UNL     1      33.219 -15.130 -22.168  0.00  0.00    +0.275 C 
ATOM      7  C   UNL     1      35.303 -16.795 -23.030  0.00  0.00    +0.065 C 
ATOM      8  C   UNL     1      34.752 -16.827 -21.650  0.00  0.00    +0.193 C 
ATOM      9  H   UNL     1      34.949 -17.761 -19.832  0.00  0.00    +0.145 HD
ATOM     10  H   UNL     1      36.026 -18.313 -21.033  0.00  0.00    +0.145 HD
ENDROOT
BRANCH   2  13
ATOM     11  S   UNL     1      33.146 -13.225 -26.874  0.00  0.00    -0.105 S 
ATOM     12  O   UNL     1      33.897 -12.930 -24.347  0.00  0.00    -0.325 OA
ATOM     13  C   UNL     1      33.197 -14.175 -24.452  0.00  0.00    +0.218 C 
ATOM     14  C   UNL     1      33.383 -14.699 -25.869  0.00  0.00    +0.112 C 
ATOM     15  C   UNL     1      33.548 -12.130 -25.485  0.00  0.00    +0.194 C 
BRANCH  15  16
ATOM     16  C   UNL     1      34.715 -11.220 -25.820  0.00  0.00    +0.178 C 
BRANCH  16  17
ATOM     17  O   UNL     1      35.142 -10.566 -24.637  0.00  0.00    -0.379 OA
ATOM     18  H   UNL     1      36.089 -10.727 -24.501  0.00  0.00    +0.211 HD
ENDBRANCH  16  17
ENDBRANCH  15  16
ENDBRANCH   2  13
TORSDOF 3
ENDMDL
MODEL 8
REMARK VINA RESULT:      -6.6      5.847      7.696
REMARK  Name = 60825
REMARK  3 active torsions:
REMARK  status: ('A' for Active; 'I' for Inactive)
REMARK    1  A    between atoms: N_2  and  C_13
REMARK    2  A    between atoms: C_15  and  C_16
REMARK    3  A    between atoms: C_16  and  O_17
REMARK                            x       y       z     vdW  Elec       q    Type
REMARK                         _______ _______ _______ _____ _____    ______ ____
ROOT
ATOM      1  O   UNL     1      37.708 -22.175 -15.616  0.00  0.00    -0.193 OA
ATOM      2  N   UNL     1      36.176 -23.891 -15.463  0.00  0.00    -0.179 N 
ATOM      3  N   UNL     1      38.440 -24.131 -14.724  0.00  0.00    -0.306 NA
ATOM      4  N   UNL     1      39.181 -26.137 -13.811  0.00  0.00    -0.332 N 
ATOM      5  C   UNL     1      35.912 -25.189 -15.090  0.00  0.00    +0.083 C 
ATOM      6  C   UNL     1      37.455 -23.336 -15.286  0.00  0.00    +0.275 C 
ATOM      7  C   UNL     1      36.844 -25.970 -14.548  0.00  0.00    +0.065 C 
ATOM      8  C   UNL     1      38.189 -25.364 -14.368  0.00  0.00    +0.193 C 
ATOM      9  H   UNL     1      40.082 -25.762 -13.679  0.00  0.00    +0.145 HD
ATOM     10  H   UNL     1      38.991 -27.065 -13.544  0.00  0.00    +0.145 HD
ENDROOT
BRANCH   2  13
ATOM     11  S   UNL     1      32.762 -23.001 -17.162  0.00  0.00    -0.105 S 
ATOM     12  O   UNL     1      35.400 -22.892 -17.421  0.00  0.00    -0.325 OA
ATOM     13  C   UNL     1      35.106 -23.128 -16.039  0.00  0.00    +0.218 C 
ATOM     14  C   UNL     1      33.782 -23.874 -15.962  0.00  0.00    +0.112 C 
ATOM     15  C   UNL     1      34.217 -22.368 -18.040  0.00  0.00    +0.194 C 
BRANCH  15  16
ATOM     16  C   UNL     1      34.204 -22.784 -19.500  0.00  0.00    +0.178 C 
BRANCH  16  17
ATOM     17  O   UNL     1      33.937 -24.175 -19.579  0.00  0.00    -0.379 OA
ATOM     18  H   UNL     1      33.426 -24.361 -20.382  0.00  0.00    +0.211 HD
ENDBRANCH  16  17
ENDBRANCH  15  16
ENDBRANCH   2  13
TORSDOF 3
ENDMDL
MODEL 9
REMARK VINA RESULT:      -6.5      5.072      7.260
REMARK  Name = 60825
REMARK  3 active torsions:
REMARK  status: ('A' for Active; 'I' for Inactive)
REMARK    1  A    between atoms: N_2  and  C_13
REMARK    2  A    between atoms: C_15  and  C_16
REMARK    3  A    between atoms: C_16  and  O_17
REMARK                            x       y       z     vdW  Elec       q    Type
REMARK                         _______ _______ _______ _____ _____    ______ ____
ROOT
ATOM      1  O   UNL     1      34.109 -12.199 -24.665  0.00  0.00    -0.193 OA
ATOM      2  N   UNL     1      33.542 -13.670 -22.982  0.00  0.00    -0.179 N 
ATOM      3  N   UNL     1      32.613 -11.468 -23.121  0.00  0.00    -0.306 NA
ATOM      4  N   UNL     1      31.080 -10.728 -21.536  0.00  0.00    -0.332 N 
ATOM      5  C   UNL     1      32.808 -13.913 -21.844  0.00  0.00    +0.083 C 
ATOM      6  C   UNL     1      33.457 -12.433 -23.645  0.00  0.00    +0.275 C 
ATOM      7  C   UNL     1      31.991 -12.999 -21.324  0.00  0.00    +0.065 C 
ATOM      8  C   UNL     1      31.914 -11.699 -22.040  0.00  0.00    +0.193 C 
ATOM      9  H   UNL     1      31.009  -9.857 -21.990  0.00  0.00    +0.145 HD
ATOM     10  H   UNL     1      30.556 -10.903 -20.722  0.00  0.00    +0.145 HD
ENDROOT
BRANCH   2  13
ATOM     11  S   UNL     1      34.717 -17.032 -24.608  0.00  0.00    -0.105 S 
ATOM     12  O   UNL     1      34.710 -15.595 -22.379  0.00  0.00    -0.325 OA
ATOM     13  C   UNL     1      34.396 -14.717 -23.466  0.00  0.00    +0.218 C 
ATOM     14  C   UNL     1      33.715 -15.538 -24.551  0.00  0.00    +0.112 C 
ATOM     15  C   UNL     1      35.335 -16.766 -22.925  0.00  0.00    +0.194 C 
BRANCH  15  16
ATOM     16  C   UNL     1      35.020 -17.949 -22.028  0.00  0.00    +0.178 C 
BRANCH  16  17
ATOM     17  O   UNL     1      35.349 -17.613 -20.691  0.00  0.00    -0.379 OA
ATOM     18  H   UNL     1      36.305 -17.466 -20.619  0.00  0.00    +0.211 HD
ENDBRANCH  16  17
ENDBRANCH  15  16
ENDBRANCH   2  13
TORSDOF 3
ENDMDL
