MODEL 1
REMARK VINA RESULT:      -7.2      0.000      0.000
REMARK  Name = 123630
REMARK  4 active torsions:
REMARK  status: ('A' for Active; 'I' for Inactive)
REMARK    1  A    between atoms: C_6  and  C_16
REMARK    2  A    between atoms: C_8  and  C_13
REMARK    3  A    between atoms: C_13  and  O_14
REMARK    4  A    between atoms: C_16  and  N_17
REMARK                            x       y       z     vdW  Elec       q    Type
REMARK                         _______ _______ _______ _____ _____    ______ ____
ROOT
ATOM      1  S   UNL     1      32.411 -24.222 -13.655  0.00  0.00    +0.007 S 
ATOM      2  O   UNL     1      31.653 -25.357 -13.165  0.00  0.00    -0.171 OA
ATOM      3  O   UNL     1      32.657 -23.077 -12.798  0.00  0.00    -0.171 OA
ATOM      4  O   UNL     1      35.879 -22.314 -15.402  0.00  0.00    -0.275 OA
ATOM      5  N   UNL     1      34.048 -23.799 -15.465  0.00  0.00    -0.252 N 
ATOM      6  C   UNL     1      31.669 -23.628 -15.243  0.00  0.00    +0.159 C 
ATOM      7  C   UNL     1      33.941 -24.788 -14.381  0.00  0.00    +0.215 C 
ATOM      8  C   UNL     1      32.905 -23.062 -15.967  0.00  0.00    +0.198 C 
ATOM      9  C   UNL     1      35.298 -24.279 -13.879  0.00  0.00    +0.130 C 
ATOM     10  C   UNL     1      35.233 -23.273 -15.045  0.00  0.00    +0.231 C 
ATOM     11  C   UNL     1      31.012 -24.814 -15.966  0.00  0.00    +0.028 C 
ENDROOT
BRANCH   8  13
ATOM     12  O   UNL     1      33.583 -23.987 -18.092  0.00  0.00    -0.248 OA
ATOM     13  C   UNL     1      32.907 -23.190 -17.457  0.00  0.00    +0.334 C 
BRANCH  13  14
ATOM     14  O   UNL     1      32.053 -22.298 -18.016  0.00  0.00    -0.479 OA
ATOM     15  H   UNL     1      32.015 -21.420 -17.692  0.00  0.00    +0.295 HD
ENDBRANCH  13  14
ENDBRANCH   8  13
BRANCH   6  16
ATOM     16  C   UNL     1      30.625 -22.547 -14.961  0.00  0.00    +0.142 C 
BRANCH  16  17
ATOM     17  N   UNL     1      29.446 -22.720 -15.788  0.00  0.00    -0.189 N 
ATOM     18  N   UNL     1      29.393 -22.180 -17.011  0.00  0.00    -0.073 NA
ATOM     19  N   UNL     1      28.209 -22.497 -17.523  0.00  0.00    -0.129 NA
ATOM     20  C   UNL     1      28.312 -23.394 -15.475  0.00  0.00    +0.108 C 
ATOM     21  C   UNL     1      27.535 -23.240 -16.594  0.00  0.00    +0.141 C 
ENDBRANCH  16  17
ENDBRANCH   6  16
TORSDOF 4
ENDMDL
MODEL 2
REMARK VINA RESULT:      -6.8      3.289      6.783
REMARK  Name = 123630
REMARK  4 active torsions:
REMARK  status: ('A' for Active; 'I' for Inactive)
REMARK    1  A    between atoms: C_6  and  C_16
REMARK    2  A    between atoms: C_8  and  C_13
REMARK    3  A    between atoms: C_13  and  O_14
REMARK    4  A    between atoms: C_16  and  N_17
REMARK                            x       y       z     vdW  Elec       q    Type
REMARK                         _______ _______ _______ _____ _____    ______ ____
ROOT
ATOM      1  S   UNL     1      34.256 -24.244 -13.714  0.00  0.00    +0.007 S 
ATOM      2  O   UNL     1      33.972 -23.925 -12.329  0.00  0.00    -0.171 OA
ATOM      3  O   UNL     1      33.683 -25.427 -14.330  0.00  0.00    -0.171 OA
ATOM      4  O   UNL     1      34.387 -23.407 -17.958  0.00  0.00    -0.275 OA
ATOM      5  N   UNL     1      35.027 -23.013 -15.722  0.00  0.00    -0.252 N 
ATOM      6  C   UNL     1      36.088 -24.266 -13.978  0.00  0.00    +0.159 C 
ATOM      7  C   UNL     1      33.953 -22.811 -14.737  0.00  0.00    +0.215 C 
ATOM      8  C   UNL     1      36.193 -23.832 -15.451  0.00  0.00    +0.198 C 
ATOM      9  C   UNL     1      32.965 -22.862 -15.909  0.00  0.00    +0.130 C 
ATOM     10  C   UNL     1      34.198 -23.112 -16.799  0.00  0.00    +0.231 C 
ATOM     11  C   UNL     1      36.749 -23.291 -12.991  0.00  0.00    +0.028 C 
ENDROOT
BRANCH   8  13
ATOM     12  O   UNL     1      37.426 -21.808 -15.916  0.00  0.00    -0.248 OA
ATOM     13  C   UNL     1      37.400 -23.026 -15.812  0.00  0.00    +0.334 C 
BRANCH  13  14
ATOM     14  O   UNL     1      38.471 -23.832 -16.013  0.00  0.00    -0.479 OA
ATOM     15  H   UNL     1      38.766 -24.399 -15.328  0.00  0.00    +0.295 HD
ENDBRANCH  13  14
ENDBRANCH   8  13
BRANCH   6  16
ATOM     16  C   UNL     1      36.632 -25.678 -13.756  0.00  0.00    +0.142 C 
BRANCH  16  17
ATOM     17  N   UNL     1      38.071 -25.725 -13.929  0.00  0.00    -0.189 N 
ATOM     18  N   UNL     1      38.608 -26.422 -14.937  0.00  0.00    -0.073 NA
ATOM     19  N   UNL     1      39.926 -26.286 -14.842  0.00  0.00    -0.129 NA
ATOM     20  C   UNL     1      39.013 -25.125 -13.160  0.00  0.00    +0.108 C 
ATOM     21  C   UNL     1      40.190 -25.496 -13.758  0.00  0.00    +0.141 C 
ENDBRANCH  16  17
ENDBRANCH   6  16
TORSDOF 4
ENDMDL
MODEL 3
REMARK VINA RESULT:      -6.6      3.175      4.954
REMARK  Name = 123630
REMARK  4 active torsions:
REMARK  status: ('A' for Active; 'I' for Inactive)
REMARK    1  A    between atoms: C_6  and  C_16
REMARK    2  A    between atoms: C_8  and  C_13
REMARK    3  A    between atoms: C_13  and  O_14
REMARK    4  A    between atoms: C_16  and  N_17
REMARK                            x       y       z     vdW  Elec       q    Type
REMARK                         _______ _______ _______ _____ _____    ______ ____
ROOT
ATOM      1  S   UNL     1      37.420 -23.952 -15.127  0.00  0.00    +0.007 S 
ATOM      2  O   UNL     1      37.891 -22.771 -15.822  0.00  0.00    -0.171 OA
ATOM      3  O   UNL     1      37.807 -25.276 -15.580  0.00  0.00    -0.171 OA
ATOM      4  O   UNL     1      36.876 -26.468 -11.649  0.00  0.00    -0.275 OA
ATOM      5  N   UNL     1      36.539 -24.481 -12.873  0.00  0.00    -0.252 N 
ATOM      6  C   UNL     1      35.576 -23.889 -14.985  0.00  0.00    +0.159 C 
ATOM      7  C   UNL     1      37.733 -23.785 -13.376  0.00  0.00    +0.215 C 
ATOM      8  C   UNL     1      35.341 -24.658 -13.672  0.00  0.00    +0.198 C 
ATOM      9  C   UNL     1      38.570 -24.820 -12.614  0.00  0.00    +0.130 C 
ATOM     10  C   UNL     1      37.225 -25.455 -12.211  0.00  0.00    +0.231 C 
ATOM     11  C   UNL     1      35.126 -22.420 -14.936  0.00  0.00    +0.028 C 
ENDROOT
BRANCH   8  13
ATOM     12  O   UNL     1      33.008 -24.454 -13.086  0.00  0.00    -0.248 OA
ATOM     13  C   UNL     1      34.180 -24.205 -12.846  0.00  0.00    +0.334 C 
BRANCH  13  14
ATOM     14  O   UNL     1      34.603 -23.473 -11.786  0.00  0.00    -0.479 OA
ATOM     15  H   UNL     1      34.005 -23.252 -11.101  0.00  0.00    +0.295 HD
ENDBRANCH  13  14
ENDBRANCH   8  13
BRANCH   6  16
ATOM     16  C   UNL     1      34.934 -24.590 -16.183  0.00  0.00    +0.142 C 
BRANCH  16  17
ATOM     17  N   UNL     1      33.857 -23.798 -16.746  0.00  0.00    -0.189 N 
ATOM     18  N   UNL     1      33.997 -23.220 -17.944  0.00  0.00    -0.073 NA
ATOM     19  N   UNL     1      32.868 -22.568 -18.194  0.00  0.00    -0.129 NA
ATOM     20  C   UNL     1      32.647 -23.541 -16.189  0.00  0.00    +0.108 C 
ATOM     21  C   UNL     1      32.031 -22.754 -17.129  0.00  0.00    +0.141 C 
ENDBRANCH  16  17
ENDBRANCH   6  16
TORSDOF 4
ENDMDL
MODEL 4
REMARK VINA RESULT:      -6.5      4.735      7.419
REMARK  Name = 123630
REMARK  4 active torsions:
REMARK  status: ('A' for Active; 'I' for Inactive)
REMARK    1  A    between atoms: C_6  and  C_16
REMARK    2  A    between atoms: C_8  and  C_13
REMARK    3  A    between atoms: C_13  and  O_14
REMARK    4  A    between atoms: C_16  and  N_17
REMARK                            x       y       z     vdW  Elec       q    Type
REMARK                         _______ _______ _______ _____ _____    ______ ____
ROOT
ATOM      1  S   UNL     1      35.110 -24.830 -14.606  0.00  0.00    +0.007 S 
ATOM      2  O   UNL     1      33.816 -25.304 -14.158  0.00  0.00    -0.171 OA
ATOM      3  O   UNL     1      35.722 -25.379 -15.802  0.00  0.00    -0.171 OA
ATOM      4  O   UNL     1      37.928 -21.792 -15.853  0.00  0.00    -0.275 OA
ATOM      5  N   UNL     1      36.495 -22.802 -14.275  0.00  0.00    -0.252 N 
ATOM      6  C   UNL     1      36.323 -24.943 -13.213  0.00  0.00    +0.159 C 
ATOM      7  C   UNL     1      35.103 -23.045 -14.684  0.00  0.00    +0.215 C 
ATOM      8  C   UNL     1      37.276 -23.778 -13.539  0.00  0.00    +0.198 C 
ATOM      9  C   UNL     1      35.430 -22.302 -15.985  0.00  0.00    +0.130 C 
ATOM     10  C   UNL     1      36.861 -22.173 -15.427  0.00  0.00    +0.231 C 
ATOM     11  C   UNL     1      35.574 -24.782 -11.881  0.00  0.00    +0.028 C 
ENDROOT
BRANCH   8  13
ATOM     12  O   UNL     1      37.350 -22.163 -11.746  0.00  0.00    -0.248 OA
ATOM     13  C   UNL     1      37.878 -23.076 -12.364  0.00  0.00    +0.334 C 
BRANCH  13  14
ATOM     14  O   UNL     1      39.098 -23.589 -12.072  0.00  0.00    -0.479 OA
ATOM     15  H   UNL     1      39.821 -23.016 -11.912  0.00  0.00    +0.295 HD
ENDBRANCH  13  14
ENDBRANCH   8  13
BRANCH   6  16
ATOM     16  C   UNL     1      37.036 -26.295 -13.248  0.00  0.00    +0.142 C 
BRANCH  16  17
ATOM     17  N   UNL     1      38.371 -26.176 -13.803  0.00  0.00    -0.189 N 
ATOM     18  N   UNL     1      39.442 -26.218 -13.002  0.00  0.00    -0.073 NA
ATOM     19  N   UNL     1      40.511 -26.082 -13.779  0.00  0.00    -0.129 NA
ATOM     20  C   UNL     1      38.709 -26.012 -15.106  0.00  0.00    +0.108 C 
ATOM     21  C   UNL     1      40.079 -25.955 -15.070  0.00  0.00    +0.141 C 
ENDBRANCH  16  17
ENDBRANCH   6  16
TORSDOF 4
ENDMDL
MODEL 5
REMARK VINA RESULT:      -6.5      3.775      7.465
REMARK  Name = 123630
REMARK  4 active torsions:
REMARK  status: ('A' for Active; 'I' for Inactive)
REMARK    1  A    between atoms: C_6  and  C_16
REMARK    2  A    between atoms: C_8  and  C_13
REMARK    3  A    between atoms: C_13  and  O_14
REMARK    4  A    between atoms: C_16  and  N_17
REMARK                            x       y       z     vdW  Elec       q    Type
REMARK                         _______ _______ _______ _____ _____    ______ ____
ROOT
ATOM      1  S   UNL     1      35.389 -24.992 -15.112  0.00  0.00    +0.007 S 
ATOM      2  O   UNL     1      35.857 -26.170 -15.816  0.00  0.00    -0.171 OA
ATOM      3  O   UNL     1      35.199 -23.739 -15.819  0.00  0.00    -0.171 OA
ATOM      4  O   UNL     1      32.616 -22.780 -12.633  0.00  0.00    -0.275 OA
ATOM      5  N   UNL     1      34.161 -24.522 -13.012  0.00  0.00    -0.252 N 
ATOM      6  C   UNL     1      36.467 -24.686 -13.640  0.00  0.00    +0.159 C 
ATOM      7  C   UNL     1      33.924 -25.395 -14.171  0.00  0.00    +0.215 C 
ATOM      8  C   UNL     1      35.477 -24.021 -12.665  0.00  0.00    +0.198 C 
ATOM      9  C   UNL     1      32.608 -24.639 -14.383  0.00  0.00    +0.130 C 
ATOM     10  C   UNL     1      33.028 -23.782 -13.173  0.00  0.00    +0.231 C 
ATOM     11  C   UNL     1      37.028 -26.027 -13.140  0.00  0.00    +0.028 C 
ENDROOT
BRANCH   8  13
ATOM     12  O   UNL     1      35.092 -25.144 -10.563  0.00  0.00    -0.248 OA
ATOM     13  C   UNL     1      35.697 -24.304 -11.214  0.00  0.00    +0.334 C 
BRANCH  13  14
ATOM     14  O   UNL     1      36.662 -23.498 -10.709  0.00  0.00    -0.479 OA
ATOM     15  H   UNL     1      36.623 -23.224  -9.814  0.00  0.00    +0.295 HD
ENDBRANCH  13  14
ENDBRANCH   8  13
BRANCH   6  16
ATOM     16  C   UNL     1      37.616 -23.750 -14.017  0.00  0.00    +0.142 C 
BRANCH  16  17
ATOM     17  N   UNL     1      38.832 -24.490 -14.299  0.00  0.00    -0.189 N 
ATOM     18  N   UNL     1      39.776 -24.622 -13.361  0.00  0.00    -0.073 NA
ATOM     19  N   UNL     1      40.759 -25.335 -13.899  0.00  0.00    -0.129 NA
ATOM     20  C   UNL     1      39.170 -25.105 -15.459  0.00  0.00    +0.108 C 
ATOM     21  C   UNL     1      40.404 -25.638 -15.184  0.00  0.00    +0.141 C 
ENDBRANCH  16  17
ENDBRANCH   6  16
TORSDOF 4
ENDMDL
MODEL 6
REMARK VINA RESULT:      -6.5      1.954      5.522
REMARK  Name = 123630
REMARK  4 active torsions:
REMARK  status: ('A' for Active; 'I' for Inactive)
REMARK    1  A    between atoms: C_6  and  C_16
REMARK    2  A    between atoms: C_8  and  C_13
REMARK    3  A    between atoms: C_13  and  O_14
REMARK    4  A    between atoms: C_16  and  N_17
REMARK                            x       y       z     vdW  Elec       q    Type
REMARK                         _______ _______ _______ _____ _____    ______ ____
ROOT
ATOM      1  S   UNL     1      33.033 -23.998 -13.723  0.00  0.00    +0.007 S 
ATOM      2  O   UNL     1      33.718 -23.414 -12.587  0.00  0.00    -0.171 OA
ATOM      3  O   UNL     1      32.474 -25.335 -13.638  0.00  0.00    -0.171 OA
ATOM      4  O   UNL     1      30.023 -24.095 -16.830  0.00  0.00    -0.275 OA
ATOM      5  N   UNL     1      31.915 -23.167 -15.772  0.00  0.00    -0.252 N 
ATOM      6  C   UNL     1      34.125 -23.905 -15.214  0.00  0.00    +0.159 C 
ATOM      7  C   UNL     1      31.804 -22.857 -14.338  0.00  0.00    +0.215 C 
ATOM      8  C   UNL     1      33.089 -23.794 -16.349  0.00  0.00    +0.198 C 
ATOM      9  C   UNL     1      30.327 -23.254 -14.439  0.00  0.00    +0.130 C 
ATOM     10  C   UNL     1      30.623 -23.575 -15.917  0.00  0.00    +0.231 C 
ATOM     11  C   UNL     1      35.045 -22.681 -15.087  0.00  0.00    +0.028 C 
ENDROOT
BRANCH   8  13
ATOM     12  O   UNL     1      34.648 -22.834 -17.923  0.00  0.00    -0.248 OA
ATOM     13  C   UNL     1      33.499 -22.976 -17.531  0.00  0.00    +0.334 C 
BRANCH  13  14
ATOM     14  O   UNL     1      32.417 -22.407 -18.118  0.00  0.00    -0.479 OA
ATOM     15  H   UNL     1      31.647 -22.916 -18.274  0.00  0.00    +0.295 HD
ENDBRANCH  13  14
ENDBRANCH   8  13
BRANCH   6  16
ATOM     16  C   UNL     1      34.965 -25.178 -15.328  0.00  0.00    +0.142 C 
BRANCH  16  17
ATOM     17  N   UNL     1      36.265 -25.013 -14.706  0.00  0.00    -0.189 N 
ATOM     18  N   UNL     1      37.291 -24.515 -15.406  0.00  0.00    -0.073 NA
ATOM     19  N   UNL     1      38.338 -24.484 -14.589  0.00  0.00    -0.129 NA
ATOM     20  C   UNL     1      36.611 -25.315 -13.431  0.00  0.00    +0.108 C 
ATOM     21  C   UNL     1      37.938 -24.970 -13.375  0.00  0.00    +0.141 C 
ENDBRANCH  16  17
ENDBRANCH   6  16
TORSDOF 4
ENDMDL
MODEL 7
REMARK VINA RESULT:      -6.4      3.030      5.164
REMARK  Name = 123630
REMARK  4 active torsions:
REMARK  status: ('A' for Active; 'I' for Inactive)
REMARK    1  A    between atoms: C_6  and  C_16
REMARK    2  A    between atoms: C_8  and  C_13
REMARK    3  A    between atoms: C_13  and  O_14
REMARK    4  A    between atoms: C_16  and  N_17
REMARK                            x       y       z     vdW  Elec       q    Type
REMARK                         _______ _______ _______ _____ _____    ______ ____
ROOT
ATOM      1  S   UNL     1      36.197 -24.526 -15.421  0.00  0.00    +0.007 S 
ATOM      2  O   UNL     1      35.794 -23.568 -16.431  0.00  0.00    -0.171 OA
ATOM      3  O   UNL     1      36.140 -25.951 -15.692  0.00  0.00    -0.171 OA
ATOM      4  O   UNL     1      38.962 -26.263 -12.582  0.00  0.00    -0.275 OA
ATOM      5  N   UNL     1      37.610 -24.506 -13.386  0.00  0.00    -0.252 N 
ATOM      6  C   UNL     1      35.282 -24.183 -13.849  0.00  0.00    +0.159 C 
ATOM      7  C   UNL     1      37.807 -24.086 -14.782  0.00  0.00    +0.215 C 
ATOM      8  C   UNL     1      36.296 -24.659 -12.792  0.00  0.00    +0.198 C 
ATOM      9  C   UNL     1      38.982 -25.069 -14.838  0.00  0.00    +0.130 C 
ATOM     10  C   UNL     1      38.614 -25.427 -13.385  0.00  0.00    +0.231 C 
ATOM     11  C   UNL     1      34.959 -22.683 -13.773  0.00  0.00    +0.028 C 
ENDROOT
BRANCH   8  13
ATOM     12  O   UNL     1      37.110 -23.049 -11.188  0.00  0.00    -0.248 OA
ATOM     13  C   UNL     1      36.297 -23.907 -11.500  0.00  0.00    +0.334 C 
BRANCH  13  14
ATOM     14  O   UNL     1      35.269 -24.306 -10.712  0.00  0.00    -0.479 OA
ATOM     15  H   UNL     1      34.635 -24.911 -11.041  0.00  0.00    +0.295 HD
ENDBRANCH  13  14
ENDBRANCH   8  13
BRANCH   6  16
ATOM     16  C   UNL     1      33.988 -24.997 -13.809  0.00  0.00    +0.142 C 
BRANCH  16  17
ATOM     17  N   UNL     1      32.838 -24.180 -14.145  0.00  0.00    -0.189 N 
ATOM     18  N   UNL     1      31.974 -23.804 -13.195  0.00  0.00    -0.073 NA
ATOM     19  N   UNL     1      31.035 -23.078 -13.791  0.00  0.00    -0.129 NA
ATOM     20  C   UNL     1      32.489 -23.715 -15.370  0.00  0.00    +0.108 C 
ATOM     21  C   UNL     1      31.335 -23.014 -15.124  0.00  0.00    +0.141 C 
ENDBRANCH  16  17
ENDBRANCH   6  16
TORSDOF 4
ENDMDL
MODEL 8
REMARK VINA RESULT:      -6.4      8.436     10.365
REMARK  Name = 123630
REMARK  4 active torsions:
REMARK  status: ('A' for Active; 'I' for Inactive)
REMARK    1  A    between atoms: C_6  and  C_16
REMARK    2  A    between atoms: C_8  and  C_13
REMARK    3  A    between atoms: C_13  and  O_14
REMARK    4  A    between atoms: C_16  and  N_17
REMARK                            x       y       z     vdW  Elec       q    Type
REMARK                         _______ _______ _______ _____ _____    ______ ____
ROOT
ATOM      1  S   UNL     1      34.380 -16.575 -21.289  0.00  0.00    +0.007 S 
ATOM      2  O   UNL     1      35.405 -16.832 -20.297  0.00  0.00    -0.171 OA
ATOM      3  O   UNL     1      32.981 -16.518 -20.906  0.00  0.00    -0.171 OA
ATOM      4  O   UNL     1      32.501 -14.292 -24.449  0.00  0.00    -0.275 OA
ATOM      5  N   UNL     1      34.276 -15.555 -23.545  0.00  0.00    -0.252 N 
ATOM      6  C   UNL     1      34.564 -17.773 -22.688  0.00  0.00    +0.159 C 
ATOM      7  C   UNL     1      34.815 -15.129 -22.244  0.00  0.00    +0.215 C 
ATOM      8  C   UNL     1      34.034 -16.946 -23.874  0.00  0.00    +0.198 C 
ATOM      9  C   UNL     1      33.876 -13.919 -22.331  0.00  0.00    +0.130 C 
ATOM     10  C   UNL     1      33.389 -14.527 -23.661  0.00  0.00    +0.231 C 
ATOM     11  C   UNL     1      36.042 -18.172 -22.816  0.00  0.00    +0.028 C 
ENDROOT
BRANCH   8  13
ATOM     12  O   UNL     1      35.326 -16.399 -25.838  0.00  0.00    -0.248 OA
ATOM     13  C   UNL     1      34.677 -17.212 -25.197  0.00  0.00    +0.334 C 
BRANCH  13  14
ATOM     14  O   UNL     1      34.443 -18.486 -25.596  0.00  0.00    -0.479 OA
ATOM     15  H   UNL     1      34.780 -19.203 -25.097  0.00  0.00    +0.295 HD
ENDBRANCH  13  14
ENDBRANCH   8  13
BRANCH   6  16
ATOM     16  C   UNL     1      33.711 -19.016 -22.429  0.00  0.00    +0.142 C 
BRANCH  16  17
ATOM     17  N   UNL     1      34.237 -19.800 -21.327  0.00  0.00    -0.189 N 
ATOM     18  N   UNL     1      33.414 -20.286 -20.390  0.00  0.00    -0.073 NA
ATOM     19  N   UNL     1      34.168 -20.949 -19.521  0.00  0.00    -0.129 NA
ATOM     20  C   UNL     1      35.531 -20.129 -21.096  0.00  0.00    +0.108 C 
ATOM     21  C   UNL     1      35.467 -20.862 -19.938  0.00  0.00    +0.141 C 
ENDBRANCH  16  17
ENDBRANCH   6  16
TORSDOF 4
ENDMDL
MODEL 9
REMARK VINA RESULT:      -6.2      8.356     10.285
REMARK  Name = 123630
REMARK  4 active torsions:
REMARK  status: ('A' for Active; 'I' for Inactive)
REMARK    1  A    between atoms: C_6  and  C_16
REMARK    2  A    between atoms: C_8  and  C_13
REMARK    3  A    between atoms: C_13  and  O_14
REMARK    4  A    between atoms: C_16  and  N_17
REMARK                            x       y       z     vdW  Elec       q    Type
REMARK                         _______ _______ _______ _____ _____    ______ ____
ROOT
ATOM      1  S   UNL     1      34.342 -16.298 -21.228  0.00  0.00    +0.007 S 
ATOM      2  O   UNL     1      35.320 -16.370 -20.160  0.00  0.00    -0.171 OA
ATOM      3  O   UNL     1      32.934 -16.116 -20.925  0.00  0.00    -0.171 OA
ATOM      4  O   UNL     1      32.669 -14.683 -24.877  0.00  0.00    -0.275 OA
ATOM      5  N   UNL     1      34.359 -15.779 -23.650  0.00  0.00    -0.252 N 
ATOM      6  C   UNL     1      34.526 -17.772 -22.331  0.00  0.00    +0.159 C 
ATOM      7  C   UNL     1      34.868 -15.103 -22.447  0.00  0.00    +0.215 C 
ATOM      8  C   UNL     1      34.073 -17.201 -23.688  0.00  0.00    +0.198 C 
ATOM      9  C   UNL     1      33.983 -13.911 -22.828  0.00  0.00    +0.130 C 
ATOM     10  C   UNL     1      33.518 -14.772 -24.019  0.00  0.00    +0.231 C 
ATOM     11  C   UNL     1      35.991 -18.236 -22.309  0.00  0.00    +0.028 C 
ENDROOT
BRANCH   8  13
ATOM     12  O   UNL     1      34.818 -18.951 -25.174  0.00  0.00    -0.248 OA
ATOM     13  C   UNL     1      34.751 -17.763 -24.895  0.00  0.00    +0.334 C 
BRANCH  13  14
ATOM     14  O   UNL     1      35.289 -16.772 -25.647  0.00  0.00    -0.479 OA
ATOM     15  H   UNL     1      36.039 -16.944 -26.182  0.00  0.00    +0.295 HD
ENDBRANCH  13  14
ENDBRANCH   8  13
BRANCH   6  16
ATOM     16  C   UNL     1      33.615 -18.903 -21.852  0.00  0.00    +0.142 C 
BRANCH  16  17
ATOM     17  N   UNL     1      34.291 -19.759 -20.896  0.00  0.00    -0.189 N 
ATOM     18  N   UNL     1      35.587 -19.573 -20.619  0.00  0.00    -0.073 NA
ATOM     19  N   UNL     1      35.928 -20.494 -19.725  0.00  0.00    -0.129 NA
ATOM     20  C   UNL     1      33.760 -20.794 -20.199  0.00  0.00    +0.108 C 
ATOM     21  C   UNL     1      34.821 -21.250 -19.457  0.00  0.00    +0.141 C 
ENDBRANCH  16  17
ENDBRANCH   6  16
TORSDOF 4
ENDMDL
