MODEL 1
REMARK VINA RESULT:      -8.2      0.000      0.000
REMARK  Name = 59768
REMARK  11 active torsions:
REMARK  status: ('A' for Active; 'I' for Inactive)
REMARK    1  A    between atoms: O_1  and  C_3
REMARK    2  A    between atoms: O_1  and  C_14
REMARK    3  A    between atoms: C_2  and  C_8
REMARK    4  A    between atoms: C_8  and  C_9
REMARK    5  A    between atoms: C_9  and  C_11
REMARK    6  A    between atoms: C_11  and  O_12
REMARK    7  A    between atoms: C_14  and  C_15
REMARK    8  A    between atoms: C_15  and  O_16
REMARK    9  A    between atoms: C_15  and  C_18
REMARK   10  A    between atoms: C_18  and  N_19
REMARK   11  A    between atoms: N_19  and  C_22
REMARK                            x       y       z     vdW  Elec       q    Type
REMARK                         _______ _______ _______ _____ _____    ______ ____
ROOT
ATOM      1  O   UNL     1      32.833 -22.103 -18.680  0.00  0.00    -0.473 OA
ENDROOT
BRANCH   1   3
ATOM      2  C   UNL     1      34.854 -19.603 -21.318  0.00  0.00    -0.021 C 
ATOM      3  C   UNL     1      33.498 -21.280 -19.549  0.00  0.00    +0.139 C 
ATOM      4  C   UNL     1      35.563 -20.531 -20.555  0.00  0.00    -0.001 C 
ATOM      5  C   UNL     1      33.468 -19.514 -21.196  0.00  0.00    -0.001 C 
ATOM      6  C   UNL     1      34.885 -21.370 -19.670  0.00  0.00    +0.037 C 
ATOM      7  C   UNL     1      32.790 -20.353 -20.312  0.00  0.00    +0.037 C 
BRANCH   2   8
ATOM      8  C   UNL     1      35.578 -18.706 -22.264  0.00  0.00    +0.038 C 
BRANCH   8   9
ATOM      9  C   UNL     1      35.082 -18.861 -23.708  0.00  0.00    +0.114 C 
BRANCH   9  11
ATOM     10  O   UNL     1      34.720 -17.391 -25.612  0.00  0.00    -0.250 OA
ATOM     11  C   UNL     1      34.948 -17.534 -24.418  0.00  0.00    +0.317 C 
BRANCH  11  12
ATOM     12  O   UNL     1      35.124 -16.528 -23.511  0.00  0.00    -0.444 OA
ATOM     13  C   UNL     1      34.146 -15.484 -23.551  0.00  0.00    +0.256 C 
ENDBRANCH  11  12
ENDBRANCH   9  11
ENDBRANCH   8   9
ENDBRANCH   2   8
ENDBRANCH   1   3
BRANCH   1  14
ATOM     14  C   UNL     1      33.548 -23.237 -18.198  0.00  0.00    +0.232 C 
BRANCH  14  15
ATOM     15  C   UNL     1      33.646 -23.148 -16.677  0.00  0.00    +0.133 C 
BRANCH  15  16
ATOM     16  O   UNL     1      34.692 -24.017 -16.236  0.00  0.00    -0.383 OA
ATOM     17  H   UNL     1      35.005 -24.553 -16.982  0.00  0.00    +0.210 HD
ENDBRANCH  15  16
BRANCH  15  18
ATOM     18  C   UNL     1      32.355 -23.553 -15.962  0.00  0.00    -0.048 C 
BRANCH  18  19
ATOM     19  N   UNL     1      31.187 -22.882 -16.517  0.00  0.00    +0.387 N 
ATOM     20  H   UNL     1      31.265 -22.864 -17.534  0.00  0.00    -0.084 HD
ATOM     21  H   UNL     1      31.150 -21.933 -16.145  0.00  0.00    -0.084 HD
BRANCH  19  22
ATOM     22  C   UNL     1      29.962 -23.577 -16.146  0.00  0.00    -0.062 C 
ATOM     23  C   UNL     1      30.298 -24.730 -15.205  0.00  0.00    -0.023 C 
ATOM     24  C   UNL     1      28.980 -22.608 -15.495  0.00  0.00    -0.023 C 
ENDBRANCH  19  22
ENDBRANCH  18  19
ENDBRANCH  15  18
ENDBRANCH  14  15
ENDBRANCH   1  14
TORSDOF 11
ENDMDL
MODEL 2
REMARK VINA RESULT:      -8.2      1.625      2.475
REMARK  Name = 59768
REMARK  11 active torsions:
REMARK  status: ('A' for Active; 'I' for Inactive)
REMARK    1  A    between atoms: O_1  and  C_3
REMARK    2  A    between atoms: O_1  and  C_14
REMARK    3  A    between atoms: C_2  and  C_8
REMARK    4  A    between atoms: C_8  and  C_9
REMARK    5  A    between atoms: C_9  and  C_11
REMARK    6  A    between atoms: C_11  and  O_12
REMARK    7  A    between atoms: C_14  and  C_15
REMARK    8  A    between atoms: C_15  and  O_16
REMARK    9  A    between atoms: C_15  and  C_18
REMARK   10  A    between atoms: C_18  and  N_19
REMARK   11  A    between atoms: N_19  and  C_22
REMARK                            x       y       z     vdW  Elec       q    Type
REMARK                         _______ _______ _______ _____ _____    ______ ____
ROOT
ATOM      1  O   UNL     1      34.248 -23.298 -18.288  0.00  0.00    -0.473 OA
ENDROOT
BRANCH   1   3
ATOM      2  C   UNL     1      34.352 -19.940 -20.739  0.00  0.00    -0.021 C 
ATOM      3  C   UNL     1      34.282 -22.193 -19.095  0.00  0.00    +0.139 C 
ATOM      4  C   UNL     1      33.133 -20.407 -20.248  0.00  0.00    -0.001 C 
ATOM      5  C   UNL     1      35.536 -20.599 -20.408  0.00  0.00    -0.001 C 
ATOM      6  C   UNL     1      33.098 -21.533 -19.425  0.00  0.00    +0.037 C 
ATOM      7  C   UNL     1      35.501 -21.725 -19.586  0.00  0.00    +0.037 C 
BRANCH   2   8
ATOM      8  C   UNL     1      34.390 -18.736 -21.618  0.00  0.00    +0.038 C 
BRANCH   8   9
ATOM      9  C   UNL     1      35.356 -17.664 -21.096  0.00  0.00    +0.114 C 
BRANCH   9  11
ATOM     10  O   UNL     1      34.863 -15.463 -20.186  0.00  0.00    -0.250 OA
ATOM     11  C   UNL     1      34.738 -16.286 -21.084  0.00  0.00    +0.317 C 
BRANCH  11  12
ATOM     12  O   UNL     1      34.021 -16.113 -22.234  0.00  0.00    -0.444 OA
ATOM     13  C   UNL     1      34.729 -15.494 -23.314  0.00  0.00    +0.256 C 
ENDBRANCH  11  12
ENDBRANCH   9  11
ENDBRANCH   8   9
ENDBRANCH   2   8
ENDBRANCH   1   3
BRANCH   1  14
ATOM     14  C   UNL     1      33.392 -23.234 -17.151  0.00  0.00    +0.232 C 
BRANCH  14  15
ATOM     15  C   UNL     1      34.245 -23.315 -15.887  0.00  0.00    +0.133 C 
BRANCH  15  16
ATOM     16  O   UNL     1      35.348 -24.192 -16.136  0.00  0.00    -0.383 OA
ATOM     17  H   UNL     1      35.564 -24.181 -17.082  0.00  0.00    +0.210 HD
ENDBRANCH  15  16
BRANCH  15  18
ATOM     18  C   UNL     1      33.480 -23.844 -14.672  0.00  0.00    -0.048 C 
BRANCH  18  19
ATOM     19  N   UNL     1      32.575 -22.846 -14.118  0.00  0.00    +0.387 N 
ATOM     20  H   UNL     1      32.438 -22.103 -14.803  0.00  0.00    -0.084 HD
ATOM     21  H   UNL     1      32.986 -22.473 -13.263  0.00  0.00    -0.084 HD
BRANCH  19  22
ATOM     22  C   UNL     1      31.284 -23.438 -13.794  0.00  0.00    -0.062 C 
ATOM     23  C   UNL     1      30.242 -22.970 -14.805  0.00  0.00    -0.023 C 
ATOM     24  C   UNL     1      31.388 -24.960 -13.779  0.00  0.00    -0.023 C 
ENDBRANCH  19  22
ENDBRANCH  18  19
ENDBRANCH  15  18
ENDBRANCH  14  15
ENDBRANCH   1  14
TORSDOF 11
ENDMDL
MODEL 3
REMARK VINA RESULT:      -8.2      2.875      8.484
REMARK  Name = 59768
REMARK  11 active torsions:
REMARK  status: ('A' for Active; 'I' for Inactive)
REMARK    1  A    between atoms: O_1  and  C_3
REMARK    2  A    between atoms: O_1  and  C_14
REMARK    3  A    between atoms: C_2  and  C_8
REMARK    4  A    between atoms: C_8  and  C_9
REMARK    5  A    between atoms: C_9  and  C_11
REMARK    6  A    between atoms: C_11  and  O_12
REMARK    7  A    between atoms: C_14  and  C_15
REMARK    8  A    between atoms: C_15  and  O_16
REMARK    9  A    between atoms: C_15  and  C_18
REMARK   10  A    between atoms: C_18  and  N_19
REMARK   11  A    between atoms: N_19  and  C_22
REMARK                            x       y       z     vdW  Elec       q    Type
REMARK                         _______ _______ _______ _____ _____    ______ ____
ROOT
ATOM      1  O   UNL     1      35.437 -17.715 -22.519  0.00  0.00    -0.473 OA
ENDROOT
BRANCH   1   3
ATOM      2  C   UNL     1      35.177 -20.899 -19.857  0.00  0.00    -0.021 C 
ATOM      3  C   UNL     1      35.352 -18.763 -21.642  0.00  0.00    +0.139 C 
ATOM      4  C   UNL     1      36.418 -20.333 -20.147  0.00  0.00    -0.001 C 
ATOM      5  C   UNL     1      34.024 -20.398 -20.459  0.00  0.00    -0.001 C 
ATOM      6  C   UNL     1      36.506 -19.264 -21.040  0.00  0.00    +0.037 C 
ATOM      7  C   UNL     1      34.111 -19.329 -21.351  0.00  0.00    +0.037 C 
BRANCH   2   8
ATOM      8  C   UNL     1      35.084 -22.042 -18.902  0.00  0.00    +0.038 C 
BRANCH   8   9
ATOM      9  C   UNL     1      33.633 -22.480 -18.661  0.00  0.00    +0.114 C 
BRANCH   9  11
ATOM     10  O   UNL     1      32.371 -23.396 -16.794  0.00  0.00    -0.250 OA
ATOM     11  C   UNL     1      33.449 -23.153 -17.320  0.00  0.00    +0.317 C 
BRANCH  11  12
ATOM     12  O   UNL     1      34.678 -23.442 -16.799  0.00  0.00    -0.444 OA
ATOM     13  C   UNL     1      34.670 -24.058 -15.507  0.00  0.00    +0.256 C 
ENDBRANCH  11  12
ENDBRANCH   9  11
ENDBRANCH   8   9
ENDBRANCH   2   8
ENDBRANCH   1   3
BRANCH   1  14
ATOM     14  C   UNL     1      35.232 -18.015 -23.896  0.00  0.00    +0.232 C 
BRANCH  14  15
ATOM     15  C   UNL     1      34.401 -16.899 -24.525  0.00  0.00    +0.133 C 
BRANCH  15  16
ATOM     16  O   UNL     1      34.884 -16.661 -25.850  0.00  0.00    -0.383 OA
ATOM     17  H   UNL     1      34.579 -15.793 -26.155  0.00  0.00    +0.210 HD
ENDBRANCH  15  16
BRANCH  15  18
ATOM     18  C   UNL     1      34.470 -15.581 -23.749  0.00  0.00    -0.048 C 
BRANCH  18  19
ATOM     19  N   UNL     1      33.443 -15.497 -22.719  0.00  0.00    +0.387 N 
ATOM     20  H   UNL     1      33.344 -16.408 -22.271  0.00  0.00    -0.084 HD
ATOM     21  H   UNL     1      32.565 -15.218 -23.158  0.00  0.00    -0.084 HD
BRANCH  19  22
ATOM     22  C   UNL     1      33.796 -14.506 -21.712  0.00  0.00    -0.062 C 
ATOM     23  C   UNL     1      32.558 -13.697 -21.340  0.00  0.00    -0.023 C 
ATOM     24  C   UNL     1      34.392 -15.189 -20.485  0.00  0.00    -0.023 C 
ENDBRANCH  19  22
ENDBRANCH  18  19
ENDBRANCH  15  18
ENDBRANCH  14  15
ENDBRANCH   1  14
TORSDOF 11
ENDMDL
MODEL 4
REMARK VINA RESULT:      -8.2      3.126      8.689
REMARK  Name = 59768
REMARK  11 active torsions:
REMARK  status: ('A' for Active; 'I' for Inactive)
REMARK    1  A    between atoms: O_1  and  C_3
REMARK    2  A    between atoms: O_1  and  C_14
REMARK    3  A    between atoms: C_2  and  C_8
REMARK    4  A    between atoms: C_8  and  C_9
REMARK    5  A    between atoms: C_9  and  C_11
REMARK    6  A    between atoms: C_11  and  O_12
REMARK    7  A    between atoms: C_14  and  C_15
REMARK    8  A    between atoms: C_15  and  O_16
REMARK    9  A    between atoms: C_15  and  C_18
REMARK   10  A    between atoms: C_18  and  N_19
REMARK   11  A    between atoms: N_19  and  C_22
REMARK                            x       y       z     vdW  Elec       q    Type
REMARK                         _______ _______ _______ _____ _____    ______ ____
ROOT
ATOM      1  O   UNL     1      34.279 -18.180 -21.763  0.00  0.00    -0.473 OA
ENDROOT
BRANCH   1   3
ATOM      2  C   UNL     1      34.124 -21.646 -19.470  0.00  0.00    -0.021 C 
ATOM      3  C   UNL     1      34.228 -19.321 -21.008  0.00  0.00    +0.139 C 
ATOM      4  C   UNL     1      35.354 -21.151 -19.903  0.00  0.00    -0.001 C 
ATOM      5  C   UNL     1      32.947 -20.979 -19.806  0.00  0.00    -0.001 C 
ATOM      6  C   UNL     1      35.406 -19.988 -20.672  0.00  0.00    +0.037 C 
ATOM      7  C   UNL     1      32.998 -19.816 -20.575  0.00  0.00    +0.037 C 
BRANCH   2   8
ATOM      8  C   UNL     1      34.068 -22.889 -18.648  0.00  0.00    +0.038 C 
BRANCH   8   9
ATOM      9  C   UNL     1      32.951 -22.841 -17.597  0.00  0.00    +0.114 C 
BRANCH   9  11
ATOM     10  O   UNL     1      32.700 -23.438 -15.252  0.00  0.00    -0.250 OA
ATOM     11  C   UNL     1      33.391 -23.395 -16.261  0.00  0.00    +0.317 C 
BRANCH  11  12
ATOM     12  O   UNL     1      34.680 -23.836 -16.369  0.00  0.00    -0.444 OA
ATOM     13  C   UNL     1      35.178 -24.565 -15.242  0.00  0.00    +0.256 C 
ENDBRANCH  11  12
ENDBRANCH   9  11
ENDBRANCH   8   9
ENDBRANCH   2   8
ENDBRANCH   1   3
BRANCH   1  14
ATOM     14  C   UNL     1      35.167 -17.159 -21.319  0.00  0.00    +0.232 C 
BRANCH  14  15
ATOM     15  C   UNL     1      34.567 -15.798 -21.669  0.00  0.00    +0.133 C 
BRANCH  15  16
ATOM     16  O   UNL     1      33.196 -15.786 -21.264  0.00  0.00    -0.383 OA
ATOM     17  H   UNL     1      32.887 -14.870 -21.193  0.00  0.00    +0.210 HD
ENDBRANCH  15  16
BRANCH  15  18
ATOM     18  C   UNL     1      34.626 -15.477 -23.164  0.00  0.00    -0.048 C 
BRANCH  18  19
ATOM     19  N   UNL     1      35.457 -16.423 -23.896  0.00  0.00    +0.387 N 
ATOM     20  H   UNL     1      35.585 -17.262 -23.331  0.00  0.00    -0.084 HD
ATOM     21  H   UNL     1      36.356 -15.983 -24.090  0.00  0.00    -0.084 HD
BRANCH  19  22
ATOM     22  C   UNL     1      34.836 -16.791 -25.161  0.00  0.00    -0.062 C 
ATOM     23  C   UNL     1      34.347 -18.234 -25.086  0.00  0.00    -0.023 C 
ATOM     24  C   UNL     1      33.687 -15.840 -25.484  0.00  0.00    -0.023 C 
ENDBRANCH  19  22
ENDBRANCH  18  19
ENDBRANCH  15  18
ENDBRANCH  14  15
ENDBRANCH   1  14
TORSDOF 11
ENDMDL
MODEL 5
REMARK VINA RESULT:      -8.0      3.346      4.646
REMARK  Name = 59768
REMARK  11 active torsions:
REMARK  status: ('A' for Active; 'I' for Inactive)
REMARK    1  A    between atoms: O_1  and  C_3
REMARK    2  A    between atoms: O_1  and  C_14
REMARK    3  A    between atoms: C_2  and  C_8
REMARK    4  A    between atoms: C_8  and  C_9
REMARK    5  A    between atoms: C_9  and  C_11
REMARK    6  A    between atoms: C_11  and  O_12
REMARK    7  A    between atoms: C_14  and  C_15
REMARK    8  A    between atoms: C_15  and  O_16
REMARK    9  A    between atoms: C_15  and  C_18
REMARK   10  A    between atoms: C_18  and  N_19
REMARK   11  A    between atoms: N_19  and  C_22
REMARK                            x       y       z     vdW  Elec       q    Type
REMARK                         _______ _______ _______ _____ _____    ______ ____
ROOT
ATOM      1  O   UNL     1      35.334 -22.801 -17.744  0.00  0.00    -0.473 OA
ENDROOT
BRANCH   1   3
ATOM      2  C   UNL     1      34.567 -20.117 -20.826  0.00  0.00    -0.021 C 
ATOM      3  C   UNL     1      35.081 -21.917 -18.759  0.00  0.00    +0.139 C 
ATOM      4  C   UNL     1      33.510 -20.755 -20.178  0.00  0.00    -0.001 C 
ATOM      5  C   UNL     1      35.881 -20.378 -20.440  0.00  0.00    -0.001 C 
ATOM      6  C   UNL     1      33.766 -21.656 -19.144  0.00  0.00    +0.037 C 
ATOM      7  C   UNL     1      36.138 -21.278 -19.406  0.00  0.00    +0.037 C 
BRANCH   2   8
ATOM      8  C   UNL     1      34.292 -19.154 -21.932  0.00  0.00    +0.038 C 
BRANCH   8   9
ATOM      9  C   UNL     1      34.722 -17.724 -21.578  0.00  0.00    +0.114 C 
BRANCH   9  11
ATOM     10  O   UNL     1      35.255 -15.697 -22.813  0.00  0.00    -0.250 OA
ATOM     11  C   UNL     1      35.071 -16.907 -22.800  0.00  0.00    +0.317 C 
BRANCH  11  12
ATOM     12  O   UNL     1      35.147 -17.740 -23.881  0.00  0.00    -0.444 OA
ATOM     13  C   UNL     1      34.704 -17.181 -25.122  0.00  0.00    +0.256 C 
ENDBRANCH  11  12
ENDBRANCH   9  11
ENDBRANCH   8   9
ENDBRANCH   2   8
ENDBRANCH   1   3
BRANCH   1  14
ATOM     14  C   UNL     1      36.178 -22.342 -16.692  0.00  0.00    +0.232 C 
BRANCH  14  15
ATOM     15  C   UNL     1      35.981 -23.242 -15.474  0.00  0.00    +0.133 C 
BRANCH  15  16
ATOM     16  O   UNL     1      35.016 -22.636 -14.611  0.00  0.00    -0.383 OA
ATOM     17  H   UNL     1      35.408 -21.862 -14.178  0.00  0.00    +0.210 HD
ENDBRANCH  15  16
BRANCH  15  18
ATOM     18  C   UNL     1      37.265 -23.466 -14.672  0.00  0.00    -0.048 C 
BRANCH  18  19
ATOM     19  N   UNL     1      38.250 -24.237 -15.419  0.00  0.00    +0.387 N 
ATOM     20  H   UNL     1      39.018 -23.623 -15.692  0.00  0.00    -0.084 HD
ATOM     21  H   UNL     1      37.797 -24.631 -16.243  0.00  0.00    -0.084 HD
BRANCH  19  22
ATOM     22  C   UNL     1      38.778 -25.329 -14.612  0.00  0.00    -0.062 C 
ATOM     23  C   UNL     1      40.266 -25.498 -14.897  0.00  0.00    -0.023 C 
ATOM     24  C   UNL     1      38.532 -25.059 -13.130  0.00  0.00    -0.023 C 
ENDBRANCH  19  22
ENDBRANCH  18  19
ENDBRANCH  15  18
ENDBRANCH  14  15
ENDBRANCH   1  14
TORSDOF 11
ENDMDL
MODEL 6
REMARK VINA RESULT:      -7.8      3.755      8.951
REMARK  Name = 59768
REMARK  11 active torsions:
REMARK  status: ('A' for Active; 'I' for Inactive)
REMARK    1  A    between atoms: O_1  and  C_3
REMARK    2  A    between atoms: O_1  and  C_14
REMARK    3  A    between atoms: C_2  and  C_8
REMARK    4  A    between atoms: C_8  and  C_9
REMARK    5  A    between atoms: C_9  and  C_11
REMARK    6  A    between atoms: C_11  and  O_12
REMARK    7  A    between atoms: C_14  and  C_15
REMARK    8  A    between atoms: C_15  and  O_16
REMARK    9  A    between atoms: C_15  and  C_18
REMARK   10  A    between atoms: C_18  and  N_19
REMARK   11  A    between atoms: N_19  and  C_22
REMARK                            x       y       z     vdW  Elec       q    Type
REMARK                         _______ _______ _______ _____ _____    ______ ____
ROOT
ATOM      1  O   UNL     1      35.368 -17.700 -22.552  0.00  0.00    -0.473 OA
ENDROOT
BRANCH   1   3
ATOM      2  C   UNL     1      35.454 -20.829 -19.814  0.00  0.00    -0.021 C 
ATOM      3  C   UNL     1      35.396 -18.730 -21.651  0.00  0.00    +0.139 C 
ATOM      4  C   UNL     1      34.242 -20.421 -20.370  0.00  0.00    -0.001 C 
ATOM      5  C   UNL     1      36.638 -20.187 -20.177  0.00  0.00    -0.001 C 
ATOM      6  C   UNL     1      34.212 -19.372 -21.289  0.00  0.00    +0.037 C 
ATOM      7  C   UNL     1      36.609 -19.138 -21.096  0.00  0.00    +0.037 C 
BRANCH   2   8
ATOM      8  C   UNL     1      35.486 -21.951 -18.832  0.00  0.00    +0.038 C 
BRANCH   8   9
ATOM      9  C   UNL     1      36.562 -21.752 -17.756  0.00  0.00    +0.114 C 
BRANCH   9  11
ATOM     10  O   UNL     1      35.359 -23.313 -16.332  0.00  0.00    -0.250 OA
ATOM     11  C   UNL     1      36.373 -22.672 -16.573  0.00  0.00    +0.317 C 
BRANCH  11  12
ATOM     12  O   UNL     1      37.515 -22.668 -15.823  0.00  0.00    -0.444 OA
ATOM     13  C   UNL     1      37.731 -23.835 -15.023  0.00  0.00    +0.256 C 
ENDBRANCH  11  12
ENDBRANCH   9  11
ENDBRANCH   8   9
ENDBRANCH   2   8
ENDBRANCH   1   3
BRANCH   1  14
ATOM     14  C   UNL     1      35.014 -18.031 -23.891  0.00  0.00    +0.232 C 
BRANCH  14  15
ATOM     15  C   UNL     1      34.317 -16.831 -24.528  0.00  0.00    +0.133 C 
BRANCH  15  16
ATOM     16  O   UNL     1      34.819 -16.664 -25.857  0.00  0.00    -0.383 OA
ATOM     17  H   UNL     1      34.838 -15.720 -26.080  0.00  0.00    +0.210 HD
ENDBRANCH  15  16
BRANCH  15  18
ATOM     18  C   UNL     1      34.543 -15.524 -23.765  0.00  0.00    -0.048 C 
BRANCH  18  19
ATOM     19  N   UNL     1      33.496 -15.275 -22.783  0.00  0.00    +0.387 N 
ATOM     20  H   UNL     1      33.915 -15.218 -21.855  0.00  0.00    -0.084 HD
ATOM     21  H   UNL     1      32.823 -16.039 -22.825  0.00  0.00    -0.084 HD
BRANCH  19  22
ATOM     22  C   UNL     1      32.802 -14.026 -23.069  0.00  0.00    -0.062 C 
ATOM     23  C   UNL     1      32.315 -13.407 -21.763  0.00  0.00    -0.023 C 
ATOM     24  C   UNL     1      33.721 -13.069 -23.820  0.00  0.00    -0.023 C 
ENDBRANCH  19  22
ENDBRANCH  18  19
ENDBRANCH  15  18
ENDBRANCH  14  15
ENDBRANCH   1  14
TORSDOF 11
ENDMDL
MODEL 7
REMARK VINA RESULT:      -7.8      3.936      9.261
REMARK  Name = 59768
REMARK  11 active torsions:
REMARK  status: ('A' for Active; 'I' for Inactive)
REMARK    1  A    between atoms: O_1  and  C_3
REMARK    2  A    between atoms: O_1  and  C_14
REMARK    3  A    between atoms: C_2  and  C_8
REMARK    4  A    between atoms: C_8  and  C_9
REMARK    5  A    between atoms: C_9  and  C_11
REMARK    6  A    between atoms: C_11  and  O_12
REMARK    7  A    between atoms: C_14  and  C_15
REMARK    8  A    between atoms: C_15  and  O_16
REMARK    9  A    between atoms: C_15  and  C_18
REMARK   10  A    between atoms: C_18  and  N_19
REMARK   11  A    between atoms: N_19  and  C_22
REMARK                            x       y       z     vdW  Elec       q    Type
REMARK                         _______ _______ _______ _____ _____    ______ ____
ROOT
ATOM      1  O   UNL     1      34.803 -14.994 -23.684  0.00  0.00    -0.473 OA
ENDROOT
BRANCH   1   3
ATOM      2  C   UNL     1      34.968 -18.724 -21.852  0.00  0.00    -0.021 C 
ATOM      3  C   UNL     1      34.858 -16.222 -23.081  0.00  0.00    +0.139 C 
ATOM      4  C   UNL     1      34.975 -18.630 -23.244  0.00  0.00    -0.001 C 
ATOM      5  C   UNL     1      34.906 -17.568 -21.075  0.00  0.00    -0.001 C 
ATOM      6  C   UNL     1      34.920 -17.379 -23.859  0.00  0.00    +0.037 C 
ATOM      7  C   UNL     1      34.851 -16.316 -21.690  0.00  0.00    +0.037 C 
BRANCH   2   8
ATOM      8  C   UNL     1      35.027 -20.061 -21.194  0.00  0.00    +0.038 C 
BRANCH   8   9
ATOM      9  C   UNL     1      33.809 -20.322 -20.297  0.00  0.00    +0.114 C 
BRANCH   9  11
ATOM     10  O   UNL     1      32.947 -22.261 -19.109  0.00  0.00    -0.250 OA
ATOM     11  C   UNL     1      33.897 -21.647 -19.576  0.00  0.00    +0.317 C 
BRANCH  11  12
ATOM     12  O   UNL     1      35.205 -22.040 -19.532  0.00  0.00    -0.444 OA
ATOM     13  C   UNL     1      35.850 -21.894 -18.262  0.00  0.00    +0.256 C 
ENDBRANCH  11  12
ENDBRANCH   9  11
ENDBRANCH   8   9
ENDBRANCH   2   8
ENDBRANCH   1   3
BRANCH   1  14
ATOM     14  C   UNL     1      33.570 -14.640 -24.303  0.00  0.00    +0.232 C 
BRANCH  14  15
ATOM     15  C   UNL     1      33.146 -13.261 -23.803  0.00  0.00    +0.133 C 
BRANCH  15  16
ATOM     16  O   UNL     1      34.305 -12.427 -23.727  0.00  0.00    -0.383 OA
ATOM     17  H   UNL     1      34.316 -11.964 -22.874  0.00  0.00    +0.210 HD
ENDBRANCH  15  16
BRANCH  15  18
ATOM     18  C   UNL     1      32.490 -13.294 -22.420  0.00  0.00    -0.048 C 
BRANCH  18  19
ATOM     19  N   UNL     1      31.374 -12.363 -22.321  0.00  0.00    +0.387 N 
ATOM     20  H   UNL     1      30.597 -12.822 -21.847  0.00  0.00    -0.084 HD
ATOM     21  H   UNL     1      31.102 -12.081 -23.263  0.00  0.00    -0.084 HD
BRANCH  19  22
ATOM     22  C   UNL     1      31.754 -11.173 -21.571  0.00  0.00    -0.062 C 
ATOM     23  C   UNL     1      31.517  -9.935 -22.430  0.00  0.00    -0.023 C 
ATOM     24  C   UNL     1      30.965 -11.094 -20.268  0.00  0.00    -0.023 C 
ENDBRANCH  19  22
ENDBRANCH  18  19
ENDBRANCH  15  18
ENDBRANCH  14  15
ENDBRANCH   1  14
TORSDOF 11
ENDMDL
MODEL 8
REMARK VINA RESULT:      -7.7      3.532      9.090
REMARK  Name = 59768
REMARK  11 active torsions:
REMARK  status: ('A' for Active; 'I' for Inactive)
REMARK    1  A    between atoms: O_1  and  C_3
REMARK    2  A    between atoms: O_1  and  C_14
REMARK    3  A    between atoms: C_2  and  C_8
REMARK    4  A    between atoms: C_8  and  C_9
REMARK    5  A    between atoms: C_9  and  C_11
REMARK    6  A    between atoms: C_11  and  O_12
REMARK    7  A    between atoms: C_14  and  C_15
REMARK    8  A    between atoms: C_15  and  O_16
REMARK    9  A    between atoms: C_15  and  C_18
REMARK   10  A    between atoms: C_18  and  N_19
REMARK   11  A    between atoms: N_19  and  C_22
REMARK                            x       y       z     vdW  Elec       q    Type
REMARK                         _______ _______ _______ _____ _____    ______ ____
ROOT
ATOM      1  O   UNL     1      34.712 -15.676 -24.108  0.00  0.00    -0.473 OA
ENDROOT
BRANCH   1   3
ATOM      2  C   UNL     1      35.052 -18.979 -21.605  0.00  0.00    -0.021 C 
ATOM      3  C   UNL     1      34.824 -16.763 -23.284  0.00  0.00    +0.139 C 
ATOM      4  C   UNL     1      35.023 -17.694 -21.063  0.00  0.00    -0.001 C 
ATOM      5  C   UNL     1      34.967 -19.156 -22.985  0.00  0.00    -0.001 C 
ATOM      6  C   UNL     1      34.908 -16.585 -21.903  0.00  0.00    +0.037 C 
ATOM      7  C   UNL     1      34.853 -18.048 -23.825  0.00  0.00    +0.037 C 
BRANCH   2   8
ATOM      8  C   UNL     1      35.175 -20.164 -20.707  0.00  0.00    +0.038 C 
BRANCH   8   9
ATOM      9  C   UNL     1      33.817 -20.612 -20.148  0.00  0.00    +0.114 C 
BRANCH   9  11
ATOM     10  O   UNL     1      34.846 -22.715 -19.487  0.00  0.00    -0.250 OA
ATOM     11  C   UNL     1      33.896 -21.945 -19.440  0.00  0.00    +0.317 C 
BRANCH  11  12
ATOM     12  O   UNL     1      32.737 -22.144 -18.744  0.00  0.00    -0.444 OA
ATOM     13  C   UNL     1      32.853 -22.964 -17.577  0.00  0.00    +0.256 C 
ENDBRANCH  11  12
ENDBRANCH   9  11
ENDBRANCH   8   9
ENDBRANCH   2   8
ENDBRANCH   1   3
BRANCH   1  14
ATOM     14  C   UNL     1      33.478 -15.525 -24.804  0.00  0.00    +0.232 C 
BRANCH  14  15
ATOM     15  C   UNL     1      33.077 -14.052 -24.783  0.00  0.00    +0.133 C 
BRANCH  15  16
ATOM     16  O   UNL     1      33.370 -13.481 -26.062  0.00  0.00    -0.383 OA
ATOM     17  H   UNL     1      33.739 -12.592 -25.943  0.00  0.00    +0.210 HD
ENDBRANCH  15  16
BRANCH  15  18
ATOM     18  C   UNL     1      33.815 -13.238 -23.717  0.00  0.00    -0.048 C 
BRANCH  18  19
ATOM     19  N   UNL     1      32.973 -12.197 -23.143  0.00  0.00    +0.387 N 
ATOM     20  H   UNL     1      32.493 -11.703 -23.895  0.00  0.00    -0.084 HD
ATOM     21  H   UNL     1      33.565 -11.555 -22.615  0.00  0.00    -0.084 HD
BRANCH  19  22
ATOM     22  C   UNL     1      31.983 -12.768 -22.240  0.00  0.00    -0.062 C 
ATOM     23  C   UNL     1      32.671 -13.728 -21.275  0.00  0.00    -0.023 C 
ATOM     24  C   UNL     1      31.255 -11.660 -21.484  0.00  0.00    -0.023 C 
ENDBRANCH  19  22
ENDBRANCH  18  19
ENDBRANCH  15  18
ENDBRANCH  14  15
ENDBRANCH   1  14
TORSDOF 11
ENDMDL
MODEL 9
REMARK VINA RESULT:      -7.7      3.409      9.152
REMARK  Name = 59768
REMARK  11 active torsions:
REMARK  status: ('A' for Active; 'I' for Inactive)
REMARK    1  A    between atoms: O_1  and  C_3
REMARK    2  A    between atoms: O_1  and  C_14
REMARK    3  A    between atoms: C_2  and  C_8
REMARK    4  A    between atoms: C_8  and  C_9
REMARK    5  A    between atoms: C_9  and  C_11
REMARK    6  A    between atoms: C_11  and  O_12
REMARK    7  A    between atoms: C_14  and  C_15
REMARK    8  A    between atoms: C_15  and  O_16
REMARK    9  A    between atoms: C_15  and  C_18
REMARK   10  A    between atoms: C_18  and  N_19
REMARK   11  A    between atoms: N_19  and  C_22
REMARK                            x       y       z     vdW  Elec       q    Type
REMARK                         _______ _______ _______ _____ _____    ______ ____
ROOT
ATOM      1  O   UNL     1      34.273 -17.906 -21.897  0.00  0.00    -0.473 OA
ENDROOT
BRANCH   1   3
ATOM      2  C   UNL     1      34.348 -21.400 -19.643  0.00  0.00    -0.021 C 
ATOM      3  C   UNL     1      34.297 -19.056 -21.155  0.00  0.00    +0.139 C 
ATOM      4  C   UNL     1      33.130 -20.795 -19.951  0.00  0.00    -0.001 C 
ATOM      5  C   UNL     1      35.541 -20.834 -20.091  0.00  0.00    -0.001 C 
ATOM      6  C   UNL     1      33.104 -19.623 -20.707  0.00  0.00    +0.037 C 
ATOM      7  C   UNL     1      35.516 -19.662 -20.847  0.00  0.00    +0.037 C 
BRANCH   2   8
ATOM      8  C   UNL     1      34.375 -22.653 -18.834  0.00  0.00    +0.038 C 
BRANCH   8   9
ATOM      9  C   UNL     1      33.141 -22.791 -17.933  0.00  0.00    +0.114 C 
BRANCH   9  11
ATOM     10  O   UNL     1      32.679 -23.532 -15.663  0.00  0.00    -0.250 OA
ATOM     11  C   UNL     1      33.481 -23.338 -16.567  0.00  0.00    +0.317 C 
BRANCH  11  12
ATOM     12  O   UNL     1      34.825 -23.579 -16.510  0.00  0.00    -0.444 OA
ATOM     13  C   UNL     1      35.507 -23.002 -15.392  0.00  0.00    +0.256 C 
ENDBRANCH  11  12
ENDBRANCH   9  11
ENDBRANCH   8   9
ENDBRANCH   2   8
ENDBRANCH   1   3
BRANCH   1  14
ATOM     14  C   UNL     1      35.046 -16.814 -21.408  0.00  0.00    +0.232 C 
BRANCH  14  15
ATOM     15  C   UNL     1      34.273 -15.518 -21.646  0.00  0.00    +0.133 C 
BRANCH  15  16
ATOM     16  O   UNL     1      32.897 -15.743 -21.327  0.00  0.00    -0.383 OA
ATOM     17  H   UNL     1      32.831 -16.426 -20.641  0.00  0.00    +0.210 HD
ENDBRANCH  15  16
BRANCH  15  18
ATOM     18  C   UNL     1      34.353 -15.022 -23.092  0.00  0.00    -0.048 C 
BRANCH  18  19
ATOM     19  N   UNL     1      34.370 -13.567 -23.171  0.00  0.00    +0.387 N 
ATOM     20  H   UNL     1      35.295 -13.260 -23.468  0.00  0.00    -0.084 HD
ATOM     21  H   UNL     1      34.145 -13.189 -22.251  0.00  0.00    -0.084 HD
BRANCH  19  22
ATOM     22  C   UNL     1      33.379 -13.087 -24.126  0.00  0.00    -0.062 C 
ATOM     23  C   UNL     1      33.897 -11.820 -24.799  0.00  0.00    -0.023 C 
ATOM     24  C   UNL     1      33.071 -14.167 -25.157  0.00  0.00    -0.023 C 
ENDBRANCH  19  22
ENDBRANCH  18  19
ENDBRANCH  15  18
ENDBRANCH  14  15
ENDBRANCH   1  14
TORSDOF 11
ENDMDL
