MODEL 1
REMARK VINA RESULT:      -7.8      0.000      0.000
REMARK  Name = 21109
REMARK  5 active torsions:
REMARK  status: ('A' for Active; 'I' for Inactive)
REMARK    1  A    between atoms: C_1  and  C_13
REMARK    2  A    between atoms: C_2  and  O_7
REMARK    3  A    between atoms: C_4  and  O_9
REMARK    4  A    between atoms: C_6  and  O_11
REMARK    5  A    between atoms: C_13  and  N_14
REMARK                            x       y       z     vdW  Elec       q    Type
REMARK                         _______ _______ _______ _____ _____    ______ ____
ROOT
ATOM      1  C   UNL     1      35.315 -17.532 -21.771  0.00  0.00    -0.006 C 
ATOM      2  C   UNL     1      35.202 -17.141 -23.098  0.00  0.00    +0.169 C 
ATOM      3  C   UNL     1      34.955 -16.671 -20.741  0.00  0.00    -0.000 C 
ATOM      4  C   UNL     1      34.720 -15.868 -23.402  0.00  0.00    +0.206 C 
ATOM      5  C   UNL     1      34.474 -15.398 -21.045  0.00  0.00    +0.040 C 
ATOM      6  C   UNL     1      34.356 -14.997 -22.375  0.00  0.00    +0.175 C 
ENDROOT
BRANCH   2   7
ATOM      7  O   UNL     1      35.559 -17.990 -24.104  0.00  0.00    -0.469 OA
ATOM      8  C   UNL     1      34.547 -18.854 -24.611  0.00  0.00    +0.253 C 
ENDBRANCH   2   7
BRANCH   4   9
ATOM      9  O   UNL     1      34.606 -15.473 -24.703  0.00  0.00    -0.465 OA
ATOM     10  C   UNL     1      33.319 -15.588 -25.303  0.00  0.00    +0.253 C 
ENDBRANCH   4   9
BRANCH   6  11
ATOM     11  O   UNL     1      33.886 -13.750 -22.659  0.00  0.00    -0.468 OA
ATOM     12  C   UNL     1      32.530 -13.474 -22.311  0.00  0.00    +0.253 C 
ENDBRANCH   6  11
BRANCH   1  13
ATOM     13  C   UNL     1      35.832 -18.903 -21.422  0.00  0.00    -0.047 C 
BRANCH  13  14
ATOM     14  N   UNL     1      34.936 -19.603 -20.504  0.00  0.00    +0.387 N 
ATOM     15  N   UNL     1      33.197 -21.801 -19.764  0.00  0.00    +0.381 N 
ATOM     16  C   UNL     1      33.596 -19.745 -21.090  0.00  0.00    -0.101 C 
ATOM     17  C   UNL     1      35.483 -20.918 -20.144  0.00  0.00    -0.101 C 
ATOM     18  C   UNL     1      32.662 -20.488 -20.131  0.00  0.00    -0.105 C 
ATOM     19  C   UNL     1      34.538 -21.655 -19.192  0.00  0.00    -0.105 C 
ATOM     20  H   UNL     1      34.856 -19.046 -19.654  0.00  0.00    -0.079 HD
ATOM     21  H   UNL     1      33.248 -22.389 -20.595  0.00  0.00    -0.085 HD
ATOM     22  H   UNL     1      32.583 -22.231 -19.072  0.00  0.00    -0.085 HD
ENDBRANCH  13  14
ENDBRANCH   1  13
TORSDOF 5
ENDMDL
MODEL 2
REMARK VINA RESULT:      -7.6      1.677      3.326
REMARK  Name = 21109
REMARK  5 active torsions:
REMARK  status: ('A' for Active; 'I' for Inactive)
REMARK    1  A    between atoms: C_1  and  C_13
REMARK    2  A    between atoms: C_2  and  O_7
REMARK    3  A    between atoms: C_4  and  O_9
REMARK    4  A    between atoms: C_6  and  O_11
REMARK    5  A    between atoms: C_13  and  N_14
REMARK                            x       y       z     vdW  Elec       q    Type
REMARK                         _______ _______ _______ _____ _____    ______ ____
ROOT
ATOM      1  C   UNL     1      34.823 -16.390 -23.144  0.00  0.00    -0.006 C 
ATOM      2  C   UNL     1      34.184 -15.185 -22.886  0.00  0.00    +0.169 C 
ATOM      3  C   UNL     1      34.742 -16.986 -24.397  0.00  0.00    -0.000 C 
ATOM      4  C   UNL     1      33.453 -14.563 -23.897  0.00  0.00    +0.206 C 
ATOM      5  C   UNL     1      34.009 -16.365 -25.408  0.00  0.00    +0.040 C 
ATOM      6  C   UNL     1      33.365 -15.153 -25.159  0.00  0.00    +0.175 C 
ENDROOT
BRANCH   2   7
ATOM      7  O   UNL     1      34.266 -14.607 -21.653  0.00  0.00    -0.469 OA
ATOM      8  C   UNL     1      33.162 -14.802 -20.774  0.00  0.00    +0.253 C 
ENDBRANCH   2   7
BRANCH   4   9
ATOM      9  O   UNL     1      32.819 -13.379 -23.654  0.00  0.00    -0.465 OA
ATOM     10  C   UNL     1      33.587 -12.190 -23.819  0.00  0.00    +0.253 C 
ENDBRANCH   4   9
BRANCH   6  11
ATOM     11  O   UNL     1      32.652 -14.557 -26.154  0.00  0.00    -0.468 OA
ATOM     12  C   UNL     1      33.385 -13.791 -27.109  0.00  0.00    +0.253 C 
ENDBRANCH   6  11
BRANCH   1  13
ATOM     13  C   UNL     1      35.619 -17.076 -22.066  0.00  0.00    -0.047 C 
BRANCH  13  14
ATOM     14  N   UNL     1      35.132 -18.429 -21.809  0.00  0.00    +0.387 N 
ATOM     15  N   UNL     1      34.235 -20.567 -20.069  0.00  0.00    +0.381 N 
ATOM     16  C   UNL     1      36.078 -19.173 -20.967  0.00  0.00    -0.101 C 
ATOM     17  C   UNL     1      33.803 -18.396 -21.185  0.00  0.00    -0.101 C 
ATOM     18  C   UNL     1      35.561 -20.587 -20.691  0.00  0.00    -0.105 C 
ATOM     19  C   UNL     1      33.299 -19.814 -20.907  0.00  0.00    -0.105 C 
ATOM     20  H   UNL     1      35.053 -18.912 -22.704  0.00  0.00    -0.079 HD
ATOM     21  H   UNL     1      34.299 -20.123 -19.153  0.00  0.00    -0.085 HD
ATOM     22  H   UNL     1      33.898 -21.525 -19.968  0.00  0.00    -0.085 HD
ENDBRANCH  13  14
ENDBRANCH   1  13
TORSDOF 5
ENDMDL
MODEL 3
REMARK VINA RESULT:      -7.3      4.158      7.356
REMARK  Name = 21109
REMARK  5 active torsions:
REMARK  status: ('A' for Active; 'I' for Inactive)
REMARK    1  A    between atoms: C_1  and  C_13
REMARK    2  A    between atoms: C_2  and  O_7
REMARK    3  A    between atoms: C_4  and  O_9
REMARK    4  A    between atoms: C_6  and  O_11
REMARK    5  A    between atoms: C_13  and  N_14
REMARK                            x       y       z     vdW  Elec       q    Type
REMARK                         _______ _______ _______ _____ _____    ______ ____
ROOT
ATOM      1  C   UNL     1      32.489 -13.417 -21.910  0.00  0.00    -0.006 C 
ATOM      2  C   UNL     1      33.195 -13.869 -23.017  0.00  0.00    +0.169 C 
ATOM      3  C   UNL     1      32.660 -14.010 -20.665  0.00  0.00    -0.000 C 
ATOM      4  C   UNL     1      34.087 -14.931 -22.878  0.00  0.00    +0.206 C 
ATOM      5  C   UNL     1      33.551 -15.072 -20.526  0.00  0.00    +0.040 C 
ATOM      6  C   UNL     1      34.266 -15.533 -21.632  0.00  0.00    +0.175 C 
ENDROOT
BRANCH   2   7
ATOM      7  O   UNL     1      33.020 -13.284 -24.237  0.00  0.00    -0.469 OA
ATOM      8  C   UNL     1      33.920 -12.236 -24.586  0.00  0.00    +0.253 C 
ENDBRANCH   2   7
BRANCH   4   9
ATOM      9  O   UNL     1      34.785 -15.384 -23.959  0.00  0.00    -0.465 OA
ATOM     10  C   UNL     1      34.156 -16.379 -24.762  0.00  0.00    +0.253 C 
ENDBRANCH   4   9
BRANCH   6  11
ATOM     11  O   UNL     1      35.133 -16.572 -21.483  0.00  0.00    -0.468 OA
ATOM     12  C   UNL     1      34.566 -17.868 -21.299  0.00  0.00    +0.253 C 
ENDBRANCH   6  11
BRANCH   1  13
ATOM     13  C   UNL     1      31.522 -12.270 -22.040  0.00  0.00    -0.047 C 
BRANCH  13  14
ATOM     14  N   UNL     1      32.105 -11.012 -21.580  0.00  0.00    +0.387 N 
ATOM     15  N   UNL     1      31.972  -8.200 -20.892  0.00  0.00    +0.381 N 
ATOM     16  C   UNL     1      32.002  -9.979 -22.618  0.00  0.00    -0.101 C 
ATOM     17  C   UNL     1      31.462 -10.562 -20.338  0.00  0.00    -0.101 C 
ATOM     18  C   UNL     1      32.605  -8.659 -22.130  0.00  0.00    -0.105 C 
ATOM     19  C   UNL     1      32.067  -9.239 -19.864  0.00  0.00    -0.105 C 
ATOM     20  H   UNL     1      33.094 -11.174 -21.388  0.00  0.00    -0.079 HD
ATOM     21  H   UNL     1      30.989  -7.993 -21.071  0.00  0.00    -0.085 HD
ATOM     22  H   UNL     1      32.449  -7.360 -20.563  0.00  0.00    -0.085 HD
ENDBRANCH  13  14
ENDBRANCH   1  13
TORSDOF 5
ENDMDL
MODEL 4
REMARK VINA RESULT:      -7.3      4.140      6.784
REMARK  Name = 21109
REMARK  5 active torsions:
REMARK  status: ('A' for Active; 'I' for Inactive)
REMARK    1  A    between atoms: C_1  and  C_13
REMARK    2  A    between atoms: C_2  and  O_7
REMARK    3  A    between atoms: C_4  and  O_9
REMARK    4  A    between atoms: C_6  and  O_11
REMARK    5  A    between atoms: C_13  and  N_14
REMARK                            x       y       z     vdW  Elec       q    Type
REMARK                         _______ _______ _______ _____ _____    ______ ____
ROOT
ATOM      1  C   UNL     1      32.637 -11.956 -22.972  0.00  0.00    -0.006 C 
ATOM      2  C   UNL     1      31.984 -10.996 -22.211  0.00  0.00    +0.169 C 
ATOM      3  C   UNL     1      33.580 -11.590 -23.925  0.00  0.00    -0.000 C 
ATOM      4  C   UNL     1      32.280  -9.647 -22.404  0.00  0.00    +0.206 C 
ATOM      5  C   UNL     1      33.875 -10.241 -24.118  0.00  0.00    +0.040 C 
ATOM      6  C   UNL     1      33.226  -9.269 -23.357  0.00  0.00    +0.175 C 
ENDROOT
BRANCH   2   7
ATOM      7  O   UNL     1      31.056 -11.361 -21.280  0.00  0.00    -0.469 OA
ATOM      8  C   UNL     1      31.526 -11.585 -19.954  0.00  0.00    +0.253 C 
ENDBRANCH   2   7
BRANCH   4   9
ATOM      9  O   UNL     1      31.643  -8.694 -21.662  0.00  0.00    -0.465 OA
ATOM     10  C   UNL     1      32.348  -8.171 -20.540  0.00  0.00    +0.253 C 
ENDBRANCH   4   9
BRANCH   6  11
ATOM     11  O   UNL     1      33.522  -7.955 -23.556  0.00  0.00    -0.468 OA
ATOM     12  C   UNL     1      34.900  -7.588 -23.517  0.00  0.00    +0.253 C 
ENDBRANCH   6  11
BRANCH   1  13
ATOM     13  C   UNL     1      32.332 -13.417 -22.778  0.00  0.00    -0.047 C 
BRANCH  13  14
ATOM     14  N   UNL     1      33.511 -14.166 -22.349  0.00  0.00    +0.387 N 
ATOM     15  N   UNL     1      34.853 -16.552 -21.395  0.00  0.00    +0.381 N 
ATOM     16  C   UNL     1      33.363 -14.619 -20.959  0.00  0.00    -0.101 C 
ATOM     17  C   UNL     1      33.758 -15.307 -23.240  0.00  0.00    -0.101 C 
ATOM     18  C   UNL     1      34.595 -15.411 -20.514  0.00  0.00    -0.105 C 
ATOM     19  C   UNL     1      34.987 -16.096 -22.781  0.00  0.00    -0.105 C 
ATOM     20  H   UNL     1      34.316 -13.541 -22.397  0.00  0.00    -0.079 HD
ATOM     21  H   UNL     1      34.076 -17.210 -21.332  0.00  0.00    -0.085 HD
ATOM     22  H   UNL     1      35.718 -17.008 -21.108  0.00  0.00    -0.085 HD
ENDBRANCH  13  14
ENDBRANCH   1  13
TORSDOF 5
ENDMDL
MODEL 5
REMARK VINA RESULT:      -7.3      6.763      9.297
REMARK  Name = 21109
REMARK  5 active torsions:
REMARK  status: ('A' for Active; 'I' for Inactive)
REMARK    1  A    between atoms: C_1  and  C_13
REMARK    2  A    between atoms: C_2  and  O_7
REMARK    3  A    between atoms: C_4  and  O_9
REMARK    4  A    between atoms: C_6  and  O_11
REMARK    5  A    between atoms: C_13  and  N_14
REMARK                            x       y       z     vdW  Elec       q    Type
REMARK                         _______ _______ _______ _____ _____    ______ ____
ROOT
ATOM      1  C   UNL     1      34.526 -23.174 -15.051  0.00  0.00    -0.006 C 
ATOM      2  C   UNL     1      34.564 -23.128 -16.437  0.00  0.00    +0.169 C 
ATOM      3  C   UNL     1      33.314 -23.216 -14.372  0.00  0.00    -0.000 C 
ATOM      4  C   UNL     1      33.371 -23.126 -17.159  0.00  0.00    +0.206 C 
ATOM      5  C   UNL     1      32.122 -23.213 -15.093  0.00  0.00    +0.040 C 
ATOM      6  C   UNL     1      32.149 -23.168 -16.487  0.00  0.00    +0.175 C 
ENDROOT
BRANCH   2   7
ATOM      7  O   UNL     1      35.757 -23.083 -17.098  0.00  0.00    -0.469 OA
ATOM      8  C   UNL     1      36.383 -21.809 -17.216  0.00  0.00    +0.253 C 
ENDBRANCH   2   7
BRANCH   4   9
ATOM      9  O   UNL     1      33.396 -23.078 -18.522  0.00  0.00    -0.465 OA
ATOM     10  C   UNL     1      33.356 -21.788 -19.125  0.00  0.00    +0.253 C 
ENDBRANCH   4   9
BRANCH   6  11
ATOM     11  O   UNL     1      30.977 -23.164 -17.180  0.00  0.00    -0.468 OA
ATOM     12  C   UNL     1      29.785 -22.918 -16.436  0.00  0.00    +0.253 C 
ENDBRANCH   6  11
BRANCH   1  13
ATOM     13  C   UNL     1      35.804 -23.179 -14.254  0.00  0.00    -0.047 C 
BRANCH  13  14
ATOM     14  N   UNL     1      36.525 -24.442 -14.392  0.00  0.00    +0.387 N 
ATOM     15  N   UNL     1      38.606 -26.324 -13.663  0.00  0.00    +0.381 N 
ATOM     16  C   UNL     1      37.928 -24.204 -14.756  0.00  0.00    -0.101 C 
ATOM     17  C   UNL     1      36.439 -25.230 -13.155  0.00  0.00    -0.101 C 
ATOM     18  C   UNL     1      38.685 -25.528 -14.890  0.00  0.00    -0.105 C 
ATOM     19  C   UNL     1      37.205 -26.548 -13.298  0.00  0.00    -0.105 C 
ATOM     20  H   UNL     1      36.087 -24.976 -15.142  0.00  0.00    -0.079 HD
ATOM     21  H   UNL     1      39.075 -25.825 -12.907  0.00  0.00    -0.085 HD
ATOM     22  H   UNL     1      39.060 -27.224 -13.818  0.00  0.00    -0.085 HD
ENDBRANCH  13  14
ENDBRANCH   1  13
TORSDOF 5
ENDMDL
MODEL 6
REMARK VINA RESULT:      -7.2      2.988      6.302
REMARK  Name = 21109
REMARK  5 active torsions:
REMARK  status: ('A' for Active; 'I' for Inactive)
REMARK    1  A    between atoms: C_1  and  C_13
REMARK    2  A    between atoms: C_2  and  O_7
REMARK    3  A    between atoms: C_4  and  O_9
REMARK    4  A    between atoms: C_6  and  O_11
REMARK    5  A    between atoms: C_13  and  N_14
REMARK                            x       y       z     vdW  Elec       q    Type
REMARK                         _______ _______ _______ _____ _____    ______ ____
ROOT
ATOM      1  C   UNL     1      34.598 -18.889 -20.857  0.00  0.00    -0.006 C 
ATOM      2  C   UNL     1      35.599 -19.711 -20.357  0.00  0.00    +0.169 C 
ATOM      3  C   UNL     1      33.276 -19.318 -20.896  0.00  0.00    -0.000 C 
ATOM      4  C   UNL     1      35.274 -20.982 -19.885  0.00  0.00    +0.206 C 
ATOM      5  C   UNL     1      32.952 -20.589 -20.424  0.00  0.00    +0.040 C 
ATOM      6  C   UNL     1      33.951 -21.422 -19.918  0.00  0.00    +0.175 C 
ENDROOT
BRANCH   2   7
ATOM      7  O   UNL     1      36.894 -19.285 -20.325  0.00  0.00    -0.469 OA
ATOM      8  C   UNL     1      37.575 -19.193 -21.574  0.00  0.00    +0.253 C 
ENDBRANCH   2   7
BRANCH   4   9
ATOM      9  O   UNL     1      36.250 -21.798 -19.392  0.00  0.00    -0.465 OA
ATOM     10  C   UNL     1      36.644 -21.590 -18.038  0.00  0.00    +0.253 C 
ENDBRANCH   4   9
BRANCH   6  11
ATOM     11  O   UNL     1      33.621 -22.662 -19.462  0.00  0.00    -0.468 OA
ATOM     12  C   UNL     1      33.190 -22.760 -18.106  0.00  0.00    +0.253 C 
ENDBRANCH   6  11
BRANCH   1  13
ATOM     13  C   UNL     1      34.928 -17.513 -21.371  0.00  0.00    -0.047 C 
BRANCH  13  14
ATOM     14  N   UNL     1      34.358 -17.276 -22.695  0.00  0.00    +0.387 N 
ATOM     15  N   UNL     1      34.511 -16.419 -25.460  0.00  0.00    +0.381 N 
ATOM     16  C   UNL     1      34.434 -15.852 -23.048  0.00  0.00    -0.101 C 
ATOM     17  C   UNL     1      35.034 -18.095 -23.709  0.00  0.00    -0.101 C 
ATOM     18  C   UNL     1      33.845 -15.607 -24.439  0.00  0.00    -0.105 C 
ATOM     19  C   UNL     1      34.442 -17.837 -25.097  0.00  0.00    -0.105 C 
ATOM     20  H   UNL     1      33.375 -17.546 -22.668  0.00  0.00    -0.079 HD
ATOM     21  H   UNL     1      35.488 -16.137 -25.531  0.00  0.00    -0.085 HD
ATOM     22  H   UNL     1      34.043 -16.280 -26.356  0.00  0.00    -0.085 HD
ENDBRANCH  13  14
ENDBRANCH   1  13
TORSDOF 5
ENDMDL
MODEL 7
REMARK VINA RESULT:      -7.2      5.421      8.967
REMARK  Name = 21109
REMARK  5 active torsions:
REMARK  status: ('A' for Active; 'I' for Inactive)
REMARK    1  A    between atoms: C_1  and  C_13
REMARK    2  A    between atoms: C_2  and  O_7
REMARK    3  A    between atoms: C_4  and  O_9
REMARK    4  A    between atoms: C_6  and  O_11
REMARK    5  A    between atoms: C_13  and  N_14
REMARK                            x       y       z     vdW  Elec       q    Type
REMARK                         _______ _______ _______ _____ _____    ______ ____
ROOT
ATOM      1  C   UNL     1      33.545 -23.054 -17.509  0.00  0.00    -0.006 C 
ATOM      2  C   UNL     1      34.473 -23.151 -16.481  0.00  0.00    +0.169 C 
ATOM      3  C   UNL     1      32.182 -23.031 -17.239  0.00  0.00    -0.000 C 
ATOM      4  C   UNL     1      34.032 -23.225 -15.161  0.00  0.00    +0.206 C 
ATOM      5  C   UNL     1      31.741 -23.107 -15.919  0.00  0.00    +0.040 C 
ATOM      6  C   UNL     1      32.665 -23.203 -14.879  0.00  0.00    +0.175 C 
ENDROOT
BRANCH   2   7
ATOM      7  O   UNL     1      35.809 -23.176 -16.753  0.00  0.00    -0.469 OA
ATOM      8  C   UNL     1      36.560 -22.015 -16.409  0.00  0.00    +0.253 C 
ENDBRANCH   2   7
BRANCH   4   9
ATOM      9  O   UNL     1      34.935 -23.323 -14.142  0.00  0.00    -0.465 OA
ATOM     10  C   UNL     1      35.347 -24.635 -13.768  0.00  0.00    +0.253 C 
ENDBRANCH   4   9
BRANCH   6  11
ATOM     11  O   UNL     1      32.222 -23.278 -13.593  0.00  0.00    -0.468 OA
ATOM     12  C   UNL     1      30.895 -23.762 -13.393  0.00  0.00    +0.253 C 
ENDBRANCH   6  11
BRANCH   1  13
ATOM     13  C   UNL     1      34.002 -22.971 -18.942  0.00  0.00    -0.047 C 
BRANCH  13  14
ATOM     14  N   UNL     1      34.358 -21.605 -19.320  0.00  0.00    +0.387 N 
ATOM     15  N   UNL     1      35.047 -19.553 -21.247  0.00  0.00    +0.381 N 
ATOM     16  C   UNL     1      35.684 -21.568 -19.950  0.00  0.00    -0.101 C 
ATOM     17  C   UNL     1      33.345 -21.030 -20.215  0.00  0.00    -0.101 C 
ATOM     18  C   UNL     1      36.051 -20.138 -20.355  0.00  0.00    -0.105 C 
ATOM     19  C   UNL     1      33.726 -19.604 -20.619  0.00  0.00    -0.105 C 
ATOM     20  H   UNL     1      34.392 -21.041 -18.471  0.00  0.00    -0.079 HD
ATOM     21  H   UNL     1      35.025 -20.079 -22.121  0.00  0.00    -0.085 HD
ATOM     22  H   UNL     1      35.292 -18.580 -21.434  0.00  0.00    -0.085 HD
ENDBRANCH  13  14
ENDBRANCH   1  13
TORSDOF 5
ENDMDL
MODEL 8
REMARK VINA RESULT:      -7.1      5.677      8.330
REMARK  Name = 21109
REMARK  5 active torsions:
REMARK  status: ('A' for Active; 'I' for Inactive)
REMARK    1  A    between atoms: C_1  and  C_13
REMARK    2  A    between atoms: C_2  and  O_7
REMARK    3  A    between atoms: C_4  and  O_9
REMARK    4  A    between atoms: C_6  and  O_11
REMARK    5  A    between atoms: C_13  and  N_14
REMARK                            x       y       z     vdW  Elec       q    Type
REMARK                         _______ _______ _______ _____ _____    ______ ____
ROOT
ATOM      1  C   UNL     1      34.686 -23.064 -16.119  0.00  0.00    -0.006 C 
ATOM      2  C   UNL     1      35.532 -22.727 -17.166  0.00  0.00    +0.169 C 
ATOM      3  C   UNL     1      33.308 -23.104 -16.300  0.00  0.00    -0.000 C 
ATOM      4  C   UNL     1      34.994 -22.427 -18.417  0.00  0.00    +0.206 C 
ATOM      5  C   UNL     1      32.770 -22.803 -17.551  0.00  0.00    +0.040 C 
ATOM      6  C   UNL     1      33.613 -22.465 -18.609  0.00  0.00    +0.175 C 
ENDROOT
BRANCH   2   7
ATOM      7  O   UNL     1      36.883 -22.686 -16.980  0.00  0.00    -0.469 OA
ATOM      8  C   UNL     1      37.431 -21.465 -16.490  0.00  0.00    +0.253 C 
ENDBRANCH   2   7
BRANCH   4   9
ATOM      9  O   UNL     1      35.817 -22.092 -19.453  0.00  0.00    -0.465 OA
ATOM     10  C   UNL     1      36.102 -20.707 -19.630  0.00  0.00    +0.253 C 
ENDBRANCH   4   9
BRANCH   6  11
ATOM     11  O   UNL     1      33.075 -22.171 -19.826  0.00  0.00    -0.468 OA
ATOM     12  C   UNL     1      32.765 -20.803 -20.085  0.00  0.00    +0.253 C 
ENDBRANCH   6  11
BRANCH   1  13
ATOM     13  C   UNL     1      35.248 -23.393 -14.761  0.00  0.00    -0.047 C 
BRANCH  13  14
ATOM     14  N   UNL     1      36.314 -24.389 -14.841  0.00  0.00    +0.387 N 
ATOM     15  N   UNL     1      37.685 -26.785 -13.956  0.00  0.00    +0.381 N 
ATOM     16  C   UNL     1      37.113 -24.397 -13.609  0.00  0.00    -0.101 C 
ATOM     17  C   UNL     1      35.761 -25.724 -15.107  0.00  0.00    -0.101 C 
ATOM     18  C   UNL     1      38.223 -25.449 -13.691  0.00  0.00    -0.105 C 
ATOM     19  C   UNL     1      36.879 -26.768 -15.179  0.00  0.00    -0.105 C 
ATOM     20  H   UNL     1      36.925 -24.136 -15.617  0.00  0.00    -0.079 HD
ATOM     21  H   UNL     1      37.101 -27.075 -13.172  0.00  0.00    -0.085 HD
ATOM     22  H   UNL     1      38.458 -27.440 -14.074  0.00  0.00    -0.085 HD
ENDBRANCH  13  14
ENDBRANCH   1  13
TORSDOF 5
ENDMDL
MODEL 9
REMARK VINA RESULT:      -7.1      5.283      8.119
REMARK  Name = 21109
REMARK  5 active torsions:
REMARK  status: ('A' for Active; 'I' for Inactive)
REMARK    1  A    between atoms: C_1  and  C_13
REMARK    2  A    between atoms: C_2  and  O_7
REMARK    3  A    between atoms: C_4  and  O_9
REMARK    4  A    between atoms: C_6  and  O_11
REMARK    5  A    between atoms: C_13  and  N_14
REMARK                            x       y       z     vdW  Elec       q    Type
REMARK                         _______ _______ _______ _____ _____    ______ ____
ROOT
ATOM      1  C   UNL     1      35.309 -22.903 -16.580  0.00  0.00    -0.006 C 
ATOM      2  C   UNL     1      34.297 -22.939 -17.530  0.00  0.00    +0.169 C 
ATOM      3  C   UNL     1      36.506 -22.246 -16.839  0.00  0.00    -0.000 C 
ATOM      4  C   UNL     1      34.484 -22.306 -18.759  0.00  0.00    +0.206 C 
ATOM      5  C   UNL     1      36.693 -21.615 -18.067  0.00  0.00    +0.040 C 
ATOM      6  C   UNL     1      35.682 -21.644 -19.028  0.00  0.00    +0.175 C 
ENDROOT
BRANCH   2   7
ATOM      7  O   UNL     1      33.126 -23.588 -17.271  0.00  0.00    -0.469 OA
ATOM      8  C   UNL     1      32.058 -22.807 -16.742  0.00  0.00    +0.253 C 
ENDBRANCH   2   7
BRANCH   4   9
ATOM      9  O   UNL     1      33.497 -22.337 -19.700  0.00  0.00    -0.465 OA
ATOM     10  C   UNL     1      32.839 -21.106 -19.987  0.00  0.00    +0.253 C 
ENDBRANCH   4   9
BRANCH   6  11
ATOM     11  O   UNL     1      35.878 -21.025 -20.225  0.00  0.00    -0.468 OA
ATOM     12  C   UNL     1      36.730 -19.881 -20.231  0.00  0.00    +0.253 C 
ENDBRANCH   6  11
BRANCH   1  13
ATOM     13  C   UNL     1      35.126 -23.578 -15.247  0.00  0.00    -0.047 C 
BRANCH  13  14
ATOM     14  N   UNL     1      36.269 -24.422 -14.904  0.00  0.00    +0.387 N 
ATOM     15  N   UNL     1      37.557 -26.548 -13.414  0.00  0.00    +0.381 N 
ATOM     16  C   UNL     1      36.642 -24.245 -13.495  0.00  0.00    -0.101 C 
ATOM     17  C   UNL     1      35.980 -25.833 -15.188  0.00  0.00    -0.101 C 
ATOM     18  C   UNL     1      37.833 -25.137 -13.134  0.00  0.00    -0.105 C 
ATOM     19  C   UNL     1      37.174 -26.716 -14.818  0.00  0.00    -0.105 C 
ATOM     20  H   UNL     1      37.058 -24.134 -15.482  0.00  0.00    -0.079 HD
ATOM     21  H   UNL     1      36.796 -26.868 -12.817  0.00  0.00    -0.085 HD
ATOM     22  H   UNL     1      38.397 -27.097 -13.229  0.00  0.00    -0.085 HD
ENDBRANCH  13  14
ENDBRANCH   1  13
TORSDOF 5
ENDMDL
