MODEL 1
REMARK VINA RESULT:     -12.1      0.000      0.000
REMARK  Name = 90311989
REMARK  4 active torsions:
REMARK  status: ('A' for Active; 'I' for Inactive)
REMARK    1  A    between atoms: C_16  and  O_33
REMARK    2  A    between atoms: C_17  and  C_21
REMARK    3  A    between atoms: N_20  and  C_23
REMARK    4  A    between atoms: C_23  and  C_27
REMARK                            x       y       z     vdW  Elec       q    Type
REMARK                         _______ _______ _______ _____ _____    ______ ____
ROOT
ATOM      1  O   UNL     1      33.658  -9.255 -24.408  0.00  0.00    -0.339 OA
ATOM      2  O   UNL     1      30.939 -11.399 -21.179  0.00  0.00    -0.268 OA
ATOM      3  O   UNL     1      33.052 -16.030 -21.020  0.00  0.00    -0.283 OA
ATOM      4  N   UNL     1      32.334 -10.305 -22.664  0.00  0.00    -0.253 N 
ATOM      5  N   UNL     1      33.425 -12.780 -23.415  0.00  0.00    -0.275 N 
ATOM      6  C   UNL     1      31.783  -8.976 -22.359  0.00  0.00    +0.080 C 
ATOM      7  C   UNL     1      33.139  -8.001 -23.955  0.00  0.00    +0.119 C 
ATOM      8  C   UNL     1      31.663  -8.186 -23.653  0.00  0.00    +0.049 C 
ATOM      9  C   UNL     1      32.804  -8.159 -21.555  0.00  0.00    +0.022 C 
ATOM     10  C   UNL     1      33.750  -7.572 -22.615  0.00  0.00    +0.031 C 
ATOM     11  C   UNL     1      33.543 -10.356 -23.492  0.00  0.00    +0.215 C 
ATOM     12  C   UNL     1      33.548 -11.635 -24.310  0.00  0.00    +0.147 C 
ATOM     13  C   UNL     1      31.877 -11.431 -21.975  0.00  0.00    +0.267 C 
ATOM     14  C   UNL     1      32.606 -12.721 -22.279  0.00  0.00    +0.143 C 
ATOM     15  C   UNL     1      34.065 -13.974 -23.717  0.00  0.00    +0.074 C 
ATOM     16  C   UNL     1      32.443 -13.772 -21.445  0.00  0.00    +0.191 C 
ATOM     17  C   UNL     1      33.992 -15.090 -22.983  0.00  0.00    +0.110 C 
ATOM     18  C   UNL     1      33.157 -15.053 -21.753  0.00  0.00    +0.236 C 
ENDROOT
BRANCH  17  21
ATOM     19  O   UNL     1      34.870 -16.519 -24.628  0.00  0.00    -0.270 OA
ATOM     20  N   UNL     1      35.215 -17.037 -22.381  0.00  0.00    -0.297 N 
ATOM     21  C   UNL     1      34.728 -16.273 -23.429  0.00  0.00    +0.251 C 
ATOM     22  H   UNL     1      35.035 -16.735 -21.461  0.00  0.00    +0.150 HD
BRANCH  20  23
ATOM     23  C   UNL     1      35.974 -18.254 -22.567  0.00  0.00    +0.121 C 
BRANCH  23  27
ATOM     24  F   UNL     1      37.974 -19.365 -20.904  0.00  0.00    -0.204 F 
ATOM     25  F   UNL     1      33.368 -19.220 -22.044  0.00  0.00    -0.204 F 
ATOM     26  F   UNL     1      34.865 -22.062 -18.572  0.00  0.00    -0.204 F 
ATOM     27  C   UNL     1      35.678 -19.268 -21.501  0.00  0.00    +0.053 C 
ATOM     28  C   UNL     1      36.713 -19.777 -20.716  0.00  0.00    +0.142 C 
ATOM     29  C   UNL     1      34.369 -19.703 -21.295  0.00  0.00    +0.142 C 
ATOM     30  C   UNL     1      36.438 -20.721 -19.726  0.00  0.00    +0.059 C 
ATOM     31  C   UNL     1      34.094 -20.646 -20.306  0.00  0.00    +0.059 C 
ATOM     32  C   UNL     1      35.129 -21.155 -19.522  0.00  0.00    +0.145 C 
ENDBRANCH  23  27
ENDBRANCH  20  23
ENDBRANCH  17  21
BRANCH  16  33
ATOM     33  O   UNL     1      31.666 -13.745 -20.308  0.00  0.00    -0.502 OA
ATOM     34  H   UNL     1      31.975 -13.304 -19.541  0.00  0.00    +0.292 HD
ENDBRANCH  16  33
TORSDOF 4
ENDMDL
MODEL 2
REMARK VINA RESULT:     -11.8      5.078     11.288
REMARK  Name = 90311989
REMARK  4 active torsions:
REMARK  status: ('A' for Active; 'I' for Inactive)
REMARK    1  A    between atoms: C_16  and  O_33
REMARK    2  A    between atoms: C_17  and  C_21
REMARK    3  A    between atoms: N_20  and  C_23
REMARK    4  A    between atoms: C_23  and  C_27
REMARK                            x       y       z     vdW  Elec       q    Type
REMARK                         _______ _______ _______ _____ _____    ______ ____
ROOT
ATOM      1  O   UNL     1      37.952 -23.299 -14.899  0.00  0.00    -0.339 OA
ATOM      2  O   UNL     1      33.520 -23.389 -16.560  0.00  0.00    -0.268 OA
ATOM      3  O   UNL     1      34.065 -20.914 -20.978  0.00  0.00    -0.283 OA
ATOM      4  N   UNL     1      35.701 -23.458 -15.796  0.00  0.00    -0.253 N 
ATOM      5  N   UNL     1      36.405 -21.547 -17.728  0.00  0.00    -0.275 N 
ATOM      6  C   UNL     1      35.403 -24.425 -14.729  0.00  0.00    +0.080 C 
ATOM      7  C   UNL     1      37.585 -24.327 -13.973  0.00  0.00    +0.119 C 
ATOM      8  C   UNL     1      36.179 -24.032 -13.481  0.00  0.00    +0.049 C 
ATOM      9  C   UNL     1      36.000 -25.794 -15.083  0.00  0.00    +0.022 C 
ATOM     10  C   UNL     1      37.470 -25.700 -14.647  0.00  0.00    +0.031 C 
ATOM     11  C   UNL     1      37.113 -23.161 -16.058  0.00  0.00    +0.215 C 
ATOM     12  C   UNL     1      37.251 -21.733 -16.554  0.00  0.00    +0.147 C 
ATOM     13  C   UNL     1      34.699 -23.057 -16.682  0.00  0.00    +0.267 C 
ATOM     14  C   UNL     1      35.149 -22.163 -17.816  0.00  0.00    +0.143 C 
ATOM     15  C   UNL     1      36.806 -20.697 -18.749  0.00  0.00    +0.074 C 
ATOM     16  C   UNL     1      34.326 -21.989 -18.874  0.00  0.00    +0.191 C 
ATOM     17  C   UNL     1      36.094 -20.432 -19.851  0.00  0.00    +0.110 C 
ATOM     18  C   UNL     1      34.770 -21.094 -19.991  0.00  0.00    +0.236 C 
ENDROOT
BRANCH  17  21
ATOM     19  O   UNL     1      37.869 -19.411 -21.000  0.00  0.00    -0.270 OA
ATOM     20  N   UNL     1      35.680 -18.815 -21.543  0.00  0.00    -0.297 N 
ATOM     21  C   UNL     1      36.651 -19.513 -20.843  0.00  0.00    +0.251 C 
ATOM     22  H   UNL     1      34.736 -18.986 -21.325  0.00  0.00    +0.150 HD
BRANCH  20  23
ATOM     23  C   UNL     1      35.982 -17.849 -22.575  0.00  0.00    +0.121 C 
BRANCH  23  27
ATOM     24  F   UNL     1      35.071 -16.519 -20.251  0.00  0.00    -0.204 F 
ATOM     25  F   UNL     1      34.833 -16.897 -24.977  0.00  0.00    -0.204 F 
ATOM     26  F   UNL     1      32.206 -13.676 -22.718  0.00  0.00    -0.204 F 
ATOM     27  C   UNL     1      34.976 -16.736 -22.613  0.00  0.00    +0.053 C 
ATOM     28  C   UNL     1      34.569 -16.122 -21.428  0.00  0.00    +0.142 C 
ATOM     29  C   UNL     1      34.447 -16.314 -23.833  0.00  0.00    +0.142 C 
ATOM     30  C   UNL     1      33.633 -15.088 -21.464  0.00  0.00    +0.059 C 
ATOM     31  C   UNL     1      33.513 -15.280 -23.869  0.00  0.00    +0.059 C 
ATOM     32  C   UNL     1      33.105 -14.668 -22.684  0.00  0.00    +0.145 C 
ENDBRANCH  23  27
ENDBRANCH  20  23
ENDBRANCH  17  21
BRANCH  16  33
ATOM     33  O   UNL     1      33.096 -22.594 -19.005  0.00  0.00    -0.502 OA
ATOM     34  H   UNL     1      32.445 -22.479 -18.341  0.00  0.00    +0.292 HD
ENDBRANCH  16  33
TORSDOF 4
ENDMDL
MODEL 3
REMARK VINA RESULT:     -11.8      5.902     12.077
REMARK  Name = 90311989
REMARK  4 active torsions:
REMARK  status: ('A' for Active; 'I' for Inactive)
REMARK    1  A    between atoms: C_16  and  O_33
REMARK    2  A    between atoms: C_17  and  C_21
REMARK    3  A    between atoms: N_20  and  C_23
REMARK    4  A    between atoms: C_23  and  C_27
REMARK                            x       y       z     vdW  Elec       q    Type
REMARK                         _______ _______ _______ _____ _____    ______ ____
ROOT
ATOM      1  O   UNL     1      38.624 -23.843 -14.198  0.00  0.00    -0.339 OA
ATOM      2  O   UNL     1      33.891 -23.954 -14.270  0.00  0.00    -0.268 OA
ATOM      3  O   UNL     1      32.934 -22.405 -19.026  0.00  0.00    -0.283 OA
ATOM      4  N   UNL     1      36.202 -24.020 -14.261  0.00  0.00    -0.253 N 
ATOM      5  N   UNL     1      36.222 -22.562 -16.660  0.00  0.00    -0.275 N 
ATOM      6  C   UNL     1      36.278 -24.746 -12.984  0.00  0.00    +0.080 C 
ATOM      7  C   UNL     1      38.586 -24.650 -13.017  0.00  0.00    +0.119 C 
ATOM      8  C   UNL     1      37.424 -24.175 -12.163  0.00  0.00    +0.049 C 
ATOM      9  C   UNL     1      36.724 -26.193 -13.231  0.00  0.00    +0.022 C 
ATOM     10  C   UNL     1      38.256 -26.115 -13.326  0.00  0.00    +0.031 C 
ATOM     11  C   UNL     1      37.447 -23.872 -15.023  0.00  0.00    +0.215 C 
ATOM     12  C   UNL     1      37.411 -22.576 -15.813  0.00  0.00    +0.147 C 
ATOM     13  C   UNL     1      34.962 -23.730 -14.833  0.00  0.00    +0.267 C 
ATOM     14  C   UNL     1      35.009 -23.099 -16.208  0.00  0.00    +0.143 C 
ATOM     15  C   UNL     1      36.260 -21.949 -17.904  0.00  0.00    +0.074 C 
ATOM     16  C   UNL     1      33.881 -23.075 -16.951  0.00  0.00    +0.191 C 
ATOM     17  C   UNL     1      35.221 -21.852 -18.742  0.00  0.00    +0.110 C 
ATOM     18  C   UNL     1      33.927 -22.440 -18.308  0.00  0.00    +0.236 C 
ENDROOT
BRANCH  17  21
ATOM     19  O   UNL     1      36.459 -21.319 -20.667  0.00  0.00    -0.270 OA
ATOM     20  N   UNL     1      34.331 -20.401 -20.401  0.00  0.00    -0.297 N 
ATOM     21  C   UNL     1      35.416 -21.177 -20.026  0.00  0.00    +0.251 C 
ATOM     22  H   UNL     1      33.552 -20.368 -19.801  0.00  0.00    +0.150 HD
BRANCH  20  23
ATOM     23  C   UNL     1      34.285 -19.637 -21.628  0.00  0.00    +0.121 C 
BRANCH  23  27
ATOM     24  F   UNL     1      36.261 -17.696 -22.201  0.00  0.00    -0.204 F 
ATOM     25  F   UNL     1      31.906 -18.576 -20.527  0.00  0.00    -0.204 F 
ATOM     26  F   UNL     1      33.548 -14.141 -20.656  0.00  0.00    -0.204 F 
ATOM     27  C   UNL     1      34.088 -18.172 -21.370  0.00  0.00    +0.053 C 
ATOM     28  C   UNL     1      35.105 -17.267 -21.675  0.00  0.00    +0.142 C 
ATOM     29  C   UNL     1      32.889 -17.714 -20.824  0.00  0.00    +0.142 C 
ATOM     30  C   UNL     1      34.922 -15.905 -21.434  0.00  0.00    +0.059 C 
ATOM     31  C   UNL     1      32.706 -16.353 -20.583  0.00  0.00    +0.059 C 
ATOM     32  C   UNL     1      33.723 -15.449 -20.888  0.00  0.00    +0.145 C 
ENDBRANCH  23  27
ENDBRANCH  20  23
ENDBRANCH  17  21
BRANCH  16  33
ATOM     33  O   UNL     1      32.678 -23.612 -16.550  0.00  0.00    -0.502 OA
ATOM     34  H   UNL     1      32.644 -24.178 -15.804  0.00  0.00    +0.292 HD
ENDBRANCH  16  33
TORSDOF 4
ENDMDL
MODEL 4
REMARK VINA RESULT:     -11.8      5.901     12.159
REMARK  Name = 90311989
REMARK  4 active torsions:
REMARK  status: ('A' for Active; 'I' for Inactive)
REMARK    1  A    between atoms: C_16  and  O_33
REMARK    2  A    between atoms: C_17  and  C_21
REMARK    3  A    between atoms: N_20  and  C_23
REMARK    4  A    between atoms: C_23  and  C_27
REMARK                            x       y       z     vdW  Elec       q    Type
REMARK                         _______ _______ _______ _____ _____    ______ ____
ROOT
ATOM      1  O   UNL     1      38.673 -23.854 -14.207  0.00  0.00    -0.339 OA
ATOM      2  O   UNL     1      33.943 -24.010 -14.309  0.00  0.00    -0.268 OA
ATOM      3  O   UNL     1      32.997 -22.371 -19.037  0.00  0.00    -0.283 OA
ATOM      4  N   UNL     1      36.254 -24.054 -14.288  0.00  0.00    -0.253 N 
ATOM      5  N   UNL     1      36.273 -22.546 -16.655  0.00  0.00    -0.275 N 
ATOM      6  C   UNL     1      36.330 -24.805 -13.026  0.00  0.00    +0.080 C 
ATOM      7  C   UNL     1      38.637 -24.685 -13.043  0.00  0.00    +0.119 C 
ATOM      8  C   UNL     1      37.465 -24.240 -12.186  0.00  0.00    +0.049 C 
ATOM      9  C   UNL     1      36.791 -26.242 -13.300  0.00  0.00    +0.022 C 
ATOM     10  C   UNL     1      38.323 -26.147 -13.384  0.00  0.00    +0.031 C 
ATOM     11  C   UNL     1      37.501 -23.877 -15.039  0.00  0.00    +0.215 C 
ATOM     12  C   UNL     1      37.457 -22.566 -15.802  0.00  0.00    +0.147 C 
ATOM     13  C   UNL     1      35.015 -23.764 -14.861  0.00  0.00    +0.267 C 
ATOM     14  C   UNL     1      35.063 -23.104 -16.222  0.00  0.00    +0.143 C 
ATOM     15  C   UNL     1      36.312 -21.906 -17.886  0.00  0.00    +0.074 C 
ATOM     16  C   UNL     1      33.939 -23.076 -16.971  0.00  0.00    +0.191 C 
ATOM     17  C   UNL     1      35.277 -21.802 -18.729  0.00  0.00    +0.110 C 
ATOM     18  C   UNL     1      33.986 -22.412 -18.314  0.00  0.00    +0.236 C 
ENDROOT
BRANCH  17  21
ATOM     19  O   UNL     1      36.550 -21.149 -20.592  0.00  0.00    -0.270 OA
ATOM     20  N   UNL     1      34.346 -20.408 -20.413  0.00  0.00    -0.297 N 
ATOM     21  C   UNL     1      35.472 -21.098 -19.997  0.00  0.00    +0.251 C 
ATOM     22  H   UNL     1      33.541 -20.444 -19.848  0.00  0.00    +0.150 HD
BRANCH  20  23
ATOM     23  C   UNL     1      34.291 -19.636 -21.634  0.00  0.00    +0.121 C 
BRANCH  23  27
ATOM     24  F   UNL     1      31.890 -18.598 -20.559  0.00  0.00    -0.204 F 
ATOM     25  F   UNL     1      36.264 -17.679 -22.160  0.00  0.00    -0.204 F 
ATOM     26  F   UNL     1      33.505 -14.152 -20.633  0.00  0.00    -0.204 F 
ATOM     27  C   UNL     1      34.082 -18.175 -21.366  0.00  0.00    +0.053 C 
ATOM     28  C   UNL     1      32.872 -17.728 -20.835  0.00  0.00    +0.142 C 
ATOM     29  C   UNL     1      35.097 -17.260 -21.649  0.00  0.00    +0.142 C 
ATOM     30  C   UNL     1      32.677 -16.369 -20.587  0.00  0.00    +0.059 C 
ATOM     31  C   UNL     1      34.903 -15.902 -21.401  0.00  0.00    +0.059 C 
ATOM     32  C   UNL     1      33.693 -15.457 -20.871  0.00  0.00    +0.145 C 
ENDBRANCH  23  27
ENDBRANCH  20  23
ENDBRANCH  17  21
BRANCH  16  33
ATOM     33  O   UNL     1      32.739 -23.632 -16.588  0.00  0.00    -0.502 OA
ATOM     34  H   UNL     1      32.123 -23.910 -17.238  0.00  0.00    +0.292 HD
ENDBRANCH  16  33
TORSDOF 4
ENDMDL
MODEL 5
REMARK VINA RESULT:     -11.5      6.406     12.341
REMARK  Name = 90311989
REMARK  4 active torsions:
REMARK  status: ('A' for Active; 'I' for Inactive)
REMARK    1  A    between atoms: C_16  and  O_33
REMARK    2  A    between atoms: C_17  and  C_21
REMARK    3  A    between atoms: N_20  and  C_23
REMARK    4  A    between atoms: C_23  and  C_27
REMARK                            x       y       z     vdW  Elec       q    Type
REMARK                         _______ _______ _______ _____ _____    ______ ____
ROOT
ATOM      1  O   UNL     1      38.638 -23.984 -14.348  0.00  0.00    -0.339 OA
ATOM      2  O   UNL     1      34.083 -23.946 -13.056  0.00  0.00    -0.268 OA
ATOM      3  O   UNL     1      31.797 -23.005 -17.509  0.00  0.00    -0.283 OA
ATOM      4  N   UNL     1      36.301 -24.087 -13.696  0.00  0.00    -0.253 N 
ATOM      5  N   UNL     1      35.625 -22.958 -16.175  0.00  0.00    -0.275 N 
ATOM      6  C   UNL     1      36.742 -24.641 -12.406  0.00  0.00    +0.080 C 
ATOM      7  C   UNL     1      38.945 -24.626 -13.106  0.00  0.00    +0.119 C 
ATOM      8  C   UNL     1      38.072 -24.005 -12.030  0.00  0.00    +0.049 C 
ATOM      9  C   UNL     1      37.108 -26.122 -12.571  0.00  0.00    +0.022 C 
ATOM     10  C   UNL     1      38.548 -26.108 -13.107  0.00  0.00    +0.031 C 
ATOM     11  C   UNL     1      37.275 -24.081 -14.792  0.00  0.00    +0.215 C 
ATOM     12  C   UNL     1      37.006 -22.901 -15.707  0.00  0.00    +0.147 C 
ATOM     13  C   UNL     1      34.947 -23.834 -13.925  0.00  0.00    +0.267 C 
ATOM     14  C   UNL     1      34.595 -23.391 -15.329  0.00  0.00    +0.143 C 
ATOM     15  C   UNL     1      35.302 -22.516 -17.450  0.00  0.00    +0.074 C 
ATOM     16  C   UNL     1      33.302 -23.428 -15.717  0.00  0.00    +0.191 C 
ATOM     17  C   UNL     1      34.067 -22.495 -17.964  0.00  0.00    +0.110 C 
ATOM     18  C   UNL     1      32.954 -22.978 -17.104  0.00  0.00    +0.236 C 
ENDROOT
BRANCH  17  21
ATOM     19  O   UNL     1      32.859 -22.260 -19.965  0.00  0.00    -0.270 OA
ATOM     20  N   UNL     1      34.952 -21.249 -19.784  0.00  0.00    -0.297 N 
ATOM     21  C   UNL     1      33.882 -22.002 -19.329  0.00  0.00    +0.251 C 
ATOM     22  H   UNL     1      35.717 -21.113 -19.178  0.00  0.00    +0.150 HD
BRANCH  20  23
ATOM     23  C   UNL     1      35.006 -20.653 -21.100  0.00  0.00    +0.121 C 
BRANCH  23  27
ATOM     24  F   UNL     1      36.934 -18.591 -21.283  0.00  0.00    -0.204 F 
ATOM     25  F   UNL     1      32.344 -19.730 -20.863  0.00  0.00    -0.204 F 
ATOM     26  F   UNL     1      33.660 -15.188 -20.992  0.00  0.00    -0.204 F 
ATOM     27  C   UNL     1      34.648 -19.197 -21.073  0.00  0.00    +0.053 C 
ATOM     28  C   UNL     1      35.648 -18.229 -21.166  0.00  0.00    +0.142 C 
ATOM     29  C   UNL     1      33.313 -18.808 -20.953  0.00  0.00    +0.142 C 
ATOM     30  C   UNL     1      35.315 -16.875 -21.139  0.00  0.00    +0.059 C 
ATOM     31  C   UNL     1      32.980 -17.455 -20.927  0.00  0.00    +0.059 C 
ATOM     32  C   UNL     1      33.980 -16.488 -21.019  0.00  0.00    +0.145 C 
ENDBRANCH  23  27
ENDBRANCH  20  23
ENDBRANCH  17  21
BRANCH  16  33
ATOM     33  O   UNL     1      32.267 -23.867 -14.922  0.00  0.00    -0.502 OA
ATOM     34  H   UNL     1      31.398 -23.544 -15.064  0.00  0.00    +0.292 HD
ENDBRANCH  16  33
TORSDOF 4
ENDMDL
MODEL 6
REMARK VINA RESULT:     -11.3      4.219      9.961
REMARK  Name = 90311989
REMARK  4 active torsions:
REMARK  status: ('A' for Active; 'I' for Inactive)
REMARK    1  A    between atoms: C_16  and  O_33
REMARK    2  A    between atoms: C_17  and  C_21
REMARK    3  A    between atoms: N_20  and  C_23
REMARK    4  A    between atoms: C_23  and  C_27
REMARK                            x       y       z     vdW  Elec       q    Type
REMARK                         _______ _______ _______ _____ _____    ______ ____
ROOT
ATOM      1  O   UNL     1      34.209 -17.725 -20.672  0.00  0.00    -0.339 OA
ATOM      2  O   UNL     1      34.229 -16.517 -25.250  0.00  0.00    -0.268 OA
ATOM      3  O   UNL     1      33.127 -11.553 -24.972  0.00  0.00    -0.283 OA
ATOM      4  N   UNL     1      34.341 -17.092 -23.013  0.00  0.00    -0.253 N 
ATOM      5  N   UNL     1      33.122 -14.651 -22.357  0.00  0.00    -0.275 N 
ATOM      6  C   UNL     1      34.941 -18.409 -23.278  0.00  0.00    +0.080 C 
ATOM      7  C   UNL     1      34.896 -18.929 -21.027  0.00  0.00    +0.119 C 
ATOM      8  C   UNL     1      34.317 -19.430 -22.338  0.00  0.00    +0.049 C 
ATOM      9  C   UNL     1      36.415 -18.407 -22.849  0.00  0.00    +0.022 C 
ATOM     10  C   UNL     1      36.378 -18.680 -21.337  0.00  0.00    +0.031 C 
ATOM     11  C   UNL     1      34.293 -16.645 -21.617  0.00  0.00    +0.215 C 
ATOM     12  C   UNL     1      33.079 -15.758 -21.407  0.00  0.00    +0.147 C 
ATOM     13  C   UNL     1      34.082 -16.213 -24.067  0.00  0.00    +0.267 C 
ATOM     14  C   UNL     1      33.588 -14.841 -23.665  0.00  0.00    +0.143 C 
ATOM     15  C   UNL     1      32.633 -13.403 -21.995  0.00  0.00    +0.074 C 
ATOM     16  C   UNL     1      33.613 -13.847 -24.579  0.00  0.00    +0.191 C 
ATOM     17  C   UNL     1      32.596 -12.333 -22.797  0.00  0.00    +0.110 C 
ATOM     18  C   UNL     1      33.113 -12.491 -24.182  0.00  0.00    +0.236 C 
ENDROOT
BRANCH  17  21
ATOM     19  O   UNL     1      31.015 -11.067 -21.606  0.00  0.00    -0.270 OA
ATOM     20  N   UNL     1      32.817  -9.974 -22.604  0.00  0.00    -0.297 N 
ATOM     21  C   UNL     1      32.052 -11.080 -22.272  0.00  0.00    +0.251 C 
ATOM     22  H   UNL     1      33.629 -10.114 -23.144  0.00  0.00    +0.150 HD
BRANCH  20  23
ATOM     23  C   UNL     1      32.486  -8.626 -22.202  0.00  0.00    +0.121 C 
BRANCH  23  27
ATOM     24  F   UNL     1      35.066  -8.197 -23.281  0.00  0.00    -0.204 F 
ATOM     25  F   UNL     1      30.468  -7.018 -23.358  0.00  0.00    -0.204 F 
ATOM     26  F   UNL     1      33.513  -4.891 -26.287  0.00  0.00    -0.204 F 
ATOM     27  C   UNL     1      32.760  -7.631 -23.292  0.00  0.00    +0.053 C 
ATOM     28  C   UNL     1      34.057  -7.468 -23.779  0.00  0.00    +0.142 C 
ATOM     29  C   UNL     1      31.717  -6.868 -23.819  0.00  0.00    +0.142 C 
ATOM     30  C   UNL     1      34.311  -6.542 -24.791  0.00  0.00    +0.059 C 
ATOM     31  C   UNL     1      31.972  -5.943 -24.831  0.00  0.00    +0.059 C 
ATOM     32  C   UNL     1      33.268  -5.780 -25.316  0.00  0.00    +0.145 C 
ENDBRANCH  23  27
ENDBRANCH  20  23
ENDBRANCH  17  21
BRANCH  16  33
ATOM     33  O   UNL     1      34.084 -13.990 -25.866  0.00  0.00    -0.502 OA
ATOM     34  H   UNL     1      35.004 -14.080 -26.020  0.00  0.00    +0.292 HD
ENDBRANCH  16  33
TORSDOF 4
ENDMDL
MODEL 7
REMARK VINA RESULT:     -11.2      4.218     10.062
REMARK  Name = 90311989
REMARK  4 active torsions:
REMARK  status: ('A' for Active; 'I' for Inactive)
REMARK    1  A    between atoms: C_16  and  O_33
REMARK    2  A    between atoms: C_17  and  C_21
REMARK    3  A    between atoms: N_20  and  C_23
REMARK    4  A    between atoms: C_23  and  C_27
REMARK                            x       y       z     vdW  Elec       q    Type
REMARK                         _______ _______ _______ _____ _____    ______ ____
ROOT
ATOM      1  O   UNL     1      34.232 -17.734 -20.669  0.00  0.00    -0.339 OA
ATOM      2  O   UNL     1      34.211 -16.529 -25.247  0.00  0.00    -0.268 OA
ATOM      3  O   UNL     1      33.133 -11.560 -24.961  0.00  0.00    -0.283 OA
ATOM      4  N   UNL     1      34.344 -17.103 -23.011  0.00  0.00    -0.253 N 
ATOM      5  N   UNL     1      33.142 -14.656 -22.344  0.00  0.00    -0.275 N 
ATOM      6  C   UNL     1      34.936 -18.422 -23.281  0.00  0.00    +0.080 C 
ATOM      7  C   UNL     1      34.911 -18.941 -21.029  0.00  0.00    +0.119 C 
ATOM      8  C   UNL     1      34.317 -19.440 -22.334  0.00  0.00    +0.049 C 
ATOM      9  C   UNL     1      36.413 -18.426 -22.866  0.00  0.00    +0.022 C 
ATOM     10  C   UNL     1      36.390 -18.698 -21.354  0.00  0.00    +0.031 C 
ATOM     11  C   UNL     1      34.311 -16.655 -21.615  0.00  0.00    +0.215 C 
ATOM     12  C   UNL     1      33.103 -15.763 -21.393  0.00  0.00    +0.147 C 
ATOM     13  C   UNL     1      34.078 -16.223 -24.062  0.00  0.00    +0.267 C 
ATOM     14  C   UNL     1      33.594 -14.849 -23.656  0.00  0.00    +0.143 C 
ATOM     15  C   UNL     1      32.661 -13.406 -21.978  0.00  0.00    +0.074 C 
ATOM     16  C   UNL     1      33.613 -13.855 -24.572  0.00  0.00    +0.191 C 
ATOM     17  C   UNL     1      32.621 -12.336 -22.781  0.00  0.00    +0.110 C 
ATOM     18  C   UNL     1      33.123 -12.497 -24.171  0.00  0.00    +0.236 C 
ENDROOT
BRANCH  17  21
ATOM     19  O   UNL     1      31.068 -11.065 -21.559  0.00  0.00    -0.270 OA
ATOM     20  N   UNL     1      32.842  -9.976 -22.610  0.00  0.00    -0.297 N 
ATOM     21  C   UNL     1      32.088 -11.081 -22.250  0.00  0.00    +0.251 C 
ATOM     22  H   UNL     1      33.640 -10.118 -23.169  0.00  0.00    +0.150 HD
BRANCH  20  23
ATOM     23  C   UNL     1      32.518  -8.625 -22.209  0.00  0.00    +0.121 C 
BRANCH  23  27
ATOM     24  F   UNL     1      30.491  -7.018 -23.354  0.00  0.00    -0.204 F 
ATOM     25  F   UNL     1      35.087  -8.203 -23.310  0.00  0.00    -0.204 F 
ATOM     26  F   UNL     1      33.513  -4.914 -26.324  0.00  0.00    -0.204 F 
ATOM     27  C   UNL     1      32.783  -7.635 -23.305  0.00  0.00    +0.053 C 
ATOM     28  C   UNL     1      31.737  -6.874 -23.827  0.00  0.00    +0.142 C 
ATOM     29  C   UNL     1      34.076  -7.476 -23.804  0.00  0.00    +0.142 C 
ATOM     30  C   UNL     1      31.983  -5.954 -24.846  0.00  0.00    +0.059 C 
ATOM     31  C   UNL     1      34.323  -6.556 -24.823  0.00  0.00    +0.059 C 
ATOM     32  C   UNL     1      33.276  -5.796 -25.345  0.00  0.00    +0.145 C 
ENDBRANCH  23  27
ENDBRANCH  20  23
ENDBRANCH  17  21
BRANCH  16  33
ATOM     33  O   UNL     1      34.071 -14.001 -25.863  0.00  0.00    -0.502 OA
ATOM     34  H   UNL     1      34.138 -13.253 -26.423  0.00  0.00    +0.292 HD
ENDBRANCH  16  33
TORSDOF 4
ENDMDL
MODEL 8
REMARK VINA RESULT:     -10.9      7.552     13.080
REMARK  Name = 90311989
REMARK  4 active torsions:
REMARK  status: ('A' for Active; 'I' for Inactive)
REMARK    1  A    between atoms: C_16  and  O_33
REMARK    2  A    between atoms: C_17  and  C_21
REMARK    3  A    between atoms: N_20  and  C_23
REMARK    4  A    between atoms: C_23  and  C_27
REMARK                            x       y       z     vdW  Elec       q    Type
REMARK                         _______ _______ _______ _____ _____    ______ ____
ROOT
ATOM      1  O   UNL     1      38.519 -23.855 -14.288  0.00  0.00    -0.339 OA
ATOM      2  O   UNL     1      34.632 -24.889 -11.790  0.00  0.00    -0.268 OA
ATOM      3  O   UNL     1      30.987 -24.122 -15.264  0.00  0.00    -0.283 OA
ATOM      4  N   UNL     1      36.543 -24.504 -13.033  0.00  0.00    -0.253 N 
ATOM      5  N   UNL     1      34.963 -23.361 -15.052  0.00  0.00    -0.275 N 
ATOM      6  C   UNL     1      37.443 -25.047 -12.004  0.00  0.00    +0.080 C 
ATOM      7  C   UNL     1      39.294 -24.510 -13.279  0.00  0.00    +0.119 C 
ATOM      8  C   UNL     1      38.686 -24.173 -11.929  0.00  0.00    +0.049 C 
ATOM      9  C   UNL     1      38.006 -26.399 -12.462  0.00  0.00    +0.022 C 
ATOM     10  C   UNL     1      39.192 -26.038 -13.370  0.00  0.00    +0.031 C 
ATOM     11  C   UNL     1      37.127 -24.208 -14.346  0.00  0.00    +0.215 C 
ATOM     12  C   UNL     1      36.387 -23.045 -14.982  0.00  0.00    +0.147 C 
ATOM     13  C   UNL     1      35.161 -24.529 -12.842  0.00  0.00    +0.267 C 
ATOM     14  C   UNL     1      34.331 -24.066 -14.019  0.00  0.00    +0.143 C 
ATOM     15  C   UNL     1      34.199 -22.902 -16.115  0.00  0.00    +0.074 C 
ATOM     16  C   UNL     1      33.009 -24.348 -14.035  0.00  0.00    +0.191 C 
ATOM     17  C   UNL     1      32.884 -23.106 -16.258  0.00  0.00    +0.110 C 
ATOM     18  C   UNL     1      32.187 -23.879 -15.197  0.00  0.00    +0.236 C 
ENDROOT
BRANCH  17  21
ATOM     19  O   UNL     1      30.988 -22.435 -17.471  0.00  0.00    -0.270 OA
ATOM     20  N   UNL     1      33.091 -22.227 -18.456  0.00  0.00    -0.297 N 
ATOM     21  C   UNL     1      32.213 -22.562 -17.439  0.00  0.00    +0.251 C 
ATOM     22  H   UNL     1      34.053 -22.376 -18.309  0.00  0.00    +0.150 HD
BRANCH  20  23
ATOM     23  C   UNL     1      32.669 -21.671 -19.722  0.00  0.00    +0.121 C 
BRANCH  23  27
ATOM     24  F   UNL     1      31.916 -19.108 -20.653  0.00  0.00    -0.204 F 
ATOM     25  F   UNL     1      35.444 -22.189 -19.883  0.00  0.00    -0.204 F 
ATOM     26  F   UNL     1      36.372 -17.932 -21.725  0.00  0.00    -0.204 F 
ATOM     27  C   UNL     1      33.656 -20.674 -20.255  0.00  0.00    +0.053 C 
ATOM     28  C   UNL     1      33.217 -19.426 -20.700  0.00  0.00    +0.142 C 
ATOM     29  C   UNL     1      35.013 -20.994 -20.307  0.00  0.00    +0.142 C 
ATOM     30  C   UNL     1      34.135 -18.500 -21.196  0.00  0.00    +0.059 C 
ATOM     31  C   UNL     1      35.930 -20.068 -20.803  0.00  0.00    +0.059 C 
ATOM     32  C   UNL     1      35.491 -18.821 -21.248  0.00  0.00    +0.145 C 
ENDBRANCH  23  27
ENDBRANCH  20  23
ENDBRANCH  17  21
BRANCH  16  33
ATOM     33  O   UNL     1      32.358 -25.057 -13.050  0.00  0.00    -0.502 OA
ATOM     34  H   UNL     1      32.554 -25.965 -12.920  0.00  0.00    +0.292 HD
ENDBRANCH  16  33
TORSDOF 4
ENDMDL
MODEL 9
REMARK VINA RESULT:     -10.9      6.322      9.920
REMARK  Name = 90311989
REMARK  4 active torsions:
REMARK  status: ('A' for Active; 'I' for Inactive)
REMARK    1  A    between atoms: C_16  and  O_33
REMARK    2  A    between atoms: C_17  and  C_21
REMARK    3  A    between atoms: N_20  and  C_23
REMARK    4  A    between atoms: C_23  and  C_27
REMARK                            x       y       z     vdW  Elec       q    Type
REMARK                         _______ _______ _______ _____ _____    ______ ____
ROOT
ATOM      1  O   UNL     1      36.711 -18.630 -21.614  0.00  0.00    -0.339 OA
ATOM      2  O   UNL     1      32.784 -21.123 -20.736  0.00  0.00    -0.268 OA
ATOM      3  O   UNL     1      33.991 -23.355 -16.319  0.00  0.00    -0.283 OA
ATOM      4  N   UNL     1      34.647 -19.808 -21.114  0.00  0.00    -0.253 N 
ATOM      5  N   UNL     1      36.014 -21.223 -19.113  0.00  0.00    -0.275 N 
ATOM      6  C   UNL     1      34.015 -19.049 -22.204  0.00  0.00    +0.080 C 
ATOM      7  C   UNL     1      35.970 -17.874 -22.577  0.00  0.00    +0.119 C 
ATOM      8  C   UNL     1      35.041 -18.829 -23.306  0.00  0.00    +0.049 C 
ATOM      9  C   UNL     1      33.705 -17.621 -21.737  0.00  0.00    +0.022 C 
ATOM     10  C   UNL     1      35.028 -16.860 -21.916  0.00  0.00    +0.031 C 
ATOM     11  C   UNL     1      35.938 -19.320 -20.618  0.00  0.00    +0.215 C 
ATOM     12  C   UNL     1      36.770 -20.489 -20.123  0.00  0.00    +0.147 C 
ATOM     13  C   UNL     1      33.921 -20.776 -20.418  0.00  0.00    +0.267 C 
ATOM     14  C   UNL     1      34.629 -21.397 -19.234  0.00  0.00    +0.143 C 
ATOM     15  C   UNL     1      36.673 -21.823 -18.049  0.00  0.00    +0.074 C 
ATOM     16  C   UNL     1      33.903 -22.097 -18.335  0.00  0.00    +0.191 C 
ATOM     17  C   UNL     1      36.082 -22.544 -17.089  0.00  0.00    +0.110 C 
ATOM     18  C   UNL     1      34.608 -22.721 -17.169  0.00  0.00    +0.236 C 
ENDROOT
BRANCH  17  21
ATOM     19  O   UNL     1      37.708 -22.413 -15.398  0.00  0.00    -0.270 OA
ATOM     20  N   UNL     1      36.692 -24.467 -15.832  0.00  0.00    -0.297 N 
ATOM     21  C   UNL     1      36.911 -23.113 -16.026  0.00  0.00    +0.251 C 
ATOM     22  H   UNL     1      36.025 -24.917 -16.401  0.00  0.00    +0.150 HD
BRANCH  20  23
ATOM     23  C   UNL     1      37.391 -25.254 -14.841  0.00  0.00    +0.121 C 
BRANCH  23  27
ATOM     24  F   UNL     1      34.708 -25.146 -13.951  0.00  0.00    -0.204 F 
ATOM     25  F   UNL     1      39.293 -24.561 -12.867  0.00  0.00    -0.204 F 
ATOM     26  F   UNL     1      35.963 -23.781  -9.598  0.00  0.00    -0.204 F 
ATOM     27  C   UNL     1      37.010 -24.863 -13.443  0.00  0.00    +0.053 C 
ATOM     28  C   UNL     1      35.666 -24.829 -13.069  0.00  0.00    +0.142 C 
ATOM     29  C   UNL     1      37.999 -24.531 -12.517  0.00  0.00    +0.142 C 
ATOM     30  C   UNL     1      35.313 -24.464 -11.770  0.00  0.00    +0.059 C 
ATOM     31  C   UNL     1      37.646 -24.167 -11.219  0.00  0.00    +0.059 C 
ATOM     32  C   UNL     1      36.303 -24.133 -10.845  0.00  0.00    +0.145 C 
ENDBRANCH  23  27
ENDBRANCH  20  23
ENDBRANCH  17  21
BRANCH  16  33
ATOM     33  O   UNL     1      32.538 -22.270 -18.409  0.00  0.00    -0.502 OA
ATOM     34  H   UNL     1      32.186 -23.068 -18.751  0.00  0.00    +0.292 HD
ENDBRANCH  16  33
TORSDOF 4
ENDMDL
