MODEL 1
REMARK VINA RESULT:      -9.9      0.000      0.000
REMARK  Name = 4122
REMARK  4 active torsions:
REMARK  status: ('A' for Active; 'I' for Inactive)
REMARK    1  A    between atoms: N_4  and  C_10
REMARK    2  A    between atoms: C_7  and  C_17
REMARK    3  A    between atoms: C_12  and  O_23
REMARK    4  A    between atoms: C_17  and  C_19
REMARK                            x       y       z     vdW  Elec       q    Type
REMARK                         _______ _______ _______ _____ _____    ______ ____
ROOT
ATOM      1  N   UNL     1      32.700 -21.698 -19.027  0.00  0.00    -0.302 N 
ATOM      2  N   UNL     1      34.667 -22.412 -18.276  0.00  0.00    -0.302 N 
ATOM      3  C   UNL     1      33.639 -21.034 -19.773  0.00  0.00    +0.060 C 
ATOM      4  C   UNL     1      34.860 -21.496 -19.287  0.00  0.00    +0.060 C 
ATOM      5  C   UNL     1      34.727 -19.619 -21.347  0.00  0.00    +0.041 C 
ATOM      6  C   UNL     1      33.531 -20.096 -20.801  0.00  0.00    +0.019 C 
ATOM      7  C   UNL     1      36.051 -21.006 -19.846  0.00  0.00    +0.016 C 
ATOM      8  C   UNL     1      33.363 -22.509 -18.148  0.00  0.00    +0.229 C 
ATOM      9  C   UNL     1      35.966 -20.064 -20.879  0.00  0.00    +0.005 C 
ATOM     10  H   UNL     1      31.723 -21.607 -19.110  0.00  0.00    +0.150 HD
ATOM     11  H   UNL     1      35.357 -22.891 -17.763  0.00  0.00    +0.150 HD
ENDROOT
BRANCH   8  13
ATOM     12  O   UNL     1      30.574 -22.241 -17.061  0.00  0.00    -0.226 OA
ATOM     13  N   UNL     1      32.664 -23.297 -17.272  0.00  0.00    -0.240 N 
ATOM     14  C   UNL     1      31.354 -23.143 -16.780  0.00  0.00    +0.404 C 
ATOM     15  H   UNL     1      33.150 -24.086 -16.937  0.00  0.00    +0.156 HD
BRANCH  14  16
ATOM     16  O   UNL     1      31.051 -24.164 -15.919  0.00  0.00    -0.431 OA
ATOM     17  C   UNL     1      29.659 -24.381 -15.666  0.00  0.00    +0.257 C 
ENDBRANCH  14  16
ENDBRANCH   8  13
BRANCH   5  19
ATOM     18  O   UNL     1      34.688 -19.043 -23.595  0.00  0.00    -0.286 OA
ATOM     19  C   UNL     1      34.679 -18.640 -22.422  0.00  0.00    +0.202 C 
BRANCH  19  21
ATOM     20  S   UNL     1      34.578 -16.130 -23.439  0.00  0.00    -0.083 S 
ATOM     21  C   UNL     1      34.606 -17.194 -22.128  0.00  0.00    +0.068 C 
ATOM     22  C   UNL     1      34.558 -16.611 -20.915  0.00  0.00    +0.010 C 
ATOM     23  C   UNL     1      34.494 -15.194 -21.047  0.00  0.00    +0.008 C 
ATOM     24  C   UNL     1      34.498 -14.796 -22.367  0.00  0.00    +0.036 C 
ENDBRANCH  19  21
ENDBRANCH   5  19
TORSDOF 4
ENDMDL
MODEL 2
REMARK VINA RESULT:      -9.6      2.214      2.749
REMARK  Name = 4122
REMARK  4 active torsions:
REMARK  status: ('A' for Active; 'I' for Inactive)
REMARK    1  A    between atoms: N_4  and  C_10
REMARK    2  A    between atoms: C_7  and  C_17
REMARK    3  A    between atoms: C_12  and  O_23
REMARK    4  A    between atoms: C_17  and  C_19
REMARK                            x       y       z     vdW  Elec       q    Type
REMARK                         _______ _______ _______ _____ _____    ______ ____
ROOT
ATOM      1  N   UNL     1      35.125 -22.060 -18.539  0.00  0.00    -0.302 N 
ATOM      2  N   UNL     1      32.913 -22.067 -18.749  0.00  0.00    -0.302 N 
ATOM      3  C   UNL     1      34.850 -21.163 -19.539  0.00  0.00    +0.060 C 
ATOM      4  C   UNL     1      33.462 -21.184 -19.652  0.00  0.00    +0.060 C 
ATOM      5  C   UNL     1      35.033 -19.545 -21.274  0.00  0.00    +0.041 C 
ATOM      6  C   UNL     1      35.670 -20.358 -20.331  0.00  0.00    +0.019 C 
ATOM      7  C   UNL     1      32.839 -20.362 -20.604  0.00  0.00    +0.016 C 
ATOM      8  C   UNL     1      33.937 -22.573 -18.100  0.00  0.00    +0.229 C 
ATOM      9  C   UNL     1      33.642 -19.545 -21.410  0.00  0.00    +0.005 C 
ATOM     10  H   UNL     1      36.020 -22.293 -18.200  0.00  0.00    +0.150 HD
ATOM     11  H   UNL     1      31.959 -22.273 -18.618  0.00  0.00    +0.150 HD
ENDROOT
BRANCH   8  13
ATOM     12  O   UNL     1      35.332 -22.620 -15.439  0.00  0.00    -0.226 OA
ATOM     13  N   UNL     1      33.914 -23.502 -17.093  0.00  0.00    -0.240 N 
ATOM     14  C   UNL     1      34.583 -23.495 -15.854  0.00  0.00    +0.404 C 
ATOM     15  H   UNL     1      33.348 -24.291 -17.261  0.00  0.00    +0.156 HD
BRANCH  14  16
ATOM     16  O   UNL     1      34.277 -24.627 -15.147  0.00  0.00    -0.431 OA
ATOM     17  C   UNL     1      33.290 -24.480 -14.121  0.00  0.00    +0.257 C 
ENDBRANCH  14  16
ENDBRANCH   8  13
BRANCH   5  19
ATOM     18  O   UNL     1      37.054 -18.603 -21.916  0.00  0.00    -0.286 OA
ATOM     19  C   UNL     1      35.835 -18.683 -22.129  0.00  0.00    +0.202 C 
BRANCH  19  21
ATOM     20  S   UNL     1      34.907 -16.288 -22.992  0.00  0.00    -0.083 S 
ATOM     21  C   UNL     1      35.217 -17.929 -23.239  0.00  0.00    +0.068 C 
ATOM     22  C   UNL     1      34.865 -18.404 -24.449  0.00  0.00    +0.010 C 
ATOM     23  C   UNL     1      34.299 -17.365 -25.244  0.00  0.00    +0.008 C 
ATOM     24  C   UNL     1      34.261 -16.162 -24.573  0.00  0.00    +0.036 C 
ENDBRANCH  19  21
ENDBRANCH   5  19
TORSDOF 4
ENDMDL
MODEL 3
REMARK VINA RESULT:      -9.6      3.565      7.525
REMARK  Name = 4122
REMARK  4 active torsions:
REMARK  status: ('A' for Active; 'I' for Inactive)
REMARK    1  A    between atoms: N_4  and  C_10
REMARK    2  A    between atoms: C_7  and  C_17
REMARK    3  A    between atoms: C_12  and  O_23
REMARK    4  A    between atoms: C_17  and  C_19
REMARK                            x       y       z     vdW  Elec       q    Type
REMARK                         _______ _______ _______ _____ _____    ______ ____
ROOT
ATOM      1  N   UNL     1      33.741 -18.734 -21.060  0.00  0.00    -0.302 N 
ATOM      2  N   UNL     1      35.948 -18.467 -21.060  0.00  0.00    -0.302 N 
ATOM      3  C   UNL     1      34.246 -19.860 -20.462  0.00  0.00    +0.060 C 
ATOM      4  C   UNL     1      35.625 -19.670 -20.473  0.00  0.00    +0.060 C 
ATOM      5  C   UNL     1      34.477 -21.968 -19.384  0.00  0.00    +0.041 C 
ATOM      6  C   UNL     1      33.633 -20.994 -19.927  0.00  0.00    +0.019 C 
ATOM      7  C   UNL     1      36.457 -20.658 -19.923  0.00  0.00    +0.016 C 
ATOM      8  C   UNL     1      34.796 -17.933 -21.399  0.00  0.00    +0.229 C 
ATOM      9  C   UNL     1      35.865 -21.805 -19.380  0.00  0.00    +0.005 C 
ATOM     10  H   UNL     1      32.789 -18.538 -21.218  0.00  0.00    +0.150 HD
ATOM     11  H   UNL     1      36.847 -18.089 -21.194  0.00  0.00    +0.150 HD
ENDROOT
BRANCH   8  13
ATOM     12  O   UNL     1      34.881 -15.130 -20.321  0.00  0.00    -0.226 OA
ATOM     13  N   UNL     1      34.581 -16.729 -22.018  0.00  0.00    -0.240 N 
ATOM     14  C   UNL     1      34.628 -15.428 -21.482  0.00  0.00    +0.404 C 
ATOM     15  H   UNL     1      34.361 -16.783 -22.976  0.00  0.00    +0.156 HD
BRANCH  14  16
ATOM     16  O   UNL     1      34.346 -14.508 -22.456  0.00  0.00    -0.431 OA
ATOM     17  C   UNL     1      34.167 -15.027 -23.778  0.00  0.00    +0.257 C 
ENDBRANCH  14  16
ENDBRANCH   8  13
BRANCH   5  19
ATOM     18  O   UNL     1      33.874 -24.206 -19.498  0.00  0.00    -0.286 OA
ATOM     19  C   UNL     1      33.897 -23.174 -18.811  0.00  0.00    +0.202 C 
BRANCH  19  21
ATOM     20  S   UNL     1      34.458 -23.349 -16.166  0.00  0.00    -0.083 S 
ATOM     21  C   UNL     1      33.359 -23.177 -17.436  0.00  0.00    +0.068 C 
ATOM     22  C   UNL     1      32.069 -23.056 -17.066  0.00  0.00    +0.010 C 
ATOM     23  C   UNL     1      31.954 -23.106 -15.647  0.00  0.00    +0.008 C 
ATOM     24  C   UNL     1      33.177 -23.263 -15.032  0.00  0.00    +0.036 C 
ENDBRANCH  19  21
ENDBRANCH   5  19
TORSDOF 4
ENDMDL
MODEL 4
REMARK VINA RESULT:      -9.4      5.032      8.527
REMARK  Name = 4122
REMARK  4 active torsions:
REMARK  status: ('A' for Active; 'I' for Inactive)
REMARK    1  A    between atoms: N_4  and  C_10
REMARK    2  A    between atoms: C_7  and  C_17
REMARK    3  A    between atoms: C_12  and  O_23
REMARK    4  A    between atoms: C_17  and  C_19
REMARK                            x       y       z     vdW  Elec       q    Type
REMARK                         _______ _______ _______ _____ _____    ______ ____
ROOT
ATOM      1  N   UNL     1      34.067 -14.404 -22.063  0.00  0.00    -0.302 N 
ATOM      2  N   UNL     1      33.845 -14.688 -24.256  0.00  0.00    -0.302 N 
ATOM      3  C   UNL     1      34.517 -15.675 -22.314  0.00  0.00    +0.060 C 
ATOM      4  C   UNL     1      34.369 -15.829 -23.690  0.00  0.00    +0.060 C 
ATOM      5  C   UNL     1      35.395 -17.875 -22.094  0.00  0.00    +0.041 C 
ATOM      6  C   UNL     1      35.025 -16.673 -21.482  0.00  0.00    +0.019 C 
ATOM      7  C   UNL     1      34.744 -17.043 -24.288  0.00  0.00    +0.016 C 
ATOM      8  C   UNL     1      33.677 -13.856 -23.253  0.00  0.00    +0.229 C 
ATOM      9  C   UNL     1      35.258 -18.059 -23.473  0.00  0.00    +0.005 C 
ATOM     10  H   UNL     1      34.031 -13.966 -21.182  0.00  0.00    +0.150 HD
ATOM     11  H   UNL     1      33.642 -14.530 -25.206  0.00  0.00    +0.150 HD
ENDROOT
BRANCH   8  13
ATOM     12  O   UNL     1      31.718 -12.446 -21.463  0.00  0.00    -0.226 OA
ATOM     13  N   UNL     1      33.182 -12.579 -23.298  0.00  0.00    -0.240 N 
ATOM     14  C   UNL     1      32.260 -11.947 -22.442  0.00  0.00    +0.404 C 
ATOM     15  H   UNL     1      33.519 -12.024 -24.038  0.00  0.00    +0.156 HD
BRANCH  14  16
ATOM     16  O   UNL     1      32.041 -10.660 -22.854  0.00  0.00    -0.431 OA
ATOM     17  C   UNL     1      33.113 -10.039 -23.573  0.00  0.00    +0.257 C 
ENDBRANCH  14  16
ENDBRANCH   8  13
BRANCH   5  19
ATOM     18  O   UNL     1      37.160 -19.028 -21.124  0.00  0.00    -0.286 OA
ATOM     19  C   UNL     1      35.932 -18.954 -21.279  0.00  0.00    +0.202 C 
BRANCH  19  21
ATOM     20  S   UNL     1      35.751 -21.217 -19.799  0.00  0.00    -0.083 S 
ATOM     21  C   UNL     1      35.036 -19.936 -20.635  0.00  0.00    +0.068 C 
ATOM     22  C   UNL     1      33.689 -19.931 -20.634  0.00  0.00    +0.010 C 
ATOM     23  C   UNL     1      33.189 -21.047 -19.903  0.00  0.00    +0.008 C 
ATOM     24  C   UNL     1      34.203 -21.830 -19.395  0.00  0.00    +0.036 C 
ENDBRANCH  19  21
ENDBRANCH   5  19
TORSDOF 4
ENDMDL
MODEL 5
REMARK VINA RESULT:      -9.3      2.680      3.479
REMARK  Name = 4122
REMARK  4 active torsions:
REMARK  status: ('A' for Active; 'I' for Inactive)
REMARK    1  A    between atoms: N_4  and  C_10
REMARK    2  A    between atoms: C_7  and  C_17
REMARK    3  A    between atoms: C_12  and  O_23
REMARK    4  A    between atoms: C_17  and  C_19
REMARK                            x       y       z     vdW  Elec       q    Type
REMARK                         _______ _______ _______ _____ _____    ______ ____
ROOT
ATOM      1  N   UNL     1      36.944 -20.836 -19.070  0.00  0.00    -0.302 N 
ATOM      2  N   UNL     1      35.130 -21.961 -18.450  0.00  0.00    -0.302 N 
ATOM      3  C   UNL     1      35.938 -20.385 -19.885  0.00  0.00    +0.060 C 
ATOM      4  C   UNL     1      34.815 -21.102 -19.478  0.00  0.00    +0.060 C 
ATOM      5  C   UNL     1      34.682 -19.228 -21.541  0.00  0.00    +0.041 C 
ATOM      6  C   UNL     1      35.913 -19.441 -20.912  0.00  0.00    +0.019 C 
ATOM      7  C   UNL     1      33.588 -20.876 -20.122  0.00  0.00    +0.016 C 
ATOM      8  C   UNL     1      36.413 -21.776 -18.231  0.00  0.00    +0.229 C 
ATOM      9  C   UNL     1      33.539 -19.931 -21.155  0.00  0.00    +0.005 C 
ATOM     10  H   UNL     1      37.882 -20.537 -19.088  0.00  0.00    +0.150 HD
ATOM     11  H   UNL     1      34.525 -22.579 -17.979  0.00  0.00    +0.150 HD
ENDROOT
BRANCH   8  13
ATOM     12  O   UNL     1      35.866 -22.509 -15.369  0.00  0.00    -0.226 OA
ATOM     13  N   UNL     1      37.202 -22.399 -17.300  0.00  0.00    -0.240 N 
ATOM     14  C   UNL     1      36.915 -22.728 -15.962  0.00  0.00    +0.404 C 
ATOM     15  H   UNL     1      38.101 -22.651 -17.613  0.00  0.00    +0.156 HD
BRANCH  14  16
ATOM     16  O   UNL     1      37.993 -23.346 -15.388  0.00  0.00    -0.431 OA
ATOM     17  C   UNL     1      37.732 -24.600 -14.747  0.00  0.00    +0.257 C 
ENDBRANCH  14  16
ENDBRANCH   8  13
BRANCH   5  19
ATOM     18  O   UNL     1      34.588 -18.663 -23.790  0.00  0.00    -0.286 OA
ATOM     19  C   UNL     1      34.593 -18.254 -22.620  0.00  0.00    +0.202 C 
BRANCH  19  21
ATOM     20  S   UNL     1      34.459 -15.749 -23.644  0.00  0.00    -0.083 S 
ATOM     21  C   UNL     1      34.495 -16.809 -22.331  0.00  0.00    +0.068 C 
ATOM     22  C   UNL     1      34.429 -16.224 -21.119  0.00  0.00    +0.010 C 
ATOM     23  C   UNL     1      34.343 -14.808 -21.257  0.00  0.00    +0.008 C 
ATOM     24  C   UNL     1      34.350 -14.414 -22.577  0.00  0.00    +0.036 C 
ENDBRANCH  19  21
ENDBRANCH   5  19
TORSDOF 4
ENDMDL
MODEL 6
REMARK VINA RESULT:      -9.3      6.423      8.314
REMARK  Name = 4122
REMARK  4 active torsions:
REMARK  status: ('A' for Active; 'I' for Inactive)
REMARK    1  A    between atoms: N_4  and  C_10
REMARK    2  A    between atoms: C_7  and  C_17
REMARK    3  A    between atoms: C_12  and  O_23
REMARK    4  A    between atoms: C_17  and  C_19
REMARK                            x       y       z     vdW  Elec       q    Type
REMARK                         _______ _______ _______ _____ _____    ______ ____
ROOT
ATOM      1  N   UNL     1      30.233 -22.995 -14.670  0.00  0.00    -0.302 N 
ATOM      2  N   UNL     1      30.700 -22.706 -16.823  0.00  0.00    -0.302 N 
ATOM      3  C   UNL     1      31.563 -23.301 -14.799  0.00  0.00    +0.060 C 
ATOM      4  C   UNL     1      31.832 -23.114 -16.153  0.00  0.00    +0.060 C 
ATOM      5  C   UNL     1      33.814 -23.941 -14.372  0.00  0.00    +0.041 C 
ATOM      6  C   UNL     1      32.526 -23.714 -13.878  0.00  0.00    +0.019 C 
ATOM      7  C   UNL     1      33.130 -23.346 -16.632  0.00  0.00    +0.016 C 
ATOM      8  C   UNL     1      29.762 -22.646 -15.905  0.00  0.00    +0.229 C 
ATOM      9  C   UNL     1      34.114 -23.761 -15.725  0.00  0.00    +0.005 C 
ATOM     10  H   UNL     1      29.710 -23.022 -13.835  0.00  0.00    +0.150 HD
ATOM     11  H   UNL     1      30.613 -22.503 -17.783  0.00  0.00    +0.150 HD
ENDROOT
BRANCH   8  13
ATOM     12  O   UNL     1      27.762 -23.432 -18.004  0.00  0.00    -0.226 OA
ATOM     13  N   UNL     1      28.450 -22.287 -16.070  0.00  0.00    -0.240 N 
ATOM     14  C   UNL     1      27.537 -22.674 -17.070  0.00  0.00    +0.404 C 
ATOM     15  H   UNL     1      28.095 -21.667 -15.392  0.00  0.00    +0.156 HD
BRANCH  14  16
ATOM     16  O   UNL     1      26.324 -22.075 -16.856  0.00  0.00    -0.431 OA
ATOM     17  C   UNL     1      25.927 -21.096 -17.823  0.00  0.00    +0.257 C 
ENDBRANCH  14  16
ENDBRANCH   8  13
BRANCH   5  19
ATOM     18  O   UNL     1      34.625 -24.378 -12.242  0.00  0.00    -0.286 OA
ATOM     19  C   UNL     1      34.862 -24.373 -13.459  0.00  0.00    +0.202 C 
BRANCH  19  21
ATOM     20  S   UNL     1      37.447 -23.700 -13.915  0.00  0.00    -0.083 S 
ATOM     21  C   UNL     1      36.178 -24.812 -13.968  0.00  0.00    +0.068 C 
ATOM     22  C   UNL     1      36.492 -26.018 -14.478  0.00  0.00    +0.010 C 
ATOM     23  C   UNL     1      37.864 -26.053 -14.859  0.00  0.00    +0.008 C 
ATOM     24  C   UNL     1      38.502 -24.857 -14.608  0.00  0.00    +0.036 C 
ENDBRANCH  19  21
ENDBRANCH   5  19
TORSDOF 4
ENDMDL
MODEL 7
REMARK VINA RESULT:      -9.1      6.494      8.132
REMARK  Name = 4122
REMARK  4 active torsions:
REMARK  status: ('A' for Active; 'I' for Inactive)
REMARK    1  A    between atoms: N_4  and  C_10
REMARK    2  A    between atoms: C_7  and  C_17
REMARK    3  A    between atoms: C_12  and  O_23
REMARK    4  A    between atoms: C_17  and  C_19
REMARK                            x       y       z     vdW  Elec       q    Type
REMARK                         _______ _______ _______ _____ _____    ______ ____
ROOT
ATOM      1  N   UNL     1      31.372 -22.982 -17.068  0.00  0.00    -0.302 N 
ATOM      2  N   UNL     1      30.315 -23.462 -15.172  0.00  0.00    -0.302 N 
ATOM      3  C   UNL     1      32.360 -23.266 -16.160  0.00  0.00    +0.060 C 
ATOM      4  C   UNL     1      31.676 -23.563 -14.984  0.00  0.00    +0.060 C 
ATOM      5  C   UNL     1      34.462 -23.630 -15.107  0.00  0.00    +0.041 C 
ATOM      6  C   UNL     1      33.751 -23.288 -16.262  0.00  0.00    +0.019 C 
ATOM      7  C   UNL     1      32.405 -23.904 -13.834  0.00  0.00    +0.016 C 
ATOM      8  C   UNL     1      30.170 -23.113 -16.431  0.00  0.00    +0.229 C 
ATOM      9  C   UNL     1      33.803 -23.933 -13.913  0.00  0.00    +0.005 C 
ATOM     10  H   UNL     1      31.506 -22.729 -18.010  0.00  0.00    +0.150 HD
ATOM     11  H   UNL     1      29.606 -23.619 -14.508  0.00  0.00    +0.150 HD
ENDROOT
BRANCH   8  13
ATOM     12  O   UNL     1      27.551 -21.973 -15.497  0.00  0.00    -0.226 OA
ATOM     13  N   UNL     1      29.000 -22.887 -17.107  0.00  0.00    -0.240 N 
ATOM     14  C   UNL     1      27.785 -22.351 -16.638  0.00  0.00    +0.404 C 
ATOM     15  H   UNL     1      29.009 -23.138 -18.059  0.00  0.00    +0.156 HD
BRANCH  14  16
ATOM     16  O   UNL     1      26.869 -22.301 -17.654  0.00  0.00    -0.431 OA
ATOM     17  C   UNL     1      26.033 -21.139 -17.691  0.00  0.00    +0.257 C 
ENDBRANCH  14  16
ENDBRANCH   8  13
BRANCH   5  19
ATOM     18  O   UNL     1      36.491 -23.264 -16.172  0.00  0.00    -0.286 OA
ATOM     19  C   UNL     1      35.917 -23.671 -15.152  0.00  0.00    +0.202 C 
BRANCH  19  21
ATOM     20  S   UNL     1      37.048 -25.823 -13.954  0.00  0.00    -0.083 S 
ATOM     21  C   UNL     1      36.697 -24.172 -14.002  0.00  0.00    +0.068 C 
ATOM     22  C   UNL     1      37.172 -23.455 -12.965  0.00  0.00    +0.010 C 
ATOM     23  C   UNL     1      37.875 -24.299 -12.059  0.00  0.00    +0.008 C 
ATOM     24  C   UNL     1      37.884 -25.613 -12.475  0.00  0.00    +0.036 C 
ENDBRANCH  19  21
ENDBRANCH   5  19
TORSDOF 4
ENDMDL
MODEL 8
REMARK VINA RESULT:      -9.0      7.692     11.056
REMARK  Name = 4122
REMARK  4 active torsions:
REMARK  status: ('A' for Active; 'I' for Inactive)
REMARK    1  A    between atoms: N_4  and  C_10
REMARK    2  A    between atoms: C_7  and  C_17
REMARK    3  A    between atoms: C_12  and  O_23
REMARK    4  A    between atoms: C_17  and  C_19
REMARK                            x       y       z     vdW  Elec       q    Type
REMARK                         _______ _______ _______ _____ _____    ______ ____
ROOT
ATOM      1  N   UNL     1      34.054 -12.720 -24.469  0.00  0.00    -0.302 N 
ATOM      2  N   UNL     1      32.374 -13.352 -23.158  0.00  0.00    -0.302 N 
ATOM      3  C   UNL     1      33.603 -11.571 -23.873  0.00  0.00    +0.060 C 
ATOM      4  C   UNL     1      32.554 -11.991 -23.059  0.00  0.00    +0.060 C 
ATOM      5  C   UNL     1      33.307  -9.308 -23.201  0.00  0.00    +0.041 C 
ATOM      6  C   UNL     1      34.009 -10.240 -23.972  0.00  0.00    +0.019 C 
ATOM      7  C   UNL     1      31.860 -11.042 -22.292  0.00  0.00    +0.016 C 
ATOM      8  C   UNL     1      33.289 -13.756 -24.011  0.00  0.00    +0.229 C 
ATOM      9  C   UNL     1      32.250  -9.700 -22.374  0.00  0.00    +0.005 C 
ATOM     10  H   UNL     1      34.796 -12.787 -25.113  0.00  0.00    +0.150 HD
ATOM     11  H   UNL     1      31.706 -13.904 -22.691  0.00  0.00    +0.150 HD
ENDROOT
BRANCH   8  13
ATOM     12  O   UNL     1      33.539 -14.871 -26.790  0.00  0.00    -0.226 OA
ATOM     13  N   UNL     1      33.523 -15.035 -24.445  0.00  0.00    -0.240 N 
ATOM     14  C   UNL     1      33.633 -15.526 -25.760  0.00  0.00    +0.404 C 
ATOM     15  H   UNL     1      33.627 -15.708 -23.734  0.00  0.00    +0.156 HD
BRANCH  14  16
ATOM     16  O   UNL     1      33.870 -16.875 -25.740  0.00  0.00    -0.431 OA
ATOM     17  C   UNL     1      34.674 -17.356 -24.656  0.00  0.00    +0.257 C 
ENDBRANCH  14  16
ENDBRANCH   8  13
BRANCH   5  19
ATOM     18  O   UNL     1      34.888  -7.609 -23.213  0.00  0.00    -0.286 OA
ATOM     19  C   UNL     1      33.684  -7.904 -23.261  0.00  0.00    +0.202 C 
BRANCH  19  21
ATOM     20  S   UNL     1      32.064  -6.157 -21.972  0.00  0.00    -0.083 S 
ATOM     21  C   UNL     1      32.659  -6.848 -23.392  0.00  0.00    +0.068 C 
ATOM     22  C   UNL     1      32.134  -6.360 -24.532  0.00  0.00    +0.010 C 
ATOM     23  C   UNL     1      31.173  -5.349 -24.242  0.00  0.00    +0.008 C 
ATOM     24  C   UNL     1      31.035  -5.138 -22.887  0.00  0.00    +0.036 C 
ENDBRANCH  19  21
ENDBRANCH   5  19
TORSDOF 4
ENDMDL
MODEL 9
REMARK VINA RESULT:      -8.9      2.088      2.814
REMARK  Name = 4122
REMARK  4 active torsions:
REMARK  status: ('A' for Active; 'I' for Inactive)
REMARK    1  A    between atoms: N_4  and  C_10
REMARK    2  A    between atoms: C_7  and  C_17
REMARK    3  A    between atoms: C_12  and  O_23
REMARK    4  A    between atoms: C_17  and  C_19
REMARK                            x       y       z     vdW  Elec       q    Type
REMARK                         _______ _______ _______ _____ _____    ______ ____
ROOT
ATOM      1  N   UNL     1      33.612 -20.595 -20.738  0.00  0.00    -0.302 N 
ATOM      2  N   UNL     1      35.648 -20.543 -19.847  0.00  0.00    -0.302 N 
ATOM      3  C   UNL     1      34.318 -19.695 -21.492  0.00  0.00    +0.060 C 
ATOM      4  C   UNL     1      35.587 -19.679 -20.917  0.00  0.00    +0.060 C 
ATOM      5  C   UNL     1      34.966 -18.090 -23.125  0.00  0.00    +0.041 C 
ATOM      6  C   UNL     1      33.969 -18.915 -22.596  0.00  0.00    +0.019 C 
ATOM      7  C   UNL     1      36.576 -18.844 -21.461  0.00  0.00    +0.016 C 
ATOM      8  C   UNL     1      34.448 -21.074 -19.768  0.00  0.00    +0.229 C 
ATOM      9  C   UNL     1      36.248 -18.053 -22.569  0.00  0.00    +0.005 C 
ATOM     10  H   UNL     1      32.670 -20.850 -20.871  0.00  0.00    +0.150 HD
ATOM     11  H   UNL     1      36.422 -20.724 -19.267  0.00  0.00    +0.150 HD
ENDROOT
BRANCH   8  13
ATOM     12  O   UNL     1      35.872 -22.471 -17.521  0.00  0.00    -0.226 OA
ATOM     13  N   UNL     1      34.001 -22.001 -18.863  0.00  0.00    -0.240 N 
ATOM     14  C   UNL     1      34.697 -22.639 -17.819  0.00  0.00    +0.404 C 
ATOM     15  H   UNL     1      33.055 -22.259 -18.958  0.00  0.00    +0.156 HD
BRANCH  14  16
ATOM     16  O   UNL     1      33.864 -23.500 -17.156  0.00  0.00    -0.431 OA
ATOM     17  C   UNL     1      32.484 -23.120 -17.097  0.00  0.00    +0.257 C 
ENDBRANCH  14  16
ENDBRANCH   8  13
BRANCH   5  19
ATOM     18  O   UNL     1      34.726 -17.754 -25.409  0.00  0.00    -0.286 OA
ATOM     19  C   UNL     1      34.662 -17.253 -24.276  0.00  0.00    +0.202 C 
BRANCH  19  21
ATOM     20  S   UNL     1      33.391 -15.113 -25.349  0.00  0.00    -0.083 S 
ATOM     21  C   UNL     1      34.271 -15.839 -24.104  0.00  0.00    +0.068 C 
ATOM     22  C   UNL     1      34.536 -15.044 -23.050  0.00  0.00    +0.010 C 
ATOM     23  C   UNL     1      33.989 -13.744 -23.258  0.00  0.00    +0.008 C 
ATOM     24  C   UNL     1      33.341 -13.644 -24.470  0.00  0.00    +0.036 C 
ENDBRANCH  19  21
ENDBRANCH   5  19
TORSDOF 4
ENDMDL
