MODEL 1
REMARK VINA RESULT:      -8.6      0.000      0.000
REMARK  Name = 127151
REMARK  6 active torsions:
REMARK  status: ('A' for Active; 'I' for Inactive)
REMARK    1  A    between atoms: C_1  and  C_4
REMARK    2  A    between atoms: C_1  and  C_10
REMARK    3  A    between atoms: C_1  and  O_16
REMARK    4  A    between atoms: O_16  and  C_17
REMARK    5  A    between atoms: C_18  and  O_23
REMARK    6  A    between atoms: O_23  and  C_24
REMARK                            x       y       z     vdW  Elec       q    Type
REMARK                         _______ _______ _______ _____ _____    ______ ____
ROOT
ATOM      1  C   UNL     1      32.722 -10.326 -23.205  0.00  0.00    +0.213 C 
ENDROOT
BRANCH   1   4
ATOM      2  O   UNL     1      31.516 -11.364 -21.425  0.00  0.00    -0.357 OA
ATOM      3  N   UNL     1      32.078  -9.245 -19.613  0.00  0.00    +0.387 N 
ATOM      4  C   UNL     1      32.585 -10.449 -21.694  0.00  0.00    +0.138 C 
ATOM      5  C   UNL     1      32.278  -9.091 -21.056  0.00  0.00    -0.047 C 
ATOM      6  C   UNL     1      31.015 -10.215 -19.350  0.00  0.00    -0.049 C 
ATOM      7  C   UNL     1      31.338 -11.545 -20.019  0.00  0.00    +0.119 C 
ATOM      8  H   UNL     1      31.820  -8.343 -19.211  0.00  0.00    -0.084 HD
ATOM      9  H   UNL     1      32.945  -9.578 -19.190  0.00  0.00    -0.084 HD
ENDBRANCH   1   4
BRANCH   1  10
ATOM     10  C   UNL     1      32.844  -8.886 -23.649  0.00  0.00    +0.020 C 
ATOM     11  C   UNL     1      34.102  -8.333 -23.818  0.00  0.00    -0.001 C 
ATOM     12  C   UNL     1      31.694  -8.148 -23.878  0.00  0.00    -0.001 C 
ATOM     13  C   UNL     1      34.215  -7.004 -24.228  0.00  0.00    -0.000 C 
ATOM     14  C   UNL     1      31.806  -6.819 -24.288  0.00  0.00    -0.000 C 
ATOM     15  C   UNL     1      33.067  -6.247 -24.464  0.00  0.00    -0.000 C 
ENDBRANCH   1  10
BRANCH   1  16
ATOM     16  O   UNL     1      33.871 -11.049 -23.643  0.00  0.00    -0.469 OA
BRANCH  16  17
ATOM     17  C   UNL     1      33.648 -12.099 -24.490  0.00  0.00    +0.173 C 
ATOM     18  C   UNL     1      33.495 -13.389 -23.987  0.00  0.00    +0.172 C 
ATOM     19  C   UNL     1      33.579 -11.865 -25.860  0.00  0.00    +0.040 C 
ATOM     20  C   UNL     1      33.269 -14.452 -24.862  0.00  0.00    +0.040 C 
ATOM     21  C   UNL     1      33.353 -12.928 -26.735  0.00  0.00    +0.003 C 
ATOM     22  C   UNL     1      33.198 -14.222 -26.235  0.00  0.00    +0.003 C 
BRANCH  18  23
ATOM     23  O   UNL     1      33.561 -13.626 -22.647  0.00  0.00    -0.472 OA
BRANCH  23  24
ATOM     24  C   UNL     1      32.645 -14.579 -22.111  0.00  0.00    +0.206 C 
ATOM     25  C   UNL     1      32.973 -14.812 -20.652  0.00  0.00    +0.051 C 
ENDBRANCH  23  24
ENDBRANCH  18  23
ENDBRANCH  16  17
ENDBRANCH   1  16
TORSDOF 6
ENDMDL
MODEL 2
REMARK VINA RESULT:      -8.6      2.093      5.878
REMARK  Name = 127151
REMARK  6 active torsions:
REMARK  status: ('A' for Active; 'I' for Inactive)
REMARK    1  A    between atoms: C_1  and  C_4
REMARK    2  A    between atoms: C_1  and  C_10
REMARK    3  A    between atoms: C_1  and  O_16
REMARK    4  A    between atoms: O_16  and  C_17
REMARK    5  A    between atoms: C_18  and  O_23
REMARK    6  A    between atoms: O_23  and  C_24
REMARK                            x       y       z     vdW  Elec       q    Type
REMARK                         _______ _______ _______ _____ _____    ______ ____
ROOT
ATOM      1  C   UNL     1      33.143 -13.064 -22.945  0.00  0.00    +0.213 C 
ENDROOT
BRANCH   1   4
ATOM      2  O   UNL     1      33.468 -14.345 -20.956  0.00  0.00    -0.357 OA
ATOM      3  N   UNL     1      34.750 -16.463 -22.358  0.00  0.00    +0.387 N 
ATOM      4  C   UNL     1      33.321 -14.465 -22.376  0.00  0.00    +0.138 C 
ATOM      5  C   UNL     1      34.556 -15.147 -22.970  0.00  0.00    -0.047 C 
ATOM      6  C   UNL     1      34.854 -16.334 -20.904  0.00  0.00    -0.049 C 
ATOM      7  C   UNL     1      33.623 -15.629 -20.348  0.00  0.00    +0.119 C 
ATOM      8  H   UNL     1      35.606 -16.882 -22.721  0.00  0.00    -0.084 HD
ATOM      9  H   UNL     1      33.951 -17.057 -22.583  0.00  0.00    -0.084 HD
ENDBRANCH   1   4
BRANCH   1  10
ATOM     10  C   UNL     1      33.287 -13.038 -24.449  0.00  0.00    +0.020 C 
ATOM     11  C   UNL     1      32.770 -14.083 -25.197  0.00  0.00    -0.001 C 
ATOM     12  C   UNL     1      33.934 -11.971 -25.050  0.00  0.00    -0.001 C 
ATOM     13  C   UNL     1      32.903 -14.059 -26.586  0.00  0.00    -0.000 C 
ATOM     14  C   UNL     1      34.068 -11.947 -26.438  0.00  0.00    -0.000 C 
ATOM     15  C   UNL     1      33.551 -12.991 -27.206  0.00  0.00    -0.000 C 
ENDBRANCH   1  10
BRANCH   1  16
ATOM     16  O   UNL     1      31.855 -12.562 -22.589  0.00  0.00    -0.469 OA
BRANCH  16  17
ATOM     17  C   UNL     1      31.820 -11.592 -21.627  0.00  0.00    +0.173 C 
ATOM     18  C   UNL     1      31.990 -10.253 -21.970  0.00  0.00    +0.172 C 
ATOM     19  C   UNL     1      31.613 -11.957 -20.299  0.00  0.00    +0.040 C 
ATOM     20  C   UNL     1      31.953  -9.273 -20.978  0.00  0.00    +0.040 C 
ATOM     21  C   UNL     1      31.576 -10.977 -19.308  0.00  0.00    +0.003 C 
ATOM     22  C   UNL     1      31.746  -9.635 -19.647  0.00  0.00    +0.003 C 
BRANCH  18  23
ATOM     23  O   UNL     1      32.193  -9.887 -23.266  0.00  0.00    -0.472 OA
BRANCH  23  24
ATOM     24  C   UNL     1      32.689  -8.570 -23.499  0.00  0.00    +0.206 C 
ATOM     25  C   UNL     1      34.182  -8.639 -23.735  0.00  0.00    +0.051 C 
ENDBRANCH  23  24
ENDBRANCH  18  23
ENDBRANCH  16  17
ENDBRANCH   1  16
TORSDOF 6
ENDMDL
MODEL 3
REMARK VINA RESULT:      -8.5     12.566     15.464
REMARK  Name = 127151
REMARK  6 active torsions:
REMARK  status: ('A' for Active; 'I' for Inactive)
REMARK    1  A    between atoms: C_1  and  C_4
REMARK    2  A    between atoms: C_1  and  C_10
REMARK    3  A    between atoms: C_1  and  O_16
REMARK    4  A    between atoms: O_16  and  C_17
REMARK    5  A    between atoms: C_18  and  O_23
REMARK    6  A    between atoms: O_23  and  C_24
REMARK                            x       y       z     vdW  Elec       q    Type
REMARK                         _______ _______ _______ _____ _____    ______ ____
ROOT
ATOM      1  C   UNL     1      34.325 -23.591 -15.911  0.00  0.00    +0.213 C 
ENDROOT
BRANCH   1   4
ATOM      2  O   UNL     1      32.837 -23.562 -14.044  0.00  0.00    -0.357 OA
ATOM      3  N   UNL     1      30.538 -23.277 -15.694  0.00  0.00    +0.387 N 
ATOM      4  C   UNL     1      32.971 -23.117 -15.398  0.00  0.00    +0.138 C 
ATOM      5  C   UNL     1      31.831 -23.685 -16.247  0.00  0.00    -0.047 C 
ATOM      6  C   UNL     1      30.430 -23.697 -14.297  0.00  0.00    -0.049 C 
ATOM      7  C   UNL     1      31.592 -23.137 -13.486  0.00  0.00    +0.119 C 
ATOM      8  H   UNL     1      29.788 -23.708 -16.235  0.00  0.00    -0.084 HD
ATOM      9  H   UNL     1      30.461 -22.260 -15.743  0.00  0.00    -0.084 HD
ENDBRANCH   1   4
BRANCH   1  10
ATOM     10  C   UNL     1      34.768 -22.825 -17.137  0.00  0.00    +0.020 C 
ATOM     11  C   UNL     1      36.037 -22.271 -17.167  0.00  0.00    -0.001 C 
ATOM     12  C   UNL     1      33.896 -22.692 -18.206  0.00  0.00    -0.001 C 
ATOM     13  C   UNL     1      36.447 -21.564 -18.299  0.00  0.00    -0.000 C 
ATOM     14  C   UNL     1      34.305 -21.986 -19.337  0.00  0.00    -0.000 C 
ATOM     15  C   UNL     1      35.581 -21.422 -19.383  0.00  0.00    -0.000 C 
ENDBRANCH   1  10
BRANCH   1  16
ATOM     16  O   UNL     1      35.306 -23.442 -14.886  0.00  0.00    -0.469 OA
BRANCH  16  17
ATOM     17  C   UNL     1      36.179 -24.480 -14.717  0.00  0.00    +0.173 C 
ATOM     18  C   UNL     1      37.333 -24.313 -13.956  0.00  0.00    +0.172 C 
ATOM     19  C   UNL     1      35.902 -25.706 -15.316  0.00  0.00    +0.040 C 
ATOM     20  C   UNL     1      38.216 -25.380 -13.792  0.00  0.00    +0.040 C 
ATOM     21  C   UNL     1      36.785 -26.773 -15.152  0.00  0.00    +0.003 C 
ATOM     22  C   UNL     1      37.942 -26.610 -14.391  0.00  0.00    +0.003 C 
BRANCH  18  23
ATOM     23  O   UNL     1      37.610 -23.117 -13.367  0.00  0.00    -0.472 OA
BRANCH  23  24
ATOM     24  C   UNL     1      37.784 -23.116 -11.951  0.00  0.00    +0.206 C 
ATOM     25  C   UNL     1      36.471 -23.482 -11.292  0.00  0.00    +0.051 C 
ENDBRANCH  23  24
ENDBRANCH  18  23
ENDBRANCH  16  17
ENDBRANCH   1  16
TORSDOF 6
ENDMDL
MODEL 4
REMARK VINA RESULT:      -8.3     12.385     15.332
REMARK  Name = 127151
REMARK  6 active torsions:
REMARK  status: ('A' for Active; 'I' for Inactive)
REMARK    1  A    between atoms: C_1  and  C_4
REMARK    2  A    between atoms: C_1  and  C_10
REMARK    3  A    between atoms: C_1  and  O_16
REMARK    4  A    between atoms: O_16  and  C_17
REMARK    5  A    between atoms: C_18  and  O_23
REMARK    6  A    between atoms: O_23  and  C_24
REMARK                            x       y       z     vdW  Elec       q    Type
REMARK                         _______ _______ _______ _____ _____    ______ ____
ROOT
ATOM      1  C   UNL     1      35.276 -23.147 -16.094  0.00  0.00    +0.213 C 
ENDROOT
BRANCH   1   4
ATOM      2  O   UNL     1      36.239 -25.246 -15.487  0.00  0.00    -0.357 OA
ATOM      3  N   UNL     1      38.300 -24.022 -13.956  0.00  0.00    +0.387 N 
ATOM      4  C   UNL     1      36.554 -23.861 -15.676  0.00  0.00    +0.138 C 
ATOM      5  C   UNL     1      37.114 -23.275 -14.377  0.00  0.00    -0.047 C 
ATOM      6  C   UNL     1      37.979 -25.441 -13.809  0.00  0.00    -0.049 C 
ATOM      7  C   UNL     1      37.400 -25.988 -15.108  0.00  0.00    +0.119 C 
ATOM      8  H   UNL     1      38.629 -23.656 -13.062  0.00  0.00    -0.084 HD
ATOM      9  H   UNL     1      39.029 -23.917 -14.662  0.00  0.00    -0.084 HD
ENDBRANCH   1   4
BRANCH   1  10
ATOM     10  C   UNL     1      35.424 -22.449 -17.426  0.00  0.00    +0.020 C 
ATOM     11  C   UNL     1      36.612 -21.801 -17.723  0.00  0.00    -0.001 C 
ATOM     12  C   UNL     1      34.369 -22.470 -18.324  0.00  0.00    -0.001 C 
ATOM     13  C   UNL     1      36.749 -21.157 -18.953  0.00  0.00    -0.000 C 
ATOM     14  C   UNL     1      34.507 -21.826 -19.554  0.00  0.00    -0.000 C 
ATOM     15  C   UNL     1      35.697 -21.170 -19.868  0.00  0.00    -0.000 C 
ENDBRANCH   1  10
BRANCH   1  16
ATOM     16  O   UNL     1      34.205 -24.086 -16.174  0.00  0.00    -0.469 OA
BRANCH  16  17
ATOM     17  C   UNL     1      33.053 -23.761 -15.512  0.00  0.00    +0.173 C 
ATOM     18  C   UNL     1      32.935 -24.001 -14.146  0.00  0.00    +0.172 C 
ATOM     19  C   UNL     1      32.001 -23.189 -16.221  0.00  0.00    +0.040 C 
ATOM     20  C   UNL     1      31.754 -23.666 -13.483  0.00  0.00    +0.040 C 
ATOM     21  C   UNL     1      30.820 -22.854 -15.558  0.00  0.00    +0.003 C 
ATOM     22  C   UNL     1      30.696 -23.093 -14.189  0.00  0.00    +0.003 C 
BRANCH  18  23
ATOM     23  O   UNL     1      33.960 -24.561 -13.446  0.00  0.00    -0.472 OA
BRANCH  23  24
ATOM     24  C   UNL     1      34.525 -23.784 -12.391  0.00  0.00    +0.206 C 
ATOM     25  C   UNL     1      35.381 -24.680 -11.522  0.00  0.00    +0.051 C 
ENDBRANCH  23  24
ENDBRANCH  18  23
ENDBRANCH  16  17
ENDBRANCH   1  16
TORSDOF 6
ENDMDL
MODEL 5
REMARK VINA RESULT:      -8.0      1.762      5.449
REMARK  Name = 127151
REMARK  6 active torsions:
REMARK  status: ('A' for Active; 'I' for Inactive)
REMARK    1  A    between atoms: C_1  and  C_4
REMARK    2  A    between atoms: C_1  and  C_10
REMARK    3  A    between atoms: C_1  and  O_16
REMARK    4  A    between atoms: O_16  and  C_17
REMARK    5  A    between atoms: C_18  and  O_23
REMARK    6  A    between atoms: O_23  and  C_24
REMARK                            x       y       z     vdW  Elec       q    Type
REMARK                         _______ _______ _______ _____ _____    ______ ____
ROOT
ATOM      1  C   UNL     1      33.789 -12.365 -23.646  0.00  0.00    +0.213 C 
ENDROOT
BRANCH   1   4
ATOM      2  O   UNL     1      34.668 -14.420 -22.807  0.00  0.00    -0.357 OA
ATOM      3  N   UNL     1      32.448 -14.830 -21.075  0.00  0.00    +0.387 N 
ATOM      4  C   UNL     1      33.806 -13.328 -22.467  0.00  0.00    +0.138 C 
ATOM      5  C   UNL     1      32.399 -13.852 -22.164  0.00  0.00    -0.047 C 
ATOM      6  C   UNL     1      33.366 -15.918 -21.414  0.00  0.00    -0.049 C 
ATOM      7  C   UNL     1      34.748 -15.362 -21.735  0.00  0.00    +0.119 C 
ATOM      8  H   UNL     1      31.515 -15.211 -20.922  0.00  0.00    -0.084 HD
ATOM      9  H   UNL     1      32.778 -14.368 -20.227  0.00  0.00    -0.084 HD
ENDBRANCH   1   4
BRANCH   1  10
ATOM     10  C   UNL     1      33.517 -13.072 -24.954  0.00  0.00    +0.020 C 
ATOM     11  C   UNL     1      33.665 -12.377 -26.143  0.00  0.00    -0.001 C 
ATOM     12  C   UNL     1      33.123 -14.400 -24.938  0.00  0.00    -0.001 C 
ATOM     13  C   UNL     1      33.413 -13.030 -27.351  0.00  0.00    -0.000 C 
ATOM     14  C   UNL     1      32.871 -15.052 -26.145  0.00  0.00    -0.000 C 
ATOM     15  C   UNL     1      33.017 -14.367 -27.352  0.00  0.00    -0.000 C 
ENDBRANCH   1  10
BRANCH   1  16
ATOM     16  O   UNL     1      32.792 -11.366 -23.437  0.00  0.00    -0.469 OA
BRANCH  16  17
ATOM     17  C   UNL     1      33.234 -10.084 -23.269  0.00  0.00    +0.173 C 
ATOM     18  C   UNL     1      32.622  -9.243 -22.343  0.00  0.00    +0.172 C 
ATOM     19  C   UNL     1      34.302  -9.627 -24.036  0.00  0.00    +0.040 C 
ATOM     20  C   UNL     1      33.083  -7.936 -22.182  0.00  0.00    +0.040 C 
ATOM     21  C   UNL     1      34.763  -8.320 -23.876  0.00  0.00    +0.003 C 
ATOM     22  C   UNL     1      34.152  -7.474 -22.949  0.00  0.00    +0.003 C 
BRANCH  18  23
ATOM     23  O   UNL     1      31.577  -9.683 -21.588  0.00  0.00    -0.472 OA
BRANCH  23  24
ATOM     24  C   UNL     1      31.777  -9.746 -20.177  0.00  0.00    +0.206 C 
ATOM     25  C   UNL     1      31.490 -11.153 -19.699  0.00  0.00    +0.051 C 
ENDBRANCH  23  24
ENDBRANCH  18  23
ENDBRANCH  16  17
ENDBRANCH   1  16
TORSDOF 6
ENDMDL
MODEL 6
REMARK VINA RESULT:      -7.9      2.360      4.974
REMARK  Name = 127151
REMARK  6 active torsions:
REMARK  status: ('A' for Active; 'I' for Inactive)
REMARK    1  A    between atoms: C_1  and  C_4
REMARK    2  A    between atoms: C_1  and  C_10
REMARK    3  A    between atoms: C_1  and  O_16
REMARK    4  A    between atoms: O_16  and  C_17
REMARK    5  A    between atoms: C_18  and  O_23
REMARK    6  A    between atoms: O_23  and  C_24
REMARK                            x       y       z     vdW  Elec       q    Type
REMARK                         _______ _______ _______ _____ _____    ______ ____
ROOT
ATOM      1  C   UNL     1      32.651 -13.690 -22.337  0.00  0.00    +0.213 C 
ENDROOT
BRANCH   1   4
ATOM      2  O   UNL     1      34.430 -14.538 -20.988  0.00  0.00    -0.357 OA
ATOM      3  N   UNL     1      33.666 -17.243 -21.425  0.00  0.00    +0.387 N 
ATOM      4  C   UNL     1      33.116 -14.849 -21.465  0.00  0.00    +0.138 C 
ATOM      5  C   UNL     1      33.149 -16.157 -22.261  0.00  0.00    -0.047 C 
ATOM      6  C   UNL     1      34.990 -16.896 -20.907  0.00  0.00    -0.049 C 
ATOM      7  C   UNL     1      34.928 -15.578 -20.145  0.00  0.00    +0.119 C 
ATOM      8  H   UNL     1      33.736 -18.094 -21.984  0.00  0.00    -0.084 HD
ATOM      9  H   UNL     1      33.031 -17.393 -20.641  0.00  0.00    -0.084 HD
ENDBRANCH   1   4
BRANCH   1  10
ATOM     10  C   UNL     1      32.069 -12.561 -21.518  0.00  0.00    +0.020 C 
ATOM     11  C   UNL     1      32.105 -12.639 -20.135  0.00  0.00    -0.001 C 
ATOM     12  C   UNL     1      31.510 -11.471 -22.165  0.00  0.00    -0.001 C 
ATOM     13  C   UNL     1      31.568 -11.596 -19.378  0.00  0.00    -0.000 C 
ATOM     14  C   UNL     1      30.973 -10.429 -21.409  0.00  0.00    -0.000 C 
ATOM     15  C   UNL     1      31.002 -10.492 -20.015  0.00  0.00    -0.000 C 
ENDBRANCH   1  10
BRANCH   1  16
ATOM     16  O   UNL     1      33.748 -13.196 -23.103  0.00  0.00    -0.469 OA
BRANCH  16  17
ATOM     17  C   UNL     1      33.579 -13.154 -24.459  0.00  0.00    +0.173 C 
ATOM     18  C   UNL     1      33.991 -12.040 -25.186  0.00  0.00    +0.172 C 
ATOM     19  C   UNL     1      32.989 -14.238 -25.104  0.00  0.00    +0.040 C 
ATOM     20  C   UNL     1      33.812 -12.010 -26.569  0.00  0.00    +0.040 C 
ATOM     21  C   UNL     1      32.810 -14.208 -26.488  0.00  0.00    +0.003 C 
ATOM     22  C   UNL     1      33.221 -13.093 -27.220  0.00  0.00    +0.003 C 
BRANCH  18  23
ATOM     23  O   UNL     1      34.569 -10.977 -24.562  0.00  0.00    -0.472 OA
BRANCH  23  24
ATOM     24  C   UNL     1      33.725  -9.867 -24.256  0.00  0.00    +0.206 C 
ATOM     25  C   UNL     1      34.587  -8.671 -23.913  0.00  0.00    +0.051 C 
ENDBRANCH  23  24
ENDBRANCH  18  23
ENDBRANCH  16  17
ENDBRANCH   1  16
TORSDOF 6
ENDMDL
MODEL 7
REMARK VINA RESULT:      -7.8      2.244      6.046
REMARK  Name = 127151
REMARK  6 active torsions:
REMARK  status: ('A' for Active; 'I' for Inactive)
REMARK    1  A    between atoms: C_1  and  C_4
REMARK    2  A    between atoms: C_1  and  C_10
REMARK    3  A    between atoms: C_1  and  O_16
REMARK    4  A    between atoms: O_16  and  C_17
REMARK    5  A    between atoms: C_18  and  O_23
REMARK    6  A    between atoms: O_23  and  C_24
REMARK                            x       y       z     vdW  Elec       q    Type
REMARK                         _______ _______ _______ _____ _____    ______ ____
ROOT
ATOM      1  C   UNL     1      32.824  -8.735 -22.633  0.00  0.00    +0.213 C 
ENDROOT
BRANCH   1   4
ATOM      2  O   UNL     1      31.163 -10.193 -21.729  0.00  0.00    -0.357 OA
ATOM      3  N   UNL     1      32.052  -9.787 -19.058  0.00  0.00    +0.387 N 
ATOM      4  C   UNL     1      32.467  -9.658 -21.476  0.00  0.00    +0.138 C 
ATOM      5  C   UNL     1      32.467  -8.899 -20.146  0.00  0.00    -0.047 C 
ATOM      6  C   UNL     1      30.739 -10.363 -19.348  0.00  0.00    -0.049 C 
ATOM      7  C   UNL     1      30.765 -11.087 -20.688  0.00  0.00    +0.119 C 
ATOM      8  H   UNL     1      32.002  -9.255 -18.189  0.00  0.00    -0.084 HD
ATOM      9  H   UNL     1      32.733 -10.541 -18.964  0.00  0.00    -0.084 HD
ENDBRANCH   1   4
BRANCH   1  10
ATOM     10  C   UNL     1      33.621  -9.447 -23.702  0.00  0.00    +0.020 C 
ATOM     11  C   UNL     1      33.217 -10.702 -24.126  0.00  0.00    -0.001 C 
ATOM     12  C   UNL     1      34.741  -8.830 -24.237  0.00  0.00    -0.001 C 
ATOM     13  C   UNL     1      33.954 -11.359 -25.113  0.00  0.00    -0.000 C 
ATOM     14  C   UNL     1      35.477  -9.486 -25.223  0.00  0.00    -0.000 C 
ATOM     15  C   UNL     1      35.083 -10.751 -25.661  0.00  0.00    -0.000 C 
ENDBRANCH   1  10
BRANCH   1  16
ATOM     16  O   UNL     1      31.631  -8.208 -23.212  0.00  0.00    -0.469 OA
BRANCH  16  17
ATOM     17  C   UNL     1      31.413  -6.868 -23.053  0.00  0.00    +0.173 C 
ATOM     18  C   UNL     1      31.879  -5.962 -24.003  0.00  0.00    +0.172 C 
ATOM     19  C   UNL     1      30.722  -6.419 -21.932  0.00  0.00    +0.040 C 
ATOM     20  C   UNL     1      31.652  -4.597 -23.829  0.00  0.00    +0.040 C 
ATOM     21  C   UNL     1      30.494  -5.054 -21.758  0.00  0.00    +0.003 C 
ATOM     22  C   UNL     1      30.959  -4.142 -22.706  0.00  0.00    +0.003 C 
BRANCH  18  23
ATOM     23  O   UNL     1      32.556  -6.393 -25.103  0.00  0.00    -0.472 OA
BRANCH  23  24
ATOM     24  C   UNL     1      33.108  -5.394 -25.958  0.00  0.00    +0.206 C 
ATOM     25  C   UNL     1      34.577  -5.686 -26.176  0.00  0.00    +0.051 C 
ENDBRANCH  23  24
ENDBRANCH  18  23
ENDBRANCH  16  17
ENDBRANCH   1  16
TORSDOF 6
ENDMDL
MODEL 8
REMARK VINA RESULT:      -7.8      2.237      6.078
REMARK  Name = 127151
REMARK  6 active torsions:
REMARK  status: ('A' for Active; 'I' for Inactive)
REMARK    1  A    between atoms: C_1  and  C_4
REMARK    2  A    between atoms: C_1  and  C_10
REMARK    3  A    between atoms: C_1  and  O_16
REMARK    4  A    between atoms: O_16  and  C_17
REMARK    5  A    between atoms: C_18  and  O_23
REMARK    6  A    between atoms: O_23  and  C_24
REMARK                            x       y       z     vdW  Elec       q    Type
REMARK                         _______ _______ _______ _____ _____    ______ ____
ROOT
ATOM      1  C   UNL     1      32.655  -9.383 -23.101  0.00  0.00    +0.213 C 
ENDROOT
BRANCH   1   4
ATOM      2  O   UNL     1      33.360 -10.469 -25.108  0.00  0.00    -0.357 OA
ATOM      3  N   UNL     1      34.027 -12.875 -23.745  0.00  0.00    +0.387 N 
ATOM      4  C   UNL     1      33.552 -10.465 -23.688  0.00  0.00    +0.138 C 
ATOM      5  C   UNL     1      33.203 -11.841 -23.114  0.00  0.00    -0.047 C 
ATOM      6  C   UNL     1      33.858 -12.840 -25.197  0.00  0.00    -0.049 C 
ATOM      7  C   UNL     1      34.186 -11.452 -25.733  0.00  0.00    +0.119 C 
ATOM      8  H   UNL     1      33.746 -13.791 -23.394  0.00  0.00    -0.084 HD
ATOM      9  H   UNL     1      35.008 -12.703 -23.520  0.00  0.00    -0.084 HD
ENDBRANCH   1   4
BRANCH   1  10
ATOM     10  C   UNL     1      32.021  -9.816 -21.799  0.00  0.00    +0.020 C 
ATOM     11  C   UNL     1      32.404  -9.197 -20.620  0.00  0.00    -0.001 C 
ATOM     12  C   UNL     1      31.070 -10.823 -21.809  0.00  0.00    -0.001 C 
ATOM     13  C   UNL     1      31.818  -9.596 -19.418  0.00  0.00    -0.000 C 
ATOM     14  C   UNL     1      30.484 -11.222 -20.608  0.00  0.00    -0.000 C 
ATOM     15  C   UNL     1      30.858 -10.608 -19.412  0.00  0.00    -0.000 C 
ENDBRANCH   1  10
BRANCH   1  16
ATOM     16  O   UNL     1      33.416  -8.197 -22.880  0.00  0.00    -0.469 OA
BRANCH  16  17
ATOM     17  C   UNL     1      33.359  -7.242 -23.856  0.00  0.00    +0.173 C 
ATOM     18  C   UNL     1      32.191  -6.512 -24.059  0.00  0.00    +0.172 C 
ATOM     19  C   UNL     1      34.482  -7.008 -24.645  0.00  0.00    +0.040 C 
ATOM     20  C   UNL     1      32.146  -5.540 -25.059  0.00  0.00    +0.040 C 
ATOM     21  C   UNL     1      34.437  -6.036 -25.645  0.00  0.00    +0.003 C 
ATOM     22  C   UNL     1      33.269  -5.302 -25.852  0.00  0.00    +0.003 C 
BRANCH  18  23
ATOM     23  O   UNL     1      31.089  -6.734 -23.291  0.00  0.00    -0.472 OA
BRANCH  23  24
ATOM     24  C   UNL     1      30.673  -5.675 -22.431  0.00  0.00    +0.206 C 
ATOM     25  C   UNL     1      31.385  -5.810 -21.102  0.00  0.00    +0.051 C 
ENDBRANCH  23  24
ENDBRANCH  18  23
ENDBRANCH  16  17
ENDBRANCH   1  16
TORSDOF 6
ENDMDL
MODEL 9
REMARK VINA RESULT:      -7.7     12.717     15.245
REMARK  Name = 127151
REMARK  6 active torsions:
REMARK  status: ('A' for Active; 'I' for Inactive)
REMARK    1  A    between atoms: C_1  and  C_4
REMARK    2  A    between atoms: C_1  and  C_10
REMARK    3  A    between atoms: C_1  and  O_16
REMARK    4  A    between atoms: O_16  and  C_17
REMARK    5  A    between atoms: C_18  and  O_23
REMARK    6  A    between atoms: O_23  and  C_24
REMARK                            x       y       z     vdW  Elec       q    Type
REMARK                         _______ _______ _______ _____ _____    ______ ____
ROOT
ATOM      1  C   UNL     1      34.082 -23.918 -15.707  0.00  0.00    +0.213 C 
ENDROOT
BRANCH   1   4
ATOM      2  O   UNL     1      35.314 -23.936 -13.662  0.00  0.00    -0.357 OA
ATOM      3  N   UNL     1      36.408 -26.511 -14.174  0.00  0.00    +0.387 N 
ATOM      4  C   UNL     1      34.709 -24.797 -14.633  0.00  0.00    +0.138 C 
ATOM      5  C   UNL     1      35.768 -25.727 -15.232  0.00  0.00    -0.047 C 
ATOM      6  C   UNL     1      36.983 -25.622 -13.164  0.00  0.00    -0.049 C 
ATOM      7  C   UNL     1      35.911 -24.693 -12.608  0.00  0.00    +0.119 C 
ATOM      8  H   UNL     1      37.148 -27.084 -14.579  0.00  0.00    -0.084 HD
ATOM      9  H   UNL     1      35.709 -27.109 -13.732  0.00  0.00    -0.084 HD
ENDBRANCH   1   4
BRANCH   1  10
ATOM     10  C   UNL     1      32.648 -23.565 -15.386  0.00  0.00    +0.020 C 
ATOM     11  C   UNL     1      31.764 -23.311 -16.423  0.00  0.00    -0.001 C 
ATOM     12  C   UNL     1      32.245 -23.501 -14.062  0.00  0.00    -0.001 C 
ATOM     13  C   UNL     1      30.440 -22.985 -16.127  0.00  0.00    -0.000 C 
ATOM     14  C   UNL     1      30.921 -23.174 -13.766  0.00  0.00    -0.000 C 
ATOM     15  C   UNL     1      30.019 -22.917 -14.799  0.00  0.00    -0.000 C 
ENDBRANCH   1  10
BRANCH   1  16
ATOM     16  O   UNL     1      34.840 -22.718 -15.849  0.00  0.00    -0.469 OA
BRANCH  16  17
ATOM     17  C   UNL     1      35.212 -22.374 -17.118  0.00  0.00    +0.173 C 
ATOM     18  C   UNL     1      36.446 -21.773 -17.352  0.00  0.00    +0.172 C 
ATOM     19  C   UNL     1      34.342 -22.629 -18.175  0.00  0.00    +0.040 C 
ATOM     20  C   UNL     1      36.813 -21.426 -18.652  0.00  0.00    +0.040 C 
ATOM     21  C   UNL     1      34.709 -22.281 -19.475  0.00  0.00    +0.003 C 
ATOM     22  C   UNL     1      35.945 -21.679 -19.713  0.00  0.00    +0.003 C 
BRANCH  18  23
ATOM     23  O   UNL     1      37.303 -21.521 -16.323  0.00  0.00    -0.472 OA
BRANCH  23  24
ATOM     24  C   UNL     1      37.531 -22.580 -15.395  0.00  0.00    +0.206 C 
ATOM     25  C   UNL     1      38.565 -23.525 -15.969  0.00  0.00    +0.051 C 
ENDBRANCH  23  24
ENDBRANCH  18  23
ENDBRANCH  16  17
ENDBRANCH   1  16
TORSDOF 6
ENDMDL
