MODEL 1
REMARK VINA RESULT:      -7.0      0.000      0.000
REMARK  Name = 445994
REMARK  6 active torsions:
REMARK  status: ('A' for Active; 'I' for Inactive)
REMARK    1  A    between atoms: C_2  and  O_9
REMARK    2  A    between atoms: C_3  and  O_7
REMARK    3  A    between atoms: C_4  and  O_11
REMARK    4  A    between atoms: C_5  and  C_16
REMARK    5  A    between atoms: C_6  and  O_13
REMARK    6  A    between atoms: C_16  and  O_17
REMARK                            x       y       z     vdW  Elec       q    Type
REMARK                         _______ _______ _______ _____ _____    ______ ____
ROOT
ATOM      1  O   UNL     1      35.521 -25.130 -14.982  0.00  0.00    -0.317 OA
ATOM      2  C   UNL     1      35.682 -24.628 -12.144  0.00  0.00    +0.172 C 
ATOM      3  C   UNL     1      36.579 -25.658 -12.835  0.00  0.00    +0.183 C 
ATOM      4  C   UNL     1      34.411 -24.399 -12.960  0.00  0.00    +0.196 C 
ATOM      5  C   UNL     1      36.764 -25.331 -14.314  0.00  0.00    +0.245 C 
ATOM      6  C   UNL     1      34.746 -24.072 -14.416  0.00  0.00    +0.263 C 
ENDROOT
BRANCH   3   7
ATOM      7  O   UNL     1      37.859 -25.660 -12.205  0.00  0.00    -0.348 OA
ATOM      8  C   UNL     1      38.400 -24.349 -12.132  0.00  0.00    +0.174 C 
ENDBRANCH   3   7
BRANCH   2   9
ATOM      9  O   UNL     1      35.337 -25.139 -10.855  0.00  0.00    -0.379 OA
ATOM     10  H   UNL     1      36.098 -25.610 -10.480  0.00  0.00    +0.211 HD
ENDBRANCH   2   9
BRANCH   4  11
ATOM     11  O   UNL     1      33.652 -23.327 -12.408  0.00  0.00    -0.378 OA
ATOM     12  H   UNL     1      34.216 -22.801 -11.820  0.00  0.00    +0.211 HD
ENDBRANCH   4  11
BRANCH   6  13
ATOM     13  O   UNL     1      35.411 -22.814 -14.500  0.00  0.00    -0.358 OA
ATOM     14  H   UNL     1      35.045 -22.304 -15.239  0.00  0.00    +0.213 HD
ENDBRANCH   6  13
BRANCH   5  16
ATOM     15  O   UNL     1      36.784 -27.141 -15.910  0.00  0.00    -0.247 OA
ATOM     16  C   UNL     1      37.354 -26.494 -15.044  0.00  0.00    +0.344 C 
BRANCH  16  17
ATOM     17  O   UNL     1      38.615 -26.739 -14.614  0.00  0.00    -0.478 OA
ATOM     18  H   UNL     1      38.763 -27.341 -13.911  0.00  0.00    +0.295 HD
ENDBRANCH  16  17
ENDBRANCH   5  16
TORSDOF 6
ENDMDL
MODEL 2
REMARK VINA RESULT:      -6.9      1.099      4.509
REMARK  Name = 445994
REMARK  6 active torsions:
REMARK  status: ('A' for Active; 'I' for Inactive)
REMARK    1  A    between atoms: C_2  and  O_9
REMARK    2  A    between atoms: C_3  and  O_7
REMARK    3  A    between atoms: C_4  and  O_11
REMARK    4  A    between atoms: C_5  and  C_16
REMARK    5  A    between atoms: C_6  and  O_13
REMARK    6  A    between atoms: C_16  and  O_17
REMARK                            x       y       z     vdW  Elec       q    Type
REMARK                         _______ _______ _______ _____ _____    ______ ____
ROOT
ATOM      1  O   UNL     1      37.422 -25.379 -11.990  0.00  0.00    -0.317 OA
ATOM      2  C   UNL     1      37.116 -25.587 -14.853  0.00  0.00    +0.172 C 
ATOM      3  C   UNL     1      35.958 -25.167 -13.944  0.00  0.00    +0.183 C 
ATOM      4  C   UNL     1      38.142 -26.398 -14.063  0.00  0.00    +0.196 C 
ATOM      5  C   UNL     1      36.466 -24.548 -12.645  0.00  0.00    +0.245 C 
ATOM      6  C   UNL     1      38.568 -25.657 -12.795  0.00  0.00    +0.263 C 
ENDROOT
BRANCH   3   7
ATOM      7  O   UNL     1      35.158 -24.201 -14.625  0.00  0.00    -0.348 OA
ATOM      8  C   UNL     1      35.947 -23.127 -15.112  0.00  0.00    +0.174 C 
ENDBRANCH   3   7
BRANCH   2   9
ATOM      9  O   UNL     1      36.580 -26.390 -15.906  0.00  0.00    -0.379 OA
ATOM     10  H   UNL     1      36.173 -27.186 -15.530  0.00  0.00    +0.211 HD
ENDBRANCH   2   9
BRANCH   4  11
ATOM     11  O   UNL     1      39.295 -26.652 -14.860  0.00  0.00    -0.378 OA
ATOM     12  H   UNL     1      39.325 -27.593 -15.095  0.00  0.00    +0.211 HD
ENDBRANCH   4  11
BRANCH   6  13
ATOM     13  O   UNL     1      39.287 -24.472 -13.133  0.00  0.00    -0.358 OA
ATOM     14  H   UNL     1      38.879 -23.710 -12.693  0.00  0.00    +0.213 HD
ENDBRANCH   6  13
BRANCH   5  16
ATOM     15  O   UNL     1      35.301 -25.085 -10.601  0.00  0.00    -0.247 OA
ATOM     16  C   UNL     1      35.365 -24.446 -11.641  0.00  0.00    +0.344 C 
BRANCH  16  17
ATOM     17  O   UNL     1      34.436 -23.543 -12.040  0.00  0.00    -0.478 OA
ATOM     18  H   UNL     1      33.617 -23.482 -11.587  0.00  0.00    +0.295 HD
ENDBRANCH  16  17
ENDBRANCH   5  16
TORSDOF 6
ENDMDL
MODEL 3
REMARK VINA RESULT:      -6.9      1.707      4.254
REMARK  Name = 445994
REMARK  6 active torsions:
REMARK  status: ('A' for Active; 'I' for Inactive)
REMARK    1  A    between atoms: C_2  and  O_9
REMARK    2  A    between atoms: C_3  and  O_7
REMARK    3  A    between atoms: C_4  and  O_11
REMARK    4  A    between atoms: C_5  and  C_16
REMARK    5  A    between atoms: C_6  and  O_13
REMARK    6  A    between atoms: C_16  and  O_17
REMARK                            x       y       z     vdW  Elec       q    Type
REMARK                         _______ _______ _______ _____ _____    ______ ____
ROOT
ATOM      1  O   UNL     1      38.142 -25.782 -13.178  0.00  0.00    -0.317 OA
ATOM      2  C   UNL     1      36.368 -25.018 -15.323  0.00  0.00    +0.172 C 
ATOM      3  C   UNL     1      36.514 -24.173 -14.055  0.00  0.00    +0.183 C 
ATOM      4  C   UNL     1      36.761 -26.468 -15.043  0.00  0.00    +0.196 C 
ATOM      5  C   UNL     1      37.868 -24.398 -13.389  0.00  0.00    +0.245 C 
ATOM      6  C   UNL     1      38.140 -26.544 -14.385  0.00  0.00    +0.263 C 
ENDROOT
BRANCH   3   7
ATOM      7  O   UNL     1      36.400 -22.793 -14.399  0.00  0.00    -0.348 OA
ATOM      8  C   UNL     1      37.239 -22.462 -15.495  0.00  0.00    +0.174 C 
ENDBRANCH   3   7
BRANCH   2   9
ATOM      9  O   UNL     1      35.000 -24.964 -15.733  0.00  0.00    -0.379 OA
ATOM     10  H   UNL     1      34.595 -24.149 -15.398  0.00  0.00    +0.211 HD
ENDBRANCH   2   9
BRANCH   4  11
ATOM     11  O   UNL     1      36.783 -27.220 -16.252  0.00  0.00    -0.378 OA
ATOM     12  H   UNL     1      36.271 -26.754 -16.932  0.00  0.00    +0.211 HD
ENDBRANCH   4  11
BRANCH   6  13
ATOM     13  O   UNL     1      39.147 -26.110 -15.297  0.00  0.00    -0.358 OA
ATOM     14  H   UNL     1      40.021 -26.350 -14.951  0.00  0.00    +0.213 HD
ENDBRANCH   6  13
BRANCH   5  16
ATOM     15  O   UNL     1      37.608 -24.466 -10.991  0.00  0.00    -0.247 OA
ATOM     16  C   UNL     1      37.878 -23.838 -12.004  0.00  0.00    +0.344 C 
BRANCH  16  17
ATOM     17  O   UNL     1      38.227 -22.529 -12.020  0.00  0.00    -0.478 OA
ATOM     18  H   UNL     1      38.527 -22.133 -12.815  0.00  0.00    +0.295 HD
ENDBRANCH  16  17
ENDBRANCH   5  16
TORSDOF 6
ENDMDL
MODEL 4
REMARK VINA RESULT:      -6.8      1.791      3.577
REMARK  Name = 445994
REMARK  6 active torsions:
REMARK  status: ('A' for Active; 'I' for Inactive)
REMARK    1  A    between atoms: C_2  and  O_9
REMARK    2  A    between atoms: C_3  and  O_7
REMARK    3  A    between atoms: C_4  and  O_11
REMARK    4  A    between atoms: C_5  and  C_16
REMARK    5  A    between atoms: C_6  and  O_13
REMARK    6  A    between atoms: C_16  and  O_17
REMARK                            x       y       z     vdW  Elec       q    Type
REMARK                         _______ _______ _______ _____ _____    ______ ____
ROOT
ATOM      1  O   UNL     1      39.321 -24.618 -13.120  0.00  0.00    -0.317 OA
ATOM      2  C   UNL     1      36.747 -24.669 -14.425  0.00  0.00    +0.172 C 
ATOM      3  C   UNL     1      37.979 -25.336 -15.041  0.00  0.00    +0.183 C 
ATOM      4  C   UNL     1      37.169 -23.564 -13.458  0.00  0.00    +0.196 C 
ATOM      5  C   UNL     1      38.999 -25.716 -13.972  0.00  0.00    +0.245 C 
ATOM      6  C   UNL     1      38.184 -24.085 -12.440  0.00  0.00    +0.263 C 
ENDROOT
BRANCH   3   7
ATOM      7  O   UNL     1      37.574 -26.521 -15.725  0.00  0.00    -0.348 OA
ATOM      8  C   UNL     1      36.857 -27.394 -14.866  0.00  0.00    +0.174 C 
ENDBRANCH   3   7
BRANCH   2   9
ATOM      9  O   UNL     1      35.974 -24.106 -15.487  0.00  0.00    -0.379 OA
ATOM     10  H   UNL     1      35.111 -23.823 -15.144  0.00  0.00    +0.211 HD
ENDBRANCH   2   9
BRANCH   4  11
ATOM     11  O   UNL     1      36.037 -23.051 -12.763  0.00  0.00    -0.378 OA
ATOM     12  H   UNL     1      35.314 -23.697 -12.803  0.00  0.00    +0.211 HD
ENDBRANCH   4  11
BRANCH   6  13
ATOM     13  O   UNL     1      37.572 -25.046 -11.581  0.00  0.00    -0.358 OA
ATOM     14  H   UNL     1      37.486 -24.672 -10.690  0.00  0.00    +0.213 HD
ENDBRANCH   6  13
BRANCH   5  16
ATOM     15  O   UNL     1      41.260 -26.557 -14.002  0.00  0.00    -0.247 OA
ATOM     16  C   UNL     1      40.315 -26.056 -14.592  0.00  0.00    +0.344 C 
BRANCH  16  17
ATOM     17  O   UNL     1      40.321 -25.732 -15.908  0.00  0.00    -0.478 OA
ATOM     18  H   UNL     1      39.848 -24.981 -16.209  0.00  0.00    +0.295 HD
ENDBRANCH  16  17
ENDBRANCH   5  16
TORSDOF 6
ENDMDL
MODEL 5
REMARK VINA RESULT:      -6.7      2.103      3.369
REMARK  Name = 445994
REMARK  6 active torsions:
REMARK  status: ('A' for Active; 'I' for Inactive)
REMARK    1  A    between atoms: C_2  and  O_9
REMARK    2  A    between atoms: C_3  and  O_7
REMARK    3  A    between atoms: C_4  and  O_11
REMARK    4  A    between atoms: C_5  and  C_16
REMARK    5  A    between atoms: C_6  and  O_13
REMARK    6  A    between atoms: C_16  and  O_17
REMARK                            x       y       z     vdW  Elec       q    Type
REMARK                         _______ _______ _______ _____ _____    ______ ____
ROOT
ATOM      1  O   UNL     1      38.597 -26.268 -13.634  0.00  0.00    -0.317 OA
ATOM      2  C   UNL     1      36.799 -24.019 -13.434  0.00  0.00    +0.172 C 
ATOM      3  C   UNL     1      38.166 -23.903 -14.112  0.00  0.00    +0.183 C 
ATOM      4  C   UNL     1      36.796 -25.179 -12.441  0.00  0.00    +0.196 C 
ATOM      5  C   UNL     1      38.645 -25.254 -14.635  0.00  0.00    +0.245 C 
ATOM      6  C   UNL     1      37.288 -26.467 -13.101  0.00  0.00    +0.263 C 
ENDROOT
BRANCH   3   7
ATOM      7  O   UNL     1      38.068 -22.998 -15.210  0.00  0.00    -0.348 OA
ATOM      8  C   UNL     1      36.843 -23.165 -15.909  0.00  0.00    +0.174 C 
ENDBRANCH   3   7
BRANCH   2   9
ATOM      9  O   UNL     1      36.545 -22.795 -12.742  0.00  0.00    -0.379 OA
ATOM     10  H   UNL     1      36.844 -22.876 -11.822  0.00  0.00    +0.211 HD
ENDBRANCH   2   9
BRANCH   4  11
ATOM     11  O   UNL     1      35.484 -25.393 -11.929  0.00  0.00    -0.378 OA
ATOM     12  H   UNL     1      35.039 -26.076 -12.456  0.00  0.00    +0.211 HD
ENDBRANCH   4  11
BRANCH   6  13
ATOM     13  O   UNL     1      36.362 -26.897 -14.097  0.00  0.00    -0.358 OA
ATOM     14  H   UNL     1      36.369 -27.865 -14.149  0.00  0.00    +0.213 HD
ENDBRANCH   6  13
BRANCH   5  16
ATOM     15  O   UNL     1      40.954 -24.614 -14.352  0.00  0.00    -0.247 OA
ATOM     16  C   UNL     1      40.095 -25.201 -14.992  0.00  0.00    +0.344 C 
BRANCH  16  17
ATOM     17  O   UNL     1      40.333 -25.895 -16.131  0.00  0.00    -0.478 OA
ATOM     18  H   UNL     1      40.393 -25.444 -16.951  0.00  0.00    +0.295 HD
ENDBRANCH  16  17
ENDBRANCH   5  16
TORSDOF 6
ENDMDL
MODEL 6
REMARK VINA RESULT:      -6.7      1.896      3.831
REMARK  Name = 445994
REMARK  6 active torsions:
REMARK  status: ('A' for Active; 'I' for Inactive)
REMARK    1  A    between atoms: C_2  and  O_9
REMARK    2  A    between atoms: C_3  and  O_7
REMARK    3  A    between atoms: C_4  and  O_11
REMARK    4  A    between atoms: C_5  and  C_16
REMARK    5  A    between atoms: C_6  and  O_13
REMARK    6  A    between atoms: C_16  and  O_17
REMARK                            x       y       z     vdW  Elec       q    Type
REMARK                         _______ _______ _______ _____ _____    ______ ____
ROOT
ATOM      1  O   UNL     1      35.184 -23.557 -12.830  0.00  0.00    -0.317 OA
ATOM      2  C   UNL     1      37.179 -23.892 -14.889  0.00  0.00    +0.172 C 
ATOM      3  C   UNL     1      37.559 -23.627 -13.431  0.00  0.00    +0.183 C 
ATOM      4  C   UNL     1      35.768 -23.379 -15.171  0.00  0.00    +0.196 C 
ATOM      5  C   UNL     1      36.460 -24.086 -12.477  0.00  0.00    +0.245 C 
ATOM      6  C   UNL     1      34.772 -23.923 -14.147  0.00  0.00    +0.263 C 
ENDROOT
BRANCH   3   7
ATOM      7  O   UNL     1      38.756 -24.340 -13.123  0.00  0.00    -0.348 OA
ATOM      8  C   UNL     1      38.590 -25.736 -13.323  0.00  0.00    +0.174 C 
ENDBRANCH   3   7
BRANCH   2   9
ATOM      9  O   UNL     1      38.114 -23.202 -15.720  0.00  0.00    -0.379 OA
ATOM     10  H   UNL     1      38.654 -22.609 -15.175  0.00  0.00    +0.211 HD
ENDBRANCH   2   9
BRANCH   4  11
ATOM     11  O   UNL     1      35.349 -23.766 -16.476  0.00  0.00    -0.378 OA
ATOM     12  H   UNL     1      34.496 -23.350 -16.679  0.00  0.00    +0.211 HD
ENDBRANCH   4  11
BRANCH   6  13
ATOM     13  O   UNL     1      34.634 -25.335 -14.294  0.00  0.00    -0.358 OA
ATOM     14  H   UNL     1      33.730 -25.597 -14.060  0.00  0.00    +0.213 HD
ENDBRANCH   6  13
BRANCH   5  16
ATOM     15  O   UNL     1      36.291 -24.049 -10.070  0.00  0.00    -0.247 OA
ATOM     16  C   UNL     1      36.684 -23.535 -11.106  0.00  0.00    +0.344 C 
BRANCH  16  17
ATOM     17  O   UNL     1      37.387 -22.377 -11.164  0.00  0.00    -0.478 OA
ATOM     18  H   UNL     1      38.261 -22.342 -10.829  0.00  0.00    +0.295 HD
ENDBRANCH  16  17
ENDBRANCH   5  16
TORSDOF 6
ENDMDL
MODEL 7
REMARK VINA RESULT:      -6.6      1.874      2.856
REMARK  Name = 445994
REMARK  6 active torsions:
REMARK  status: ('A' for Active; 'I' for Inactive)
REMARK    1  A    between atoms: C_2  and  O_9
REMARK    2  A    between atoms: C_3  and  O_7
REMARK    3  A    between atoms: C_4  and  O_11
REMARK    4  A    between atoms: C_5  and  C_16
REMARK    5  A    between atoms: C_6  and  O_13
REMARK    6  A    between atoms: C_16  and  O_17
REMARK                            x       y       z     vdW  Elec       q    Type
REMARK                         _______ _______ _______ _____ _____    ______ ____
ROOT
ATOM      1  O   UNL     1      36.360 -23.024 -13.584  0.00  0.00    -0.317 OA
ATOM      2  C   UNL     1      37.094 -25.646 -12.627  0.00  0.00    +0.172 C 
ATOM      3  C   UNL     1      37.341 -25.215 -14.074  0.00  0.00    +0.183 C 
ATOM      4  C   UNL     1      35.964 -24.822 -12.014  0.00  0.00    +0.196 C 
ATOM      5  C   UNL     1      37.459 -23.698 -14.191  0.00  0.00    +0.245 C 
ATOM      6  C   UNL     1      36.216 -23.325 -12.195  0.00  0.00    +0.263 C 
ENDROOT
BRANCH   3   7
ATOM      7  O   UNL     1      38.558 -25.803 -14.535  0.00  0.00    -0.348 OA
ATOM      8  C   UNL     1      39.651 -25.447 -13.702  0.00  0.00    +0.174 C 
ENDBRANCH   3   7
BRANCH   2   9
ATOM      9  O   UNL     1      36.729 -27.027 -12.635  0.00  0.00    -0.379 OA
ATOM     10  H   UNL     1      37.459 -27.557 -12.277  0.00  0.00    +0.211 HD
ENDBRANCH   2   9
BRANCH   4  11
ATOM     11  O   UNL     1      35.839 -25.105 -10.624  0.00  0.00    -0.378 OA
ATOM     12  H   UNL     1      35.913 -26.062 -10.481  0.00  0.00    +0.211 HD
ENDBRANCH   4  11
BRANCH   6  13
ATOM     13  O   UNL     1      37.355 -22.920 -11.437  0.00  0.00    -0.358 OA
ATOM     14  H   UNL     1      37.356 -21.954 -11.347  0.00  0.00    +0.213 HD
ENDBRANCH   6  13
BRANCH   5  16
ATOM     15  O   UNL     1      36.331 -23.047 -16.222  0.00  0.00    -0.247 OA
ATOM     16  C   UNL     1      37.370 -23.268 -15.619  0.00  0.00    +0.344 C 
BRANCH  16  17
ATOM     17  O   UNL     1      38.606 -23.155 -16.163  0.00  0.00    -0.478 OA
ATOM     18  H   UNL     1      38.908 -22.324 -16.473  0.00  0.00    +0.295 HD
ENDBRANCH  16  17
ENDBRANCH   5  16
TORSDOF 6
ENDMDL
MODEL 8
REMARK VINA RESULT:      -6.5      2.153      2.997
REMARK  Name = 445994
REMARK  6 active torsions:
REMARK  status: ('A' for Active; 'I' for Inactive)
REMARK    1  A    between atoms: C_2  and  O_9
REMARK    2  A    between atoms: C_3  and  O_7
REMARK    3  A    between atoms: C_4  and  O_11
REMARK    4  A    between atoms: C_5  and  C_16
REMARK    5  A    between atoms: C_6  and  O_13
REMARK    6  A    between atoms: C_16  and  O_17
REMARK                            x       y       z     vdW  Elec       q    Type
REMARK                         _______ _______ _______ _____ _____    ______ ____
ROOT
ATOM      1  O   UNL     1      38.861 -23.980 -15.411  0.00  0.00    -0.317 OA
ATOM      2  C   UNL     1      36.355 -25.214 -14.682  0.00  0.00    +0.172 C 
ATOM      3  C   UNL     1      37.667 -26.003 -14.711  0.00  0.00    +0.183 C 
ATOM      4  C   UNL     1      36.448 -23.995 -15.598  0.00  0.00    +0.196 C 
ATOM      5  C   UNL     1      38.871 -25.087 -14.513  0.00  0.00    +0.245 C 
ATOM      6  C   UNL     1      37.694 -23.166 -15.282  0.00  0.00    +0.263 C 
ENDROOT
BRANCH   3   7
ATOM      7  O   UNL     1      37.653 -26.971 -13.663  0.00  0.00    -0.348 OA
ATOM      8  C   UNL     1      37.387 -26.367 -12.406  0.00  0.00    +0.174 C 
ENDBRANCH   3   7
BRANCH   2   9
ATOM      9  O   UNL     1      35.312 -26.077 -15.138  0.00  0.00    -0.379 OA
ATOM     10  H   UNL     1      35.293 -26.878 -14.591  0.00  0.00    +0.211 HD
ENDBRANCH   2   9
BRANCH   4  11
ATOM     11  O   UNL     1      35.295 -23.172 -15.450  0.00  0.00    -0.378 OA
ATOM     12  H   UNL     1      35.384 -22.633 -14.648  0.00  0.00    +0.211 HD
ENDBRANCH   4  11
BRANCH   6  13
ATOM     13  O   UNL     1      37.585 -22.584 -13.985  0.00  0.00    -0.358 OA
ATOM     14  H   UNL     1      38.165 -23.057 -13.369  0.00  0.00    +0.213 HD
ENDBRANCH   6  13
BRANCH   5  16
ATOM     15  O   UNL     1      40.585 -25.912 -15.998  0.00  0.00    -0.247 OA
ATOM     16  C   UNL     1      40.139 -25.795 -14.867  0.00  0.00    +0.344 C 
BRANCH  16  17
ATOM     17  O   UNL     1      40.733 -26.296 -13.756  0.00  0.00    -0.478 OA
ATOM     18  H   UNL     1      41.610 -26.046 -13.541  0.00  0.00    +0.295 HD
ENDBRANCH  16  17
ENDBRANCH   5  16
TORSDOF 6
ENDMDL
MODEL 9
REMARK VINA RESULT:      -6.5      1.752      3.275
REMARK  Name = 445994
REMARK  6 active torsions:
REMARK  status: ('A' for Active; 'I' for Inactive)
REMARK    1  A    between atoms: C_2  and  O_9
REMARK    2  A    between atoms: C_3  and  O_7
REMARK    3  A    between atoms: C_4  and  O_11
REMARK    4  A    between atoms: C_5  and  C_16
REMARK    5  A    between atoms: C_6  and  O_13
REMARK    6  A    between atoms: C_16  and  O_17
REMARK                            x       y       z     vdW  Elec       q    Type
REMARK                         _______ _______ _______ _____ _____    ______ ____
ROOT
ATOM      1  O   UNL     1      37.601 -22.979 -13.068  0.00  0.00    -0.317 OA
ATOM      2  C   UNL     1      35.329 -24.734 -12.769  0.00  0.00    +0.172 C 
ATOM      3  C   UNL     1      35.780 -24.221 -14.139  0.00  0.00    +0.183 C 
ATOM      4  C   UNL     1      35.803 -23.789 -11.667  0.00  0.00    +0.196 C 
ATOM      5  C   UNL     1      37.262 -23.859 -14.138  0.00  0.00    +0.245 C 
ATOM      6  C   UNL     1      37.304 -23.521 -11.781  0.00  0.00    +0.263 C 
ENDROOT
BRANCH   3   7
ATOM      7  O   UNL     1      35.562 -25.240 -15.114  0.00  0.00    -0.348 OA
ATOM      8  C   UNL     1      36.491 -26.303 -14.967  0.00  0.00    +0.174 C 
ENDBRANCH   3   7
BRANCH   2   9
ATOM      9  O   UNL     1      33.902 -24.793 -12.769  0.00  0.00    -0.379 OA
ATOM     10  H   UNL     1      33.613 -25.630 -12.372  0.00  0.00    +0.211 HD
ENDBRANCH   2   9
BRANCH   4  11
ATOM     11  O   UNL     1      35.528 -24.343 -10.384  0.00  0.00    -0.378 OA
ATOM     12  H   UNL     1      34.577 -24.276 -10.200  0.00  0.00    +0.211 HD
ENDBRANCH   4  11
BRANCH   6  13
ATOM     13  O   UNL     1      38.040 -24.714 -11.517  0.00  0.00    -0.358 OA
ATOM     14  H   UNL     1      38.953 -24.605 -11.827  0.00  0.00    +0.213 HD
ENDBRANCH   6  13
BRANCH   5  16
ATOM     15  O   UNL     1      36.957 -22.135 -15.799  0.00  0.00    -0.247 OA
ATOM     16  C   UNL     1      37.615 -23.063 -15.352  0.00  0.00    +0.344 C 
BRANCH  16  17
ATOM     17  O   UNL     1      38.770 -23.512 -15.900  0.00  0.00    -0.478 OA
ATOM     18  H   UNL     1      39.225 -22.989 -16.531  0.00  0.00    +0.295 HD
ENDBRANCH  16  17
ENDBRANCH   5  16
TORSDOF 6
ENDMDL
