MODEL 1
REMARK VINA RESULT:      -8.7      0.000      0.000
REMARK  Name = 5212
REMARK  7 active torsions:
REMARK  status: ('A' for Active; 'I' for Inactive)
REMARK    1  A    between atoms: C_1  and  S_22
REMARK    2  A    between atoms: C_3  and  C_12
REMARK    3  A    between atoms: C_5  and  O_33
REMARK    4  A    between atoms: C_14  and  C_19
REMARK    5  A    between atoms: C_19  and  C_20
REMARK    6  A    between atoms: S_22  and  N_25
REMARK    7  A    between atoms: O_33  and  C_34
REMARK                            x       y       z     vdW  Elec       q    Type
REMARK                         _______ _______ _______ _____ _____    ______ ____
ROOT
ATOM      1  C   UNL     1      33.667 -14.894 -23.519  0.00  0.00    +0.123 C 
ATOM      2  C   UNL     1      33.901 -13.581 -23.895  0.00  0.00    +0.027 C 
ATOM      3  C   UNL     1      33.274 -12.548 -23.198  0.00  0.00    +0.080 C 
ATOM      4  C   UNL     1      32.823 -15.201 -22.464  0.00  0.00    +0.023 C 
ATOM      5  C   UNL     1      32.421 -12.842 -22.134  0.00  0.00    +0.142 C 
ATOM      6  C   UNL     1      32.196 -14.168 -21.767  0.00  0.00    +0.038 C 
ENDROOT
BRANCH   3  12
ATOM      7  O   UNL     1      35.691  -9.439 -25.767  0.00  0.00    -0.208 OA
ATOM      8  N   UNL     1      32.742 -10.131 -23.029  0.00  0.00    -0.284 N 
ATOM      9  N   UNL     1      33.996  -7.288 -24.528  0.00  0.00    -0.236 N 
ATOM     10  N   UNL     1      33.072  -6.647 -23.777  0.00  0.00    -0.172 NA
ATOM     11  N   UNL     1      34.487 -10.938 -24.491  0.00  0.00    -0.316 NA
ATOM     12  C   UNL     1      33.530 -11.129 -23.610  0.00  0.00    +0.200 C 
ATOM     13  C   UNL     1      33.010  -8.880 -23.435  0.00  0.00    +0.095 A 
ATOM     14  C   UNL     1      32.470  -7.637 -23.105  0.00  0.00    +0.094 A 
ATOM     15  C   UNL     1      33.995  -8.640 -24.352  0.00  0.00    +0.187 A 
ATOM     16  C   UNL     1      34.808  -9.664 -24.947  0.00  0.00    +0.225 C 
ATOM     17  C   UNL     1      34.853  -6.518 -25.398  0.00  0.00    +0.155 C 
ATOM     18  H   UNL     1      32.040 -10.331 -22.369  0.00  0.00    +0.155 HD
BRANCH  14  19
ATOM     19  C   UNL     1      31.383  -7.330 -22.162  0.00  0.00    +0.049 C 
BRANCH  19  20
ATOM     20  C   UNL     1      31.837  -6.462 -20.972  0.00  0.00    +0.006 C 
ATOM     21  C   UNL     1      32.629  -7.255 -19.945  0.00  0.00    +0.000 C 
ENDBRANCH  19  20
ENDBRANCH  14  19
ENDBRANCH   3  12
BRANCH   1  22
ATOM     22  S   UNL     1      34.460 -16.201 -24.400  0.00  0.00    +0.063 S 
ATOM     23  O   UNL     1      33.545 -16.665 -25.420  0.00  0.00    -0.153 OA
ATOM     24  O   UNL     1      35.797 -15.762 -24.741  0.00  0.00    -0.153 OA
BRANCH  22  25
ATOM     25  N   UNL     1      34.561 -17.379 -23.162  0.00  0.00    -0.160 NA
ATOM     26  N   UNL     1      35.425 -19.502 -21.424  0.00  0.00    +0.387 N 
ATOM     27  C   UNL     1      35.620 -17.147 -22.139  0.00  0.00    +0.073 C 
ATOM     28  C   UNL     1      34.553 -18.797 -23.622  0.00  0.00    +0.073 C 
ATOM     29  C   UNL     1      35.416 -18.105 -20.966  0.00  0.00    -0.058 C 
ATOM     30  C   UNL     1      34.369 -19.723 -22.422  0.00  0.00    -0.058 C 
ATOM     31  C   UNL     1      35.265 -20.415 -20.293  0.00  0.00    -0.101 C 
ATOM     32  H   UNL     1      36.327 -19.690 -21.863  0.00  0.00    -0.080 HD
ENDBRANCH  22  25
ENDBRANCH   1  22
BRANCH   5  33
ATOM     33  O   UNL     1      31.800 -11.846 -21.441  0.00  0.00    -0.475 OA
BRANCH  33  34
ATOM     34  C   UNL     1      31.841 -11.926 -20.018  0.00  0.00    +0.206 C 
ATOM     35  C   UNL     1      31.138 -10.719 -19.436  0.00  0.00    +0.051 C 
ENDBRANCH  33  34
ENDBRANCH   5  33
TORSDOF 7
ENDMDL
MODEL 2
REMARK VINA RESULT:      -8.6      3.036      9.356
REMARK  Name = 5212
REMARK  7 active torsions:
REMARK  status: ('A' for Active; 'I' for Inactive)
REMARK    1  A    between atoms: C_1  and  S_22
REMARK    2  A    between atoms: C_3  and  C_12
REMARK    3  A    between atoms: C_5  and  O_33
REMARK    4  A    between atoms: C_14  and  C_19
REMARK    5  A    between atoms: C_19  and  C_20
REMARK    6  A    between atoms: S_22  and  N_25
REMARK    7  A    between atoms: O_33  and  C_34
REMARK                            x       y       z     vdW  Elec       q    Type
REMARK                         _______ _______ _______ _____ _____    ______ ____
ROOT
ATOM      1  C   UNL     1      32.863  -8.659 -23.190  0.00  0.00    +0.123 C 
ATOM      2  C   UNL     1      32.838 -10.026 -23.412  0.00  0.00    +0.027 C 
ATOM      3  C   UNL     1      33.881 -10.624 -24.118  0.00  0.00    +0.080 C 
ATOM      4  C   UNL     1      33.904  -7.873 -23.656  0.00  0.00    +0.023 C 
ATOM      5  C   UNL     1      34.937  -9.845 -24.594  0.00  0.00    +0.142 C 
ATOM      6  C   UNL     1      34.949  -8.470 -24.362  0.00  0.00    +0.038 C 
ENDROOT
BRANCH   3  12
ATOM      7  O   UNL     1      33.170 -14.255 -27.019  0.00  0.00    -0.208 OA
ATOM      8  N   UNL     1      34.161 -12.942 -23.282  0.00  0.00    -0.284 N 
ATOM      9  N   UNL     1      33.846 -16.064 -24.715  0.00  0.00    -0.236 N 
ATOM     10  N   UNL     1      34.188 -16.515 -23.487  0.00  0.00    -0.172 NA
ATOM     11  N   UNL     1      33.525 -12.496 -25.569  0.00  0.00    -0.316 NA
ATOM     12  C   UNL     1      33.849 -12.103 -24.356  0.00  0.00    +0.200 C 
ATOM     13  C   UNL     1      34.121 -14.256 -23.550  0.00  0.00    +0.095 A 
ATOM     14  C   UNL     1      34.354 -15.393 -22.775  0.00  0.00    +0.094 A 
ATOM     15  C   UNL     1      33.791 -14.705 -24.798  0.00  0.00    +0.187 A 
ATOM     16  C   UNL     1      33.467 -13.845 -25.903  0.00  0.00    +0.225 C 
ATOM     17  C   UNL     1      33.580 -17.018 -25.766  0.00  0.00    +0.155 C 
ATOM     18  H   UNL     1      34.393 -12.593 -22.391  0.00  0.00    +0.155 HD
BRANCH  14  19
ATOM     19  C   UNL     1      34.739 -15.473 -21.356  0.00  0.00    +0.049 C 
BRANCH  19  20
ATOM     20  C   UNL     1      33.637 -14.980 -20.399  0.00  0.00    +0.006 C 
ATOM     21  C   UNL     1      32.304 -15.670 -20.643  0.00  0.00    +0.000 C 
ENDBRANCH  19  20
ENDBRANCH  14  19
ENDBRANCH   3  12
BRANCH   1  22
ATOM     22  S   UNL     1      31.542  -7.903 -22.296  0.00  0.00    +0.063 S 
ATOM     23  O   UNL     1      30.321  -8.603 -22.634  0.00  0.00    -0.153 OA
ATOM     24  O   UNL     1      31.962  -7.758 -20.919  0.00  0.00    -0.153 OA
BRANCH  22  25
ATOM     25  N   UNL     1      31.524  -6.359 -23.038  0.00  0.00    -0.160 NA
ATOM     26  N   UNL     1      30.717  -3.903 -24.298  0.00  0.00    +0.387 N 
ATOM     27  C   UNL     1      30.866  -5.277 -22.252  0.00  0.00    +0.073 C 
ATOM     28  C   UNL     1      31.088  -6.338 -24.463  0.00  0.00    +0.073 C 
ATOM     29  C   UNL     1      31.164  -3.925 -22.898  0.00  0.00    -0.058 C 
ATOM     30  C   UNL     1      31.381  -4.965 -25.066  0.00  0.00    -0.058 C 
ATOM     31  C   UNL     1      30.973  -2.595 -24.900  0.00  0.00    -0.101 C 
ATOM     32  H   UNL     1      29.711  -4.073 -24.316  0.00  0.00    -0.080 HD
ENDBRANCH  22  25
ENDBRANCH   1  22
BRANCH   5  33
ATOM     33  O   UNL     1      35.966 -10.411 -25.285  0.00  0.00    -0.475 OA
BRANCH  33  34
ATOM     34  C   UNL     1      36.084 -10.067 -26.664  0.00  0.00    +0.206 C 
ATOM     35  C   UNL     1      35.683 -11.259 -27.506  0.00  0.00    +0.051 C 
ENDBRANCH  33  34
ENDBRANCH   5  33
TORSDOF 7
ENDMDL
MODEL 3
REMARK VINA RESULT:      -8.4      5.508     12.661
REMARK  Name = 5212
REMARK  7 active torsions:
REMARK  status: ('A' for Active; 'I' for Inactive)
REMARK    1  A    between atoms: C_1  and  S_22
REMARK    2  A    between atoms: C_3  and  C_12
REMARK    3  A    between atoms: C_5  and  O_33
REMARK    4  A    between atoms: C_14  and  C_19
REMARK    5  A    between atoms: C_19  and  C_20
REMARK    6  A    between atoms: S_22  and  N_25
REMARK    7  A    between atoms: O_33  and  C_34
REMARK                            x       y       z     vdW  Elec       q    Type
REMARK                         _______ _______ _______ _____ _____    ______ ____
ROOT
ATOM      1  C   UNL     1      34.822 -20.138 -20.730  0.00  0.00    +0.123 C 
ATOM      2  C   UNL     1      35.413 -20.758 -19.641  0.00  0.00    +0.027 C 
ATOM      3  C   UNL     1      34.640 -21.580 -18.821  0.00  0.00    +0.080 C 
ATOM      4  C   UNL     1      33.480 -20.317 -21.020  0.00  0.00    +0.023 C 
ATOM      5  C   UNL     1      33.287 -21.770 -19.100  0.00  0.00    +0.142 C 
ATOM      6  C   UNL     1      32.706 -21.139 -20.201  0.00  0.00    +0.038 C 
ENDROOT
BRANCH   3  12
ATOM      7  O   UNL     1      38.502 -22.592 -16.337  0.00  0.00    -0.208 OA
ATOM      8  N   UNL     1      34.457 -22.955 -16.764  0.00  0.00    -0.284 N 
ATOM      9  N   UNL     1      36.730 -24.108 -14.440  0.00  0.00    -0.236 N 
ATOM     10  N   UNL     1      35.647 -24.666 -13.855  0.00  0.00    -0.172 NA
ATOM     11  N   UNL     1      36.587 -22.115 -17.534  0.00  0.00    -0.316 NA
ATOM     12  C   UNL     1      35.283 -22.248 -17.643  0.00  0.00    +0.200 C 
ATOM     13  C   UNL     1      35.083 -23.531 -15.727  0.00  0.00    +0.095 A 
ATOM     14  C   UNL     1      34.636 -24.306 -14.657  0.00  0.00    +0.094 A 
ATOM     15  C   UNL     1      36.437 -23.414 -15.575  0.00  0.00    +0.187 A 
ATOM     16  C   UNL     1      37.288 -22.691 -16.479  0.00  0.00    +0.225 C 
ATOM     17  C   UNL     1      38.029 -24.295 -13.837  0.00  0.00    +0.155 C 
ATOM     18  H   UNL     1      33.485 -23.027 -16.898  0.00  0.00    +0.155 HD
BRANCH  14  19
ATOM     19  C   UNL     1      33.262 -24.734 -14.344  0.00  0.00    +0.049 C 
BRANCH  19  20
ATOM     20  C   UNL     1      32.447 -23.662 -13.595  0.00  0.00    +0.006 C 
ATOM     21  C   UNL     1      31.016 -24.101 -13.329  0.00  0.00    +0.000 C 
ENDBRANCH  19  20
ENDBRANCH  14  19
ENDBRANCH   3  12
BRANCH   1  22
ATOM     22  S   UNL     1      35.800 -19.098 -21.769  0.00  0.00    +0.063 S 
ATOM     23  O   UNL     1      37.041 -18.823 -21.077  0.00  0.00    -0.153 OA
ATOM     24  O   UNL     1      35.798 -19.669 -23.099  0.00  0.00    -0.153 OA
BRANCH  22  25
ATOM     25  N   UNL     1      34.835 -17.684 -21.769  0.00  0.00    -0.160 NA
ATOM     26  N   UNL     1      33.917 -14.959 -21.859  0.00  0.00    +0.387 N 
ATOM     27  C   UNL     1      34.801 -16.930 -23.055  0.00  0.00    +0.073 C 
ATOM     28  C   UNL     1      35.037 -16.769 -20.609  0.00  0.00    +0.073 C 
ATOM     29  C   UNL     1      33.704 -15.868 -22.995  0.00  0.00    -0.058 C 
ATOM     30  C   UNL     1      33.936 -15.710 -20.596  0.00  0.00    -0.058 C 
ATOM     31  C   UNL     1      32.884 -13.925 -21.827  0.00  0.00    -0.101 C 
ATOM     32  H   UNL     1      34.823 -14.505 -21.977  0.00  0.00    -0.080 HD
ENDBRANCH  22  25
ENDBRANCH   1  22
BRANCH   5  33
ATOM     33  O   UNL     1      32.516 -22.569 -18.310  0.00  0.00    -0.475 OA
BRANCH  33  34
ATOM     34  C   UNL     1      31.414 -21.953 -17.646  0.00  0.00    +0.206 C 
ATOM     35  C   UNL     1      30.800 -22.947 -16.684  0.00  0.00    +0.051 C 
ENDBRANCH  33  34
ENDBRANCH   5  33
TORSDOF 7
ENDMDL
MODEL 4
REMARK VINA RESULT:      -8.2      2.554      8.962
REMARK  Name = 5212
REMARK  7 active torsions:
REMARK  status: ('A' for Active; 'I' for Inactive)
REMARK    1  A    between atoms: C_1  and  S_22
REMARK    2  A    between atoms: C_3  and  C_12
REMARK    3  A    between atoms: C_5  and  O_33
REMARK    4  A    between atoms: C_14  and  C_19
REMARK    5  A    between atoms: C_19  and  C_20
REMARK    6  A    between atoms: S_22  and  N_25
REMARK    7  A    between atoms: O_33  and  C_34
REMARK                            x       y       z     vdW  Elec       q    Type
REMARK                         _______ _______ _______ _____ _____    ______ ____
ROOT
ATOM      1  C   UNL     1      33.519  -8.897 -23.689  0.00  0.00    +0.123 C 
ATOM      2  C   UNL     1      33.821 -10.214 -23.994  0.00  0.00    +0.027 C 
ATOM      3  C   UNL     1      33.048 -11.238 -23.445  0.00  0.00    +0.080 C 
ATOM      4  C   UNL     1      32.466  -8.576 -22.848  0.00  0.00    +0.023 C 
ATOM      5  C   UNL     1      31.984 -10.929 -22.597  0.00  0.00    +0.142 C 
ATOM      6  C   UNL     1      31.692  -9.598 -22.300  0.00  0.00    +0.038 C 
ENDROOT
BRANCH   3  12
ATOM      7  O   UNL     1      33.470 -14.668 -26.633  0.00  0.00    -0.208 OA
ATOM      8  N   UNL     1      33.769 -13.501 -22.731  0.00  0.00    -0.284 N 
ATOM      9  N   UNL     1      34.317 -16.478 -24.387  0.00  0.00    -0.236 N 
ATOM     10  N   UNL     1      34.633 -16.947 -23.159  0.00  0.00    -0.172 NA
ATOM     11  N   UNL     1      33.271 -13.007 -25.042  0.00  0.00    -0.316 NA
ATOM     12  C   UNL     1      33.378 -12.661 -23.778  0.00  0.00    +0.200 C 
ATOM     13  C   UNL     1      34.057 -14.763 -23.085  0.00  0.00    +0.095 A 
ATOM     14  C   UNL     1      34.469 -15.883 -22.363  0.00  0.00    +0.094 A 
ATOM     15  C   UNL     1      33.960 -15.162 -24.389  0.00  0.00    +0.187 A 
ATOM     16  C   UNL     1      33.556 -14.302 -25.466  0.00  0.00    +0.225 C 
ATOM     17  C   UNL     1      34.380 -17.371 -25.520  0.00  0.00    +0.155 C 
ATOM     18  H   UNL     1      33.828 -13.189 -21.800  0.00  0.00    +0.155 HD
BRANCH  14  19
ATOM     19  C   UNL     1      34.724 -16.001 -20.917  0.00  0.00    +0.049 C 
BRANCH  19  20
ATOM     20  C   UNL     1      33.559 -15.483 -20.051  0.00  0.00    +0.006 C 
ATOM     21  C   UNL     1      32.205 -15.954 -20.558  0.00  0.00    +0.000 C 
ENDBRANCH  19  20
ENDBRANCH  14  19
ENDBRANCH   3  12
BRANCH   1  22
ATOM     22  S   UNL     1      34.497  -7.602 -24.383  0.00  0.00    +0.063 S 
ATOM     23  O   UNL     1      35.390  -7.120 -23.351  0.00  0.00    -0.153 OA
ATOM     24  O   UNL     1      35.009  -8.064 -25.656  0.00  0.00    -0.153 OA
BRANCH  22  25
ATOM     25  N   UNL     1      33.283  -6.428 -24.664  0.00  0.00    -0.160 NA
ATOM     26  N   UNL     1      31.799  -3.972 -24.857  0.00  0.00    +0.387 N 
ATOM     27  C   UNL     1      33.588  -5.432 -25.730  0.00  0.00    +0.073 C 
ATOM     28  C   UNL     1      32.733  -5.768 -23.445  0.00  0.00    +0.073 C 
ATOM     29  C   UNL     1      32.327  -4.634 -26.058  0.00  0.00    -0.058 C 
ATOM     30  C   UNL     1      31.489  -4.963 -23.817  0.00  0.00    -0.058 C 
ATOM     31  C   UNL     1      30.613  -3.181 -25.183  0.00  0.00    -0.101 C 
ATOM     32  H   UNL     1      32.516  -3.341 -24.496  0.00  0.00    -0.080 HD
ENDBRANCH  22  25
ENDBRANCH   1  22
BRANCH   5  33
ATOM     33  O   UNL     1      31.217 -11.915 -22.052  0.00  0.00    -0.475 OA
BRANCH  33  34
ATOM     34  C   UNL     1      30.636 -11.652 -20.777  0.00  0.00    +0.206 C 
ATOM     35  C   UNL     1      31.702 -11.788 -19.711  0.00  0.00    +0.051 C 
ENDBRANCH  33  34
ENDBRANCH   5  33
TORSDOF 7
ENDMDL
MODEL 5
REMARK VINA RESULT:      -7.9      2.727      4.335
REMARK  Name = 5212
REMARK  7 active torsions:
REMARK  status: ('A' for Active; 'I' for Inactive)
REMARK    1  A    between atoms: C_1  and  S_22
REMARK    2  A    between atoms: C_3  and  C_12
REMARK    3  A    between atoms: C_5  and  O_33
REMARK    4  A    between atoms: C_14  and  C_19
REMARK    5  A    between atoms: C_19  and  C_20
REMARK    6  A    between atoms: S_22  and  N_25
REMARK    7  A    between atoms: O_33  and  C_34
REMARK                            x       y       z     vdW  Elec       q    Type
REMARK                         _______ _______ _______ _____ _____    ______ ____
ROOT
ATOM      1  C   UNL     1      35.362 -17.673 -21.408  0.00  0.00    +0.123 C 
ATOM      2  C   UNL     1      35.024 -16.898 -22.506  0.00  0.00    +0.027 C 
ATOM      3  C   UNL     1      34.475 -15.631 -22.305  0.00  0.00    +0.080 C 
ATOM      4  C   UNL     1      35.165 -17.216 -20.115  0.00  0.00    +0.023 C 
ATOM      5  C   UNL     1      34.272 -15.157 -21.009  0.00  0.00    +0.142 C 
ATOM      6  C   UNL     1      34.618 -15.949 -19.914  0.00  0.00    +0.038 C 
ENDROOT
BRANCH   3  12
ATOM      7  O   UNL     1      33.087 -15.340 -26.787  0.00  0.00    -0.208 OA
ATOM      8  N   UNL     1      34.163 -13.406 -23.356  0.00  0.00    -0.284 N 
ATOM      9  N   UNL     1      33.190 -12.350 -26.493  0.00  0.00    -0.236 N 
ATOM     10  N   UNL     1      33.358 -11.111 -25.980  0.00  0.00    -0.172 NA
ATOM     11  N   UNL     1      33.772 -15.448 -24.586  0.00  0.00    -0.316 NA
ATOM     12  C   UNL     1      34.111 -14.796 -23.495  0.00  0.00    +0.200 C 
ATOM     13  C   UNL     1      33.824 -12.707 -24.450  0.00  0.00    +0.095 A 
ATOM     14  C   UNL     1      33.751 -11.340 -24.721  0.00  0.00    +0.094 A 
ATOM     15  C   UNL     1      33.461 -13.346 -25.603  0.00  0.00    +0.187 A 
ATOM     16  C   UNL     1      33.411 -14.775 -25.749  0.00  0.00    +0.225 C 
ATOM     17  C   UNL     1      32.763 -12.493 -27.865  0.00  0.00    +0.155 C 
ATOM     18  H   UNL     1      34.429 -12.971 -22.514  0.00  0.00    +0.155 HD
BRANCH  14  19
ATOM     19  C   UNL     1      34.040 -10.210 -23.823  0.00  0.00    +0.049 C 
BRANCH  19  20
ATOM     20  C   UNL     1      34.940  -9.138 -24.467  0.00  0.00    +0.006 C 
ATOM     21  C   UNL     1      34.783  -7.776 -23.808  0.00  0.00    +0.000 C 
ENDBRANCH  19  20
ENDBRANCH  14  19
ENDBRANCH   3  12
BRANCH   1  22
ATOM     22  S   UNL     1      36.055 -19.276 -21.662  0.00  0.00    +0.063 S 
ATOM     23  O   UNL     1      35.652 -19.730 -22.975  0.00  0.00    -0.153 OA
ATOM     24  O   UNL     1      37.453 -19.221 -21.288  0.00  0.00    -0.153 OA
BRANCH  22  25
ATOM     25  N   UNL     1      35.197 -20.165 -20.476  0.00  0.00    -0.160 NA
ATOM     26  N   UNL     1      33.725 -22.192 -19.063  0.00  0.00    +0.387 N 
ATOM     27  C   UNL     1      35.874 -21.397 -19.982  0.00  0.00    +0.073 C 
ATOM     28  C   UNL     1      33.760 -20.420 -20.781  0.00  0.00    +0.073 C 
ATOM     29  C   UNL     1      35.137 -21.926 -18.753  0.00  0.00    -0.058 C 
ATOM     30  C   UNL     1      33.063 -20.968 -19.537  0.00  0.00    -0.058 C 
ATOM     31  C   UNL     1      33.033 -22.731 -17.894  0.00  0.00    -0.101 C 
ATOM     32  H   UNL     1      33.686 -22.888 -19.808  0.00  0.00    -0.080 HD
ENDBRANCH  22  25
ENDBRANCH   1  22
BRANCH   5  33
ATOM     33  O   UNL     1      33.738 -13.921 -20.793  0.00  0.00    -0.475 OA
BRANCH  33  34
ATOM     34  C   UNL     1      32.355 -13.866 -20.452  0.00  0.00    +0.206 C 
ATOM     35  C   UNL     1      31.846 -12.460 -20.686  0.00  0.00    +0.051 C 
ENDBRANCH  33  34
ENDBRANCH   5  33
TORSDOF 7
ENDMDL
MODEL 6
REMARK VINA RESULT:      -7.8      7.084     14.322
REMARK  Name = 5212
REMARK  7 active torsions:
REMARK  status: ('A' for Active; 'I' for Inactive)
REMARK    1  A    between atoms: C_1  and  S_22
REMARK    2  A    between atoms: C_3  and  C_12
REMARK    3  A    between atoms: C_5  and  O_33
REMARK    4  A    between atoms: C_14  and  C_19
REMARK    5  A    between atoms: C_19  and  C_20
REMARK    6  A    between atoms: S_22  and  N_25
REMARK    7  A    between atoms: O_33  and  C_34
REMARK                            x       y       z     vdW  Elec       q    Type
REMARK                         _______ _______ _______ _____ _____    ______ ____
ROOT
ATOM      1  C   UNL     1      35.260 -21.625 -18.912  0.00  0.00    +0.123 C 
ATOM      2  C   UNL     1      35.532 -22.167 -17.666  0.00  0.00    +0.027 C 
ATOM      3  C   UNL     1      34.515 -22.815 -16.966  0.00  0.00    +0.080 C 
ATOM      4  C   UNL     1      33.997 -21.715 -19.476  0.00  0.00    +0.023 C 
ATOM      5  C   UNL     1      33.239 -22.914 -17.521  0.00  0.00    +0.142 C 
ATOM      6  C   UNL     1      32.980 -22.365 -18.777  0.00  0.00    +0.038 C 
ENDROOT
BRANCH   3  12
ATOM      7  O   UNL     1      33.447 -23.266 -12.409  0.00  0.00    -0.208 OA
ATOM      8  N   UNL     1      35.924 -24.241 -15.505  0.00  0.00    -0.284 N 
ATOM      9  N   UNL     1      35.829 -25.084 -12.161  0.00  0.00    -0.236 N 
ATOM     10  N   UNL     1      36.932 -25.809 -12.451  0.00  0.00    -0.172 NA
ATOM     11  N   UNL     1      34.000 -23.064 -14.640  0.00  0.00    -0.316 NA
ATOM     12  C   UNL     1      34.814 -23.398 -15.618  0.00  0.00    +0.200 C 
ATOM     13  C   UNL     1      36.145 -24.738 -14.278  0.00  0.00    +0.095 A 
ATOM     14  C   UNL     1      37.120 -25.589 -13.758  0.00  0.00    +0.094 A 
ATOM     15  C   UNL     1      35.320 -24.418 -13.236  0.00  0.00    +0.187 A 
ATOM     16  C   UNL     1      34.181 -23.550 -13.349  0.00  0.00    +0.225 C 
ATOM     17  C   UNL     1      35.324 -25.080 -10.808  0.00  0.00    +0.155 C 
ATOM     18  H   UNL     1      36.504 -24.454 -16.271  0.00  0.00    +0.155 HD
BRANCH  14  19
ATOM     19  C   UNL     1      38.251 -26.223 -14.455  0.00  0.00    +0.049 C 
BRANCH  19  20
ATOM     20  C   UNL     1      39.625 -25.766 -13.926  0.00  0.00    +0.006 C 
ATOM     21  C   UNL     1      40.545 -25.289 -15.038  0.00  0.00    +0.000 C 
ENDBRANCH  19  20
ENDBRANCH  14  19
ENDBRANCH   3  12
BRANCH   1  22
ATOM     22  S   UNL     1      36.546 -20.804 -19.799  0.00  0.00    +0.063 S 
ATOM     23  O   UNL     1      37.380 -20.119 -18.835  0.00  0.00    -0.153 OA
ATOM     24  O   UNL     1      37.113 -21.749 -20.738  0.00  0.00    -0.153 OA
BRANCH  22  25
ATOM     25  N   UNL     1      35.624 -19.648 -20.661  0.00  0.00    -0.160 NA
ATOM     26  N   UNL     1      34.754 -17.614 -22.500  0.00  0.00    +0.387 N 
ATOM     27  C   UNL     1      35.365 -19.972 -22.093  0.00  0.00    +0.073 C 
ATOM     28  C   UNL     1      36.054 -18.230 -20.495  0.00  0.00    +0.073 C 
ATOM     29  C   UNL     1      34.318 -19.010 -22.652  0.00  0.00    -0.058 C 
ATOM     30  C   UNL     1      34.994 -17.302 -21.085  0.00  0.00    -0.058 C 
ATOM     31  C   UNL     1      33.764 -16.701 -23.069  0.00  0.00    -0.101 C 
ATOM     32  H   UNL     1      35.630 -17.495 -23.009  0.00  0.00    -0.080 HD
ENDBRANCH  22  25
ENDBRANCH   1  22
BRANCH   5  33
ATOM     33  O   UNL     1      32.233 -23.544 -16.852  0.00  0.00    -0.475 OA
BRANCH  33  34
ATOM     34  C   UNL     1      31.047 -22.791 -16.607  0.00  0.00    +0.206 C 
ATOM     35  C   UNL     1      30.469 -23.202 -15.270  0.00  0.00    +0.051 C 
ENDBRANCH  33  34
ENDBRANCH   5  33
TORSDOF 7
ENDMDL
MODEL 7
REMARK VINA RESULT:      -7.8      5.879     13.044
REMARK  Name = 5212
REMARK  7 active torsions:
REMARK  status: ('A' for Active; 'I' for Inactive)
REMARK    1  A    between atoms: C_1  and  S_22
REMARK    2  A    between atoms: C_3  and  C_12
REMARK    3  A    between atoms: C_5  and  O_33
REMARK    4  A    between atoms: C_14  and  C_19
REMARK    5  A    between atoms: C_19  and  C_20
REMARK    6  A    between atoms: S_22  and  N_25
REMARK    7  A    between atoms: O_33  and  C_34
REMARK                            x       y       z     vdW  Elec       q    Type
REMARK                         _______ _______ _______ _____ _____    ______ ____
ROOT
ATOM      1  C   UNL     1      34.445 -20.549 -20.517  0.00  0.00    +0.123 C 
ATOM      2  C   UNL     1      33.685 -21.165 -19.535  0.00  0.00    +0.027 C 
ATOM      3  C   UNL     1      34.328 -21.841 -18.498  0.00  0.00    +0.080 C 
ATOM      4  C   UNL     1      35.829 -20.592 -20.490  0.00  0.00    +0.023 C 
ATOM      5  C   UNL     1      35.722 -21.892 -18.457  0.00  0.00    +0.142 C 
ATOM      6  C   UNL     1      36.472 -21.267 -19.453  0.00  0.00    +0.038 C 
ENDROOT
BRANCH   3  12
ATOM      7  O   UNL     1      30.119 -23.119 -16.837  0.00  0.00    -0.208 OA
ATOM      8  N   UNL     1      34.173 -23.066 -16.346  0.00  0.00    -0.284 N 
ATOM      9  N   UNL     1      31.555 -24.332 -14.491  0.00  0.00    -0.236 N 
ATOM     10  N   UNL     1      32.527 -24.730 -13.640  0.00  0.00    -0.172 NA
ATOM     11  N   UNL     1      32.200 -22.505 -17.623  0.00  0.00    -0.316 NA
ATOM     12  C   UNL     1      33.502 -22.505 -17.438  0.00  0.00    +0.200 C 
ATOM     13  C   UNL     1      33.387 -23.651 -15.430  0.00  0.00    +0.095 A 
ATOM     14  C   UNL     1      33.653 -24.304 -14.226  0.00  0.00    +0.094 A 
ATOM     15  C   UNL     1      32.029 -23.674 -15.586  0.00  0.00    +0.187 A 
ATOM     16  C   UNL     1      31.338 -23.096 -16.705  0.00  0.00    +0.225 C 
ATOM     17  C   UNL     1      30.177 -24.625 -14.172  0.00  0.00    +0.155 C 
ATOM     18  H   UNL     1      35.152 -23.033 -16.257  0.00  0.00    +0.155 HD
BRANCH  14  19
ATOM     19  C   UNL     1      34.955 -24.554 -13.586  0.00  0.00    +0.049 C 
BRANCH  19  20
ATOM     20  C   UNL     1      35.116 -23.834 -12.234  0.00  0.00    +0.006 C 
ATOM     21  C   UNL     1      36.569 -23.527 -11.908  0.00  0.00    +0.000 C 
ENDBRANCH  19  20
ENDBRANCH  14  19
ENDBRANCH   3  12
BRANCH   1  22
ATOM     22  S   UNL     1      33.632 -19.694 -21.830  0.00  0.00    +0.063 S 
ATOM     23  O   UNL     1      34.377 -19.940 -23.046  0.00  0.00    -0.153 OA
ATOM     24  O   UNL     1      32.218 -19.993 -21.748  0.00  0.00    -0.153 OA
BRANCH  22  25
ATOM     25  N   UNL     1      33.889 -18.075 -21.336  0.00  0.00    -0.160 NA
ATOM     26  N   UNL     1      33.951 -15.203 -21.188  0.00  0.00    +0.387 N 
ATOM     27  C   UNL     1      32.657 -17.299 -21.016  0.00  0.00    +0.073 C 
ATOM     28  C   UNL     1      34.822 -17.284 -22.188  0.00  0.00    +0.073 C 
ATOM     29  C   UNL     1      33.043 -15.986 -20.337  0.00  0.00    -0.058 C 
ATOM     30  C   UNL     1      35.167 -15.972 -21.487  0.00  0.00    -0.058 C 
ATOM     31  C   UNL     1      34.289 -13.933 -20.548  0.00  0.00    -0.101 C 
ATOM     32  H   UNL     1      33.473 -15.002 -22.067  0.00  0.00    -0.080 HD
ENDBRANCH  22  25
ENDBRANCH   1  22
BRANCH   5  33
ATOM     33  O   UNL     1      36.367 -22.547 -17.451  0.00  0.00    -0.475 OA
BRANCH  33  34
ATOM     34  C   UNL     1      37.228 -21.770 -16.621  0.00  0.00    +0.206 C 
ATOM     35  C   UNL     1      37.582 -22.574 -15.389  0.00  0.00    +0.051 C 
ENDBRANCH  33  34
ENDBRANCH   5  33
TORSDOF 7
ENDMDL
MODEL 8
REMARK VINA RESULT:      -7.7      3.467      9.997
REMARK  Name = 5212
REMARK  7 active torsions:
REMARK  status: ('A' for Active; 'I' for Inactive)
REMARK    1  A    between atoms: C_1  and  S_22
REMARK    2  A    between atoms: C_3  and  C_12
REMARK    3  A    between atoms: C_5  and  O_33
REMARK    4  A    between atoms: C_14  and  C_19
REMARK    5  A    between atoms: C_19  and  C_20
REMARK    6  A    between atoms: S_22  and  N_25
REMARK    7  A    between atoms: O_33  and  C_34
REMARK                            x       y       z     vdW  Elec       q    Type
REMARK                         _______ _______ _______ _____ _____    ______ ____
ROOT
ATOM      1  C   UNL     1      32.624  -7.273 -23.119  0.00  0.00    +0.123 C 
ATOM      2  C   UNL     1      32.425  -8.586 -22.724  0.00  0.00    +0.027 C 
ATOM      3  C   UNL     1      33.288  -9.578 -23.190  0.00  0.00    +0.080 C 
ATOM      4  C   UNL     1      33.664  -6.926 -23.967  0.00  0.00    +0.023 C 
ATOM      5  C   UNL     1      34.339  -9.244 -24.044  0.00  0.00    +0.142 C 
ATOM      6  C   UNL     1      34.527  -7.918 -24.432  0.00  0.00    +0.038 C 
ENDROOT
BRANCH   3  12
ATOM      7  O   UNL     1      31.749 -12.658 -19.988  0.00  0.00    -0.208 OA
ATOM      8  N   UNL     1      33.462 -12.012 -23.638  0.00  0.00    -0.284 N 
ATOM      9  N   UNL     1      32.590 -14.845 -21.872  0.00  0.00    -0.236 N 
ATOM     10  N   UNL     1      33.085 -15.502 -22.945  0.00  0.00    -0.172 NA
ATOM     11  N   UNL     1      32.516 -11.174 -21.580  0.00  0.00    -0.316 NA
ATOM     12  C   UNL     1      33.067 -10.998 -22.760  0.00  0.00    +0.200 C 
ATOM     13  C   UNL     1      33.239 -13.263 -23.206  0.00  0.00    +0.095 A 
ATOM     14  C   UNL     1      33.483 -14.519 -23.761  0.00  0.00    +0.094 A 
ATOM     15  C   UNL     1      32.664 -13.488 -21.986  0.00  0.00    +0.187 A 
ATOM     16  C   UNL     1      32.261 -12.448 -21.081  0.00  0.00    +0.225 C 
ATOM     17  C   UNL     1      32.061 -15.604 -20.763  0.00  0.00    +0.155 C 
ATOM     18  H   UNL     1      33.876 -11.823 -24.510  0.00  0.00    +0.155 HD
BRANCH  14  19
ATOM     19  C   UNL     1      34.091 -14.845 -25.062  0.00  0.00    +0.049 C 
BRANCH  19  20
ATOM     20  C   UNL     1      33.055 -15.011 -26.191  0.00  0.00    +0.006 C 
ATOM     21  C   UNL     1      32.776 -13.707 -26.921  0.00  0.00    +0.000 C 
ENDBRANCH  19  20
ENDBRANCH  14  19
ENDBRANCH   3  12
BRANCH   1  22
ATOM     22  S   UNL     1      31.533  -6.017 -22.531  0.00  0.00    +0.063 S 
ATOM     23  O   UNL     1      30.179  -6.512 -22.659  0.00  0.00    -0.153 OA
ATOM     24  O   UNL     1      32.038  -5.548 -21.258  0.00  0.00    -0.153 OA
BRANCH  22  25
ATOM     25  N   UNL     1      31.800  -4.810 -23.715  0.00  0.00    -0.160 NA
ATOM     26  N   UNL     1      31.462  -2.774 -25.719  0.00  0.00    +0.387 N 
ATOM     27  C   UNL     1      31.357  -3.436 -23.342  0.00  0.00    +0.073 C 
ATOM     28  C   UNL     1      31.372  -5.162 -25.099  0.00  0.00    +0.073 C 
ATOM     29  C   UNL     1      31.900  -2.432 -24.358  0.00  0.00    -0.058 C 
ATOM     30  C   UNL     1      31.914  -4.124 -26.081  0.00  0.00    -0.058 C 
ATOM     31  C   UNL     1      31.955  -1.790 -26.681  0.00  0.00    -0.101 C 
ATOM     32  H   UNL     1      30.441  -2.760 -25.740  0.00  0.00    -0.080 HD
ENDBRANCH  22  25
ENDBRANCH   1  22
BRANCH   5  33
ATOM     33  O   UNL     1      35.192 -10.200 -24.508  0.00  0.00    -0.475 OA
BRANCH  33  34
ATOM     34  C   UNL     1      35.728 -10.008 -25.816  0.00  0.00    +0.206 C 
ATOM     35  C   UNL     1      35.276 -11.146 -26.705  0.00  0.00    +0.051 C 
ENDBRANCH  33  34
ENDBRANCH   5  33
TORSDOF 7
ENDMDL
MODEL 9
REMARK VINA RESULT:      -7.7      2.260      9.047
REMARK  Name = 5212
REMARK  7 active torsions:
REMARK  status: ('A' for Active; 'I' for Inactive)
REMARK    1  A    between atoms: C_1  and  S_22
REMARK    2  A    between atoms: C_3  and  C_12
REMARK    3  A    between atoms: C_5  and  O_33
REMARK    4  A    between atoms: C_14  and  C_19
REMARK    5  A    between atoms: C_19  and  C_20
REMARK    6  A    between atoms: S_22  and  N_25
REMARK    7  A    between atoms: O_33  and  C_34
REMARK                            x       y       z     vdW  Elec       q    Type
REMARK                         _______ _______ _______ _____ _____    ______ ____
ROOT
ATOM      1  C   UNL     1      33.418  -9.697 -23.315  0.00  0.00    +0.123 C 
ATOM      2  C   UNL     1      33.748 -10.967 -23.760  0.00  0.00    +0.027 C 
ATOM      3  C   UNL     1      33.136 -12.077 -23.176  0.00  0.00    +0.080 C 
ATOM      4  C   UNL     1      32.492  -9.508 -22.301  0.00  0.00    +0.023 C 
ATOM      5  C   UNL     1      32.201 -11.901 -22.156  0.00  0.00    +0.142 C 
ATOM      6  C   UNL     1      31.879 -10.616 -21.718  0.00  0.00    +0.038 C 
ENDROOT
BRANCH   3  12
ATOM      7  O   UNL     1      33.455 -15.188 -26.687  0.00  0.00    -0.208 OA
ATOM      8  N   UNL     1      33.997 -14.359 -22.726  0.00  0.00    -0.284 N 
ATOM      9  N   UNL     1      34.537 -17.149 -24.682  0.00  0.00    -0.236 N 
ATOM     10  N   UNL     1      34.963 -17.710 -23.528  0.00  0.00    -0.172 NA
ATOM     11  N   UNL     1      33.309 -13.686 -24.941  0.00  0.00    -0.316 NA
ATOM     12  C   UNL     1      33.497 -13.448 -23.661  0.00  0.00    +0.200 C 
ATOM     13  C   UNL     1      34.308 -15.570 -23.213  0.00  0.00    +0.095 A 
ATOM     14  C   UNL     1      34.817 -16.729 -22.627  0.00  0.00    +0.094 A 
ATOM     15  C   UNL     1      34.130 -15.856 -24.538  0.00  0.00    +0.187 A 
ATOM     16  C   UNL     1      33.613 -14.923 -25.501  0.00  0.00    +0.225 C 
ATOM     17  C   UNL     1      34.551 -17.934 -25.893  0.00  0.00    +0.155 C 
ATOM     18  H   UNL     1      34.113 -14.128 -21.776  0.00  0.00    +0.155 HD
BRANCH  14  19
ATOM     19  C   UNL     1      35.182 -16.962 -21.221  0.00  0.00    +0.049 C 
BRANCH  19  20
ATOM     20  C   UNL     1      35.514 -18.436 -20.915  0.00  0.00    +0.006 C 
ATOM     21  C   UNL     1      34.272 -19.311 -20.860  0.00  0.00    +0.000 C 
ENDBRANCH  19  20
ENDBRANCH  14  19
ENDBRANCH   3  12
BRANCH   1  22
ATOM     22  S   UNL     1      34.192  -8.293 -24.052  0.00  0.00    +0.063 S 
ATOM     23  O   UNL     1      35.378  -7.987 -23.282  0.00  0.00    -0.153 OA
ATOM     24  O   UNL     1      34.269  -8.525 -25.479  0.00  0.00    -0.153 OA
BRANCH  22  25
ATOM     25  N   UNL     1      33.003  -7.100 -23.746  0.00  0.00    -0.160 NA
ATOM     26  N   UNL     1      31.642  -4.643 -23.127  0.00  0.00    +0.387 N 
ATOM     27  C   UNL     1      32.932  -5.994 -24.742  0.00  0.00    +0.073 C 
ATOM     28  C   UNL     1      32.963  -6.577 -22.350  0.00  0.00    +0.073 C 
ATOM     29  C   UNL     1      31.669  -5.169 -24.500  0.00  0.00    -0.058 C 
ATOM     30  C   UNL     1      31.700  -5.742 -22.154  0.00  0.00    -0.058 C 
ATOM     31  C   UNL     1      30.449  -3.826 -22.913  0.00  0.00    -0.101 C 
ATOM     32  H   UNL     1      32.464  -4.052 -22.995  0.00  0.00    -0.080 HD
ENDBRANCH  22  25
ENDBRANCH   1  22
BRANCH   5  33
ATOM     33  O   UNL     1      31.593 -12.973 -21.574  0.00  0.00    -0.475 OA
BRANCH  33  34
ATOM     34  C   UNL     1      31.994 -13.302 -20.246  0.00  0.00    +0.206 C 
ATOM     35  C   UNL     1      32.279 -14.787 -20.171  0.00  0.00    +0.051 C 
ENDBRANCH  33  34
ENDBRANCH   5  33
TORSDOF 7
ENDMDL
