MODEL 1
REMARK VINA RESULT:     -10.8      0.000      0.000
REMARK  Name = 11546620
REMARK  10 active torsions:
REMARK  status: ('A' for Active; 'I' for Inactive)
REMARK    1  A    between atoms: C_1  and  C_9
REMARK    2  A    between atoms: C_4  and  C_23
REMARK    3  A    between atoms: N_8  and  C_11
REMARK    4  A    between atoms: C_11  and  C_14
REMARK    5  A    between atoms: C_11  and  C_18
REMARK    6  A    between atoms: N_13  and  O_16
REMARK    7  A    between atoms: C_18  and  O_20
REMARK    8  A    between atoms: C_22  and  C_29
REMARK    9  A    between atoms: C_24  and  C_30
REMARK   10  A    between atoms: C_30  and  N_32
REMARK                            x       y       z     vdW  Elec       q    Type
REMARK                         _______ _______ _______ _____ _____    ______ ____
ROOT
ATOM      1  C   UNL     1      34.967 -23.488 -16.179  0.00  0.00    +0.053 C 
ATOM      2  C   UNL     1      36.102 -22.758 -16.463  0.00  0.00    +0.005 C 
ATOM      3  C   UNL     1      33.831 -23.415 -16.957  0.00  0.00    +0.005 C 
ATOM      4  C   UNL     1      34.965 -21.825 -18.379  0.00  0.00    +0.042 C 
ATOM      5  C   UNL     1      36.102 -21.917 -17.576  0.00  0.00    +0.008 C 
ATOM      6  C   UNL     1      33.830 -22.574 -18.070  0.00  0.00    +0.008 C 
ENDROOT
BRANCH   1   9
ATOM      7  O   UNL     1      33.931 -24.963 -14.679  0.00  0.00    -0.270 OA
ATOM      8  N   UNL     1      36.182 -24.520 -14.335  0.00  0.00    -0.293 N 
ATOM      9  C   UNL     1      34.968 -24.385 -14.994  0.00  0.00    +0.246 C 
ATOM     10  H   UNL     1      36.958 -24.013 -14.665  0.00  0.00    +0.150 HD
BRANCH   8  11
ATOM     11  C   UNL     1      36.349 -25.373 -13.186  0.00  0.00    +0.178 C 
BRANCH  11  14
ATOM     12  O   UNL     1      35.915 -24.764 -10.879  0.00  0.00    -0.271 OA
ATOM     13  N   UNL     1      37.139 -23.322 -12.201  0.00  0.00    -0.196 N 
ATOM     14  C   UNL     1      36.441 -24.479 -11.953  0.00  0.00    +0.265 C 
ATOM     15  H   UNL     1      37.546 -23.134 -13.078  0.00  0.00    +0.182 HD
BRANCH  13  16
ATOM     16  O   UNL     1      37.237 -22.427 -11.128  0.00  0.00    -0.295 OA
ATOM     17  H   UNL     1      37.576 -21.575 -11.447  0.00  0.00    +0.241 HD
ENDBRANCH  13  16
ENDBRANCH  11  14
BRANCH  11  18
ATOM     18  C   UNL     1      37.572 -26.291 -13.301  0.00  0.00    +0.137 C 
ATOM     19  C   UNL     1      38.442 -25.956 -14.507  0.00  0.00    +0.034 C 
BRANCH  18  20
ATOM     20  O   UNL     1      38.361 -26.187 -12.117  0.00  0.00    -0.382 OA
ATOM     21  H   UNL     1      38.432 -27.058 -11.697  0.00  0.00    +0.210 HD
ENDBRANCH  18  20
ENDBRANCH  11  18
ENDBRANCH   8  11
ENDBRANCH   1   9
BRANCH   4  23
ATOM     22  C   UNL     1      34.963 -20.234 -20.475  0.00  0.00    -0.060 C 
ATOM     23  C   UNL     1      34.964 -20.961 -19.518  0.00  0.00    -0.060 C 
BRANCH  22  29
ATOM     24  C   UNL     1      34.957 -17.680 -23.834  0.00  0.00    -0.043 C 
ATOM     25  C   UNL     1      35.306 -17.180 -22.578  0.00  0.00    -0.006 C 
ATOM     26  C   UNL     1      34.612 -19.024 -23.978  0.00  0.00    -0.006 C 
ATOM     27  C   UNL     1      35.308 -18.025 -21.468  0.00  0.00    +0.008 C 
ATOM     28  C   UNL     1      34.615 -19.868 -22.868  0.00  0.00    +0.008 C 
ATOM     29  C   UNL     1      34.962 -19.368 -21.614  0.00  0.00    +0.042 C 
BRANCH  24  30
ATOM     30  C   UNL     1      34.958 -16.777 -25.020  0.00  0.00    -0.050 C 
BRANCH  30  32
ATOM     31  O   UNL     1      32.958 -13.092 -25.210  0.00  0.00    -0.358 OA
ATOM     32  N   UNL     1      33.909 -15.762 -24.947  0.00  0.00    +0.393 N 
ATOM     33  C   UNL     1      34.259 -14.722 -23.969  0.00  0.00    -0.044 C 
ATOM     34  C   UNL     1      33.675 -15.155 -26.265  0.00  0.00    -0.044 C 
ATOM     35  C   UNL     1      33.155 -13.668 -23.918  0.00  0.00    +0.119 C 
ATOM     36  C   UNL     1      32.587 -14.092 -26.160  0.00  0.00    +0.119 C 
ATOM     37  H   UNL     1      33.050 -16.221 -24.642  0.00  0.00    -0.079 HD
ENDBRANCH  30  32
ENDBRANCH  24  30
ENDBRANCH  22  29
ENDBRANCH   4  23
TORSDOF 10
ENDMDL
MODEL 2
REMARK VINA RESULT:     -10.7      0.867      1.356
REMARK  Name = 11546620
REMARK  10 active torsions:
REMARK  status: ('A' for Active; 'I' for Inactive)
REMARK    1  A    between atoms: C_1  and  C_9
REMARK    2  A    between atoms: C_4  and  C_23
REMARK    3  A    between atoms: N_8  and  C_11
REMARK    4  A    between atoms: C_11  and  C_14
REMARK    5  A    between atoms: C_11  and  C_18
REMARK    6  A    between atoms: N_13  and  O_16
REMARK    7  A    between atoms: C_18  and  O_20
REMARK    8  A    between atoms: C_22  and  C_29
REMARK    9  A    between atoms: C_24  and  C_30
REMARK   10  A    between atoms: C_30  and  N_32
REMARK                            x       y       z     vdW  Elec       q    Type
REMARK                         _______ _______ _______ _____ _____    ______ ____
ROOT
ATOM      1  C   UNL     1      35.654 -23.329 -16.199  0.00  0.00    +0.053 C 
ATOM      2  C   UNL     1      34.469 -23.312 -16.905  0.00  0.00    +0.005 C 
ATOM      3  C   UNL     1      36.740 -22.562 -16.565  0.00  0.00    +0.005 C 
ATOM      4  C   UNL     1      35.450 -21.706 -18.419  0.00  0.00    +0.042 C 
ATOM      5  C   UNL     1      34.365 -22.492 -18.028  0.00  0.00    +0.008 C 
ATOM      6  C   UNL     1      36.637 -21.741 -17.688  0.00  0.00    +0.008 C 
ENDROOT
BRANCH   1   9
ATOM      7  O   UNL     1      34.875 -25.020 -14.772  0.00  0.00    -0.270 OA
ATOM      8  N   UNL     1      36.905 -24.035 -14.230  0.00  0.00    -0.293 N 
ATOM      9  C   UNL     1      35.763 -24.202 -15.002  0.00  0.00    +0.246 C 
ATOM     10  H   UNL     1      37.560 -23.351 -14.497  0.00  0.00    +0.150 HD
BRANCH   8  11
ATOM     11  C   UNL     1      37.167 -24.823 -13.052  0.00  0.00    +0.178 C 
BRANCH  11  14
ATOM     12  O   UNL     1      36.771 -22.892 -11.640  0.00  0.00    -0.271 OA
ATOM     13  N   UNL     1      35.834 -24.917 -11.050  0.00  0.00    -0.196 N 
ATOM     14  C   UNL     1      36.572 -24.086 -11.857  0.00  0.00    +0.265 C 
ATOM     15  H   UNL     1      35.699 -25.868 -11.262  0.00  0.00    +0.182 HD
BRANCH  13  16
ATOM     16  O   UNL     1      35.283 -24.324  -9.906  0.00  0.00    -0.295 OA
ATOM     17  H   UNL     1      35.928 -23.715  -9.514  0.00  0.00    +0.241 HD
ENDBRANCH  13  16
ENDBRANCH  11  14
BRANCH  11  18
ATOM     18  C   UNL     1      38.661 -25.105 -12.847  0.00  0.00    +0.137 C 
ATOM     19  C   UNL     1      39.358 -25.525 -14.136  0.00  0.00    +0.034 C 
BRANCH  18  20
ATOM     20  O   UNL     1      39.300 -23.937 -12.334  0.00  0.00    -0.382 OA
ATOM     21  H   UNL     1      38.743 -23.537 -11.649  0.00  0.00    +0.210 HD
ENDBRANCH  18  20
ENDBRANCH  11  18
ENDBRANCH   8  11
ENDBRANCH   1   9
BRANCH   4  23
ATOM     22  C   UNL     1      35.256 -20.161 -20.542  0.00  0.00    -0.060 C 
ATOM     23  C   UNL     1      35.344 -20.867 -19.572  0.00  0.00    -0.060 C 
BRANCH  22  29
ATOM     24  C   UNL     1      34.945 -17.686 -23.944  0.00  0.00    -0.043 C 
ATOM     25  C   UNL     1      35.360 -17.148 -22.726  0.00  0.00    -0.006 C 
ATOM     26  C   UNL     1      34.633 -19.043 -24.037  0.00  0.00    -0.006 C 
ATOM     27  C   UNL     1      35.464 -17.967 -21.602  0.00  0.00    +0.008 C 
ATOM     28  C   UNL     1      34.737 -19.861 -22.912  0.00  0.00    +0.008 C 
ATOM     29  C   UNL     1      35.152 -19.322 -21.696  0.00  0.00    +0.042 C 
BRANCH  24  30
ATOM     30  C   UNL     1      34.837 -16.811 -25.146  0.00  0.00    -0.050 C 
BRANCH  30  32
ATOM     31  O   UNL     1      33.052 -13.012 -25.100  0.00  0.00    -0.358 OA
ATOM     32  N   UNL     1      33.859 -15.739 -24.968  0.00  0.00    +0.393 N 
ATOM     33  C   UNL     1      34.348 -14.746 -24.001  0.00  0.00    -0.044 C 
ATOM     34  C   UNL     1      33.558 -15.087 -26.250  0.00  0.00    -0.044 C 
ATOM     35  C   UNL     1      33.317 -13.631 -23.839  0.00  0.00    +0.119 C 
ATOM     36  C   UNL     1      32.547 -13.965 -26.036  0.00  0.00    +0.119 C 
ATOM     37  H   UNL     1      33.002 -16.155 -24.604  0.00  0.00    -0.079 HD
ENDBRANCH  30  32
ENDBRANCH  24  30
ENDBRANCH  22  29
ENDBRANCH   4  23
TORSDOF 10
ENDMDL
MODEL 3
REMARK VINA RESULT:     -10.5      1.584     13.140
REMARK  Name = 11546620
REMARK  10 active torsions:
REMARK  status: ('A' for Active; 'I' for Inactive)
REMARK    1  A    between atoms: C_1  and  C_9
REMARK    2  A    between atoms: C_4  and  C_23
REMARK    3  A    between atoms: N_8  and  C_11
REMARK    4  A    between atoms: C_11  and  C_14
REMARK    5  A    between atoms: C_11  and  C_18
REMARK    6  A    between atoms: N_13  and  O_16
REMARK    7  A    between atoms: C_18  and  O_20
REMARK    8  A    between atoms: C_22  and  C_29
REMARK    9  A    between atoms: C_24  and  C_30
REMARK   10  A    between atoms: C_30  and  N_32
REMARK                            x       y       z     vdW  Elec       q    Type
REMARK                         _______ _______ _______ _____ _____    ______ ____
ROOT
ATOM      1  C   UNL     1      34.619 -17.371 -23.459  0.00  0.00    +0.053 C 
ATOM      2  C   UNL     1      34.483 -16.929 -22.160  0.00  0.00    +0.005 C 
ATOM      3  C   UNL     1      34.792 -18.704 -23.768  0.00  0.00    +0.005 C 
ATOM      4  C   UNL     1      34.698 -19.214 -21.409  0.00  0.00    +0.042 C 
ATOM      5  C   UNL     1      34.523 -17.860 -21.122  0.00  0.00    +0.008 C 
ATOM      6  C   UNL     1      34.832 -19.636 -22.732  0.00  0.00    +0.008 C 
ENDROOT
BRANCH   1   9
ATOM      7  O   UNL     1      35.018 -16.688 -25.667  0.00  0.00    -0.270 OA
ATOM      8  N   UNL     1      33.996 -15.154 -24.258  0.00  0.00    -0.293 N 
ATOM      9  C   UNL     1      34.574 -16.379 -24.564  0.00  0.00    +0.246 C 
ATOM     10  H   UNL     1      33.669 -15.001 -23.343  0.00  0.00    +0.150 HD
BRANCH   8  11
ATOM     11  C   UNL     1      33.857 -14.098 -25.229  0.00  0.00    +0.178 C 
BRANCH  11  14
ATOM     12  O   UNL     1      32.892 -12.635 -23.553  0.00  0.00    -0.271 OA
ATOM     13  N   UNL     1      34.525 -11.802 -24.955  0.00  0.00    -0.196 N 
ATOM     14  C   UNL     1      33.698 -12.785 -24.469  0.00  0.00    +0.265 C 
ATOM     15  H   UNL     1      35.157 -11.966 -25.691  0.00  0.00    +0.182 HD
BRANCH  13  16
ATOM     16  O   UNL     1      34.413 -10.550 -24.335  0.00  0.00    -0.295 OA
ATOM     17  H   UNL     1      33.903 -10.639 -23.515  0.00  0.00    +0.241 HD
ENDBRANCH  13  16
ENDBRANCH  11  14
BRANCH  11  18
ATOM     18  C   UNL     1      32.687 -14.329 -26.194  0.00  0.00    +0.137 C 
ATOM     19  C   UNL     1      32.722 -13.385 -27.390  0.00  0.00    +0.034 C 
BRANCH  18  20
ATOM     20  O   UNL     1      32.716 -15.676 -26.665  0.00  0.00    -0.382 OA
ATOM     21  H   UNL     1      32.132 -15.762 -27.435  0.00  0.00    +0.210 HD
ENDBRANCH  18  20
ENDBRANCH  11  18
ENDBRANCH   8  11
ENDBRANCH   1   9
BRANCH   4  23
ATOM     22  C   UNL     1      34.779 -20.972 -19.451  0.00  0.00    -0.060 C 
ATOM     23  C   UNL     1      34.742 -20.169 -20.346  0.00  0.00    -0.060 C 
BRANCH  22  29
ATOM     24  C   UNL     1      34.908 -23.785 -16.310  0.00  0.00    -0.043 C 
ATOM     25  C   UNL     1      33.769 -23.683 -17.108  0.00  0.00    -0.006 C 
ATOM     26  C   UNL     1      36.005 -22.958 -16.551  0.00  0.00    -0.006 C 
ATOM     27  C   UNL     1      33.727 -22.754 -18.147  0.00  0.00    +0.008 C 
ATOM     28  C   UNL     1      35.962 -22.028 -17.590  0.00  0.00    +0.008 C 
ATOM     29  C   UNL     1      34.824 -21.926 -18.387  0.00  0.00    +0.042 C 
BRANCH  24  30
ATOM     30  C   UNL     1      34.954 -24.781 -15.201  0.00  0.00    -0.050 C 
BRANCH  30  32
ATOM     31  O   UNL     1      38.222 -26.222 -12.996  0.00  0.00    -0.358 OA
ATOM     32  N   UNL     1      36.290 -24.908 -14.623  0.00  0.00    +0.393 N 
ATOM     33  C   UNL     1      36.231 -24.844 -13.156  0.00  0.00    -0.044 C 
ATOM     34  C   UNL     1      36.925 -26.164 -15.046  0.00  0.00    -0.044 C 
ATOM     35  C   UNL     1      37.635 -24.990 -12.575  0.00  0.00    +0.119 C 
ATOM     36  C   UNL     1      38.311 -26.280 -14.420  0.00  0.00    +0.119 C 
ATOM     37  H   UNL     1      36.853 -24.128 -14.962  0.00  0.00    -0.079 HD
ENDBRANCH  30  32
ENDBRANCH  24  30
ENDBRANCH  22  29
ENDBRANCH   4  23
TORSDOF 10
ENDMDL
MODEL 4
REMARK VINA RESULT:     -10.0      1.057      1.955
REMARK  Name = 11546620
REMARK  10 active torsions:
REMARK  status: ('A' for Active; 'I' for Inactive)
REMARK    1  A    between atoms: C_1  and  C_9
REMARK    2  A    between atoms: C_4  and  C_23
REMARK    3  A    between atoms: N_8  and  C_11
REMARK    4  A    between atoms: C_11  and  C_14
REMARK    5  A    between atoms: C_11  and  C_18
REMARK    6  A    between atoms: N_13  and  O_16
REMARK    7  A    between atoms: C_18  and  O_20
REMARK    8  A    between atoms: C_22  and  C_29
REMARK    9  A    between atoms: C_24  and  C_30
REMARK   10  A    between atoms: C_30  and  N_32
REMARK                            x       y       z     vdW  Elec       q    Type
REMARK                         _______ _______ _______ _____ _____    ______ ____
ROOT
ATOM      1  C   UNL     1      35.787 -23.251 -16.241  0.00  0.00    +0.053 C 
ATOM      2  C   UNL     1      36.871 -22.498 -16.637  0.00  0.00    +0.005 C 
ATOM      3  C   UNL     1      34.587 -23.229 -16.920  0.00  0.00    +0.005 C 
ATOM      4  C   UNL     1      35.547 -21.642 -18.468  0.00  0.00    +0.042 C 
ATOM      5  C   UNL     1      36.751 -21.683 -17.763  0.00  0.00    +0.008 C 
ATOM      6  C   UNL     1      34.465 -22.415 -18.046  0.00  0.00    +0.008 C 
ENDROOT
BRANCH   1   9
ATOM      7  O   UNL     1      35.455 -25.259 -15.074  0.00  0.00    -0.270 OA
ATOM      8  N   UNL     1      36.588 -23.568 -13.961  0.00  0.00    -0.293 N 
ATOM      9  C   UNL     1      35.916 -24.120 -15.042  0.00  0.00    +0.246 C 
ATOM     10  H   UNL     1      36.921 -22.644 -14.032  0.00  0.00    +0.150 HD
BRANCH   8  11
ATOM     11  C   UNL     1      36.815 -24.293 -12.736  0.00  0.00    +0.178 C 
BRANCH  11  14
ATOM     12  O   UNL     1      37.045 -26.704 -12.606  0.00  0.00    -0.271 OA
ATOM     13  N   UNL     1      38.451 -25.523 -14.004  0.00  0.00    -0.196 N 
ATOM     14  C   UNL     1      37.423 -25.643 -13.101  0.00  0.00    +0.265 C 
ATOM     15  H   UNL     1      38.721 -24.653 -14.377  0.00  0.00    +0.182 HD
BRANCH  13  16
ATOM     16  O   UNL     1      39.090 -26.717 -14.364  0.00  0.00    -0.295 OA
ATOM     17  H   UNL     1      38.425 -27.384 -14.595  0.00  0.00    +0.241 HD
ENDBRANCH  13  16
ENDBRANCH  11  14
BRANCH  11  18
ATOM     18  C   UNL     1      35.540 -24.463 -11.901  0.00  0.00    +0.137 C 
ATOM     19  C   UNL     1      35.774 -24.201 -10.418  0.00  0.00    +0.034 C 
BRANCH  18  20
ATOM     20  O   UNL     1      34.535 -23.568 -12.377  0.00  0.00    -0.382 OA
ATOM     21  H   UNL     1      34.948 -22.873 -12.913  0.00  0.00    +0.210 HD
ENDBRANCH  18  20
ENDBRANCH  11  18
ENDBRANCH   8  11
ENDBRANCH   1   9
BRANCH   4  23
ATOM     22  C   UNL     1      35.318 -20.103 -20.590  0.00  0.00    -0.060 C 
ATOM     23  C   UNL     1      35.423 -20.806 -19.620  0.00  0.00    -0.060 C 
BRANCH  22  29
ATOM     24  C   UNL     1      34.945 -17.633 -23.990  0.00  0.00    -0.043 C 
ATOM     25  C   UNL     1      35.296 -17.077 -22.760  0.00  0.00    -0.006 C 
ATOM     26  C   UNL     1      34.718 -19.005 -24.096  0.00  0.00    -0.006 C 
ATOM     27  C   UNL     1      35.421 -17.894 -21.636  0.00  0.00    +0.008 C 
ATOM     28  C   UNL     1      34.842 -19.821 -22.972  0.00  0.00    +0.008 C 
ATOM     29  C   UNL     1      35.192 -19.265 -21.743  0.00  0.00    +0.042 C 
BRANCH  24  30
ATOM     30  C   UNL     1      34.815 -16.759 -25.192  0.00  0.00    -0.050 C 
BRANCH  30  32
ATOM     31  O   UNL     1      33.013 -12.971 -25.063  0.00  0.00    -0.358 OA
ATOM     32  N   UNL     1      33.829 -15.697 -25.003  0.00  0.00    +0.393 N 
ATOM     33  C   UNL     1      34.286 -14.737 -23.989  0.00  0.00    -0.044 C 
ATOM     34  C   UNL     1      33.561 -15.002 -26.270  0.00  0.00    -0.044 C 
ATOM     35  C   UNL     1      33.246 -13.632 -23.818  0.00  0.00    +0.119 C 
ATOM     36  C   UNL     1      32.539 -13.892 -26.045  0.00  0.00    +0.119 C 
ATOM     37  H   UNL     1      32.963 -16.129 -24.678  0.00  0.00    -0.079 HD
ENDBRANCH  30  32
ENDBRANCH  24  30
ENDBRANCH  22  29
ENDBRANCH   4  23
TORSDOF 10
ENDMDL
MODEL 5
REMARK VINA RESULT:     -10.0      1.369      2.206
REMARK  Name = 11546620
REMARK  10 active torsions:
REMARK  status: ('A' for Active; 'I' for Inactive)
REMARK    1  A    between atoms: C_1  and  C_9
REMARK    2  A    between atoms: C_4  and  C_23
REMARK    3  A    between atoms: N_8  and  C_11
REMARK    4  A    between atoms: C_11  and  C_14
REMARK    5  A    between atoms: C_11  and  C_18
REMARK    6  A    between atoms: N_13  and  O_16
REMARK    7  A    between atoms: C_18  and  O_20
REMARK    8  A    between atoms: C_22  and  C_29
REMARK    9  A    between atoms: C_24  and  C_30
REMARK   10  A    between atoms: C_30  and  N_32
REMARK                            x       y       z     vdW  Elec       q    Type
REMARK                         _______ _______ _______ _____ _____    ______ ____
ROOT
ATOM      1  C   UNL     1      36.004 -22.936 -16.424  0.00  0.00    +0.053 C 
ATOM      2  C   UNL     1      34.815 -23.031 -17.117  0.00  0.00    +0.005 C 
ATOM      3  C   UNL     1      37.020 -22.091 -16.819  0.00  0.00    +0.005 C 
ATOM      4  C   UNL     1      35.647 -21.386 -18.677  0.00  0.00    +0.042 C 
ATOM      5  C   UNL     1      34.634 -22.248 -18.257  0.00  0.00    +0.008 C 
ATOM      6  C   UNL     1      36.840 -21.307 -17.959  0.00  0.00    +0.008 C 
ENDROOT
BRANCH   1   9
ATOM      7  O   UNL     1      35.220 -24.053 -14.517  0.00  0.00    -0.270 OA
ATOM      8  N   UNL     1      37.494 -24.191 -14.959  0.00  0.00    -0.293 N 
ATOM      9  C   UNL     1      36.195 -23.769 -15.209  0.00  0.00    +0.246 C 
ATOM     10  H   UNL     1      38.209 -23.909 -15.574  0.00  0.00    +0.150 HD
BRANCH   8  11
ATOM     11  C   UNL     1      37.836 -25.024 -13.835  0.00  0.00    +0.178 C 
BRANCH  11  14
ATOM     12  O   UNL     1      39.846 -26.260 -13.276  0.00  0.00    -0.271 OA
ATOM     13  N   UNL     1      39.569 -25.498 -15.437  0.00  0.00    -0.196 N 
ATOM     14  C   UNL     1      39.182 -25.676 -14.131  0.00  0.00    +0.265 C 
ATOM     15  H   UNL     1      39.006 -25.023 -16.089  0.00  0.00    +0.182 HD
BRANCH  13  16
ATOM     16  O   UNL     1      40.817 -26.035 -15.782  0.00  0.00    -0.295 OA
ATOM     17  H   UNL     1      40.850 -26.187 -16.739  0.00  0.00    +0.241 HD
ENDBRANCH  13  16
ENDBRANCH  11  14
BRANCH  11  18
ATOM     18  C   UNL     1      36.762 -26.076 -13.527  0.00  0.00    +0.137 C 
ATOM     19  C   UNL     1      36.807 -27.255 -14.492  0.00  0.00    +0.034 C 
BRANCH  18  20
ATOM     20  O   UNL     1      36.936 -26.559 -12.195  0.00  0.00    -0.382 OA
ATOM     21  H   UNL     1      37.814 -26.961 -12.109  0.00  0.00    +0.210 HD
ENDBRANCH  18  20
ENDBRANCH  11  18
ENDBRANCH   8  11
ENDBRANCH   1   9
BRANCH   4  23
ATOM     22  C   UNL     1      35.308 -19.911 -20.831  0.00  0.00    -0.060 C 
ATOM     23  C   UNL     1      35.463 -20.585 -19.847  0.00  0.00    -0.060 C 
BRANCH  22  29
ATOM     24  C   UNL     1      34.760 -17.545 -24.281  0.00  0.00    -0.043 C 
ATOM     25  C   UNL     1      35.179 -16.954 -23.089  0.00  0.00    -0.006 C 
ATOM     26  C   UNL     1      34.524 -18.920 -24.332  0.00  0.00    -0.006 C 
ATOM     27  C   UNL     1      35.361 -17.736 -21.949  0.00  0.00    +0.008 C 
ATOM     28  C   UNL     1      34.705 -19.701 -23.192  0.00  0.00    +0.008 C 
ATOM     29  C   UNL     1      35.123 -19.109 -22.001  0.00  0.00    +0.042 C 
BRANCH  24  30
ATOM     30  C   UNL     1      34.569 -16.709 -25.500  0.00  0.00    -0.050 C 
BRANCH  30  32
ATOM     31  O   UNL     1      33.193 -12.753 -25.219  0.00  0.00    -0.358 OA
ATOM     32  N   UNL     1      33.710 -15.552 -25.252  0.00  0.00    +0.393 N 
ATOM     33  C   UNL     1      34.301 -14.674 -24.233  0.00  0.00    -0.044 C 
ATOM     34  C   UNL     1      33.477 -14.799 -26.492  0.00  0.00    -0.044 C 
ATOM     35  C   UNL     1      33.394 -13.469 -23.999  0.00  0.00    +0.119 C 
ATOM     36  C   UNL     1      32.590 -13.592 -26.205  0.00  0.00    +0.119 C 
ATOM     37  H   UNL     1      32.814 -15.897 -24.906  0.00  0.00    -0.079 HD
ENDBRANCH  30  32
ENDBRANCH  24  30
ENDBRANCH  22  29
ENDBRANCH   4  23
TORSDOF 10
ENDMDL
MODEL 6
REMARK VINA RESULT:      -9.7      4.521     14.324
REMARK  Name = 11546620
REMARK  10 active torsions:
REMARK  status: ('A' for Active; 'I' for Inactive)
REMARK    1  A    between atoms: C_1  and  C_9
REMARK    2  A    between atoms: C_4  and  C_23
REMARK    3  A    between atoms: N_8  and  C_11
REMARK    4  A    between atoms: C_11  and  C_14
REMARK    5  A    between atoms: C_11  and  C_18
REMARK    6  A    between atoms: N_13  and  O_16
REMARK    7  A    between atoms: C_18  and  O_20
REMARK    8  A    between atoms: C_22  and  C_29
REMARK    9  A    between atoms: C_24  and  C_30
REMARK   10  A    between atoms: C_30  and  N_32
REMARK                            x       y       z     vdW  Elec       q    Type
REMARK                         _______ _______ _______ _____ _____    ______ ____
ROOT
ATOM      1  C   UNL     1      32.570 -11.121 -22.946  0.00  0.00    +0.053 C 
ATOM      2  C   UNL     1      31.950 -11.699 -21.858  0.00  0.00    +0.005 C 
ATOM      3  C   UNL     1      33.502 -11.796 -23.707  0.00  0.00    +0.005 C 
ATOM      4  C   UNL     1      33.218 -13.714 -22.266  0.00  0.00    +0.042 C 
ATOM      5  C   UNL     1      32.278 -13.010 -21.513  0.00  0.00    +0.008 C 
ATOM      6  C   UNL     1      33.830 -13.108 -23.363  0.00  0.00    +0.008 C 
ENDROOT
BRANCH   1   9
ATOM      7  O   UNL     1      32.050  -9.442 -24.498  0.00  0.00    -0.270 OA
ATOM      8  N   UNL     1      32.083  -8.834 -22.259  0.00  0.00    -0.293 N 
ATOM      9  C   UNL     1      32.219  -9.725 -23.315  0.00  0.00    +0.246 C 
ATOM     10  H   UNL     1      32.240  -9.158 -21.343  0.00  0.00    +0.150 HD
BRANCH   8  11
ATOM     11  C   UNL     1      31.723  -7.452 -22.453  0.00  0.00    +0.178 C 
BRANCH  11  14
ATOM     12  O   UNL     1      33.946  -6.908 -23.256  0.00  0.00    -0.271 OA
ATOM     13  N   UNL     1      32.116  -6.182 -24.460  0.00  0.00    -0.196 N 
ATOM     14  C   UNL     1      32.729  -6.840 -23.422  0.00  0.00    +0.265 C 
ATOM     15  H   UNL     1      31.136  -6.153 -24.555  0.00  0.00    +0.182 HD
BRANCH  13  16
ATOM     16  O   UNL     1      32.971  -5.557 -25.377  0.00  0.00    -0.295 OA
ATOM     17  H   UNL     1      32.591  -5.617 -26.267  0.00  0.00    +0.241 HD
ENDBRANCH  13  16
ENDBRANCH  11  14
BRANCH  11  18
ATOM     18  C   UNL     1      31.664  -6.665 -21.138  0.00  0.00    +0.137 C 
ATOM     19  C   UNL     1      32.544  -7.275 -20.052  0.00  0.00    +0.034 C 
BRANCH  18  20
ATOM     20  O   UNL     1      32.080  -5.319 -21.369  0.00  0.00    -0.382 OA
ATOM     21  H   UNL     1      32.928  -5.318 -21.838  0.00  0.00    +0.210 HD
ENDBRANCH  18  20
ENDBRANCH  11  18
ENDBRANCH   8  11
ENDBRANCH   1   9
BRANCH   4  23
ATOM     22  C   UNL     1      33.840 -16.187 -21.612  0.00  0.00    -0.060 C 
ATOM     23  C   UNL     1      33.555 -15.057 -21.911  0.00  0.00    -0.060 C 
BRANCH  22  29
ATOM     24  C   UNL     1      34.839 -20.150 -20.564  0.00  0.00    -0.043 C 
ATOM     25  C   UNL     1      35.847 -19.226 -20.838  0.00  0.00    -0.006 C 
ATOM     26  C   UNL     1      33.500 -19.763 -20.636  0.00  0.00    -0.006 C 
ATOM     27  C   UNL     1      35.517 -17.915 -21.183  0.00  0.00    +0.008 C 
ATOM     28  C   UNL     1      33.171 -18.452 -20.982  0.00  0.00    +0.008 C 
ATOM     29  C   UNL     1      34.179 -17.530 -21.256  0.00  0.00    +0.042 C 
BRANCH  24  30
ATOM     30  C   UNL     1      35.193 -21.549 -20.192  0.00  0.00    -0.050 C 
BRANCH  30  32
ATOM     31  O   UNL     1      35.159 -23.473 -16.462  0.00  0.00    -0.358 OA
ATOM     32  N   UNL     1      34.990 -21.815 -18.769  0.00  0.00    +0.393 N 
ATOM     33  C   UNL     1      34.086 -22.958 -18.577  0.00  0.00    -0.044 C 
ATOM     34  C   UNL     1      36.271 -22.068 -18.097  0.00  0.00    -0.044 C 
ATOM     35  C   UNL     1      33.898 -23.223 -17.085  0.00  0.00    +0.119 C 
ATOM     36  C   UNL     1      36.033 -22.354 -16.618  0.00  0.00    +0.119 C 
ATOM     37  H   UNL     1      34.562 -20.987 -18.355  0.00  0.00    -0.079 HD
ENDBRANCH  30  32
ENDBRANCH  24  30
ENDBRANCH  22  29
ENDBRANCH   4  23
TORSDOF 10
ENDMDL
MODEL 7
REMARK VINA RESULT:      -9.4      5.564      9.593
REMARK  Name = 11546620
REMARK  10 active torsions:
REMARK  status: ('A' for Active; 'I' for Inactive)
REMARK    1  A    between atoms: C_1  and  C_9
REMARK    2  A    between atoms: C_4  and  C_23
REMARK    3  A    between atoms: N_8  and  C_11
REMARK    4  A    between atoms: C_11  and  C_14
REMARK    5  A    between atoms: C_11  and  C_18
REMARK    6  A    between atoms: N_13  and  O_16
REMARK    7  A    between atoms: C_18  and  O_20
REMARK    8  A    between atoms: C_22  and  C_29
REMARK    9  A    between atoms: C_24  and  C_30
REMARK   10  A    between atoms: C_30  and  N_32
REMARK                            x       y       z     vdW  Elec       q    Type
REMARK                         _______ _______ _______ _____ _____    ______ ____
ROOT
ATOM      1  C   UNL     1      34.430 -17.142 -22.924  0.00  0.00    +0.053 C 
ATOM      2  C   UNL     1      34.243 -16.661 -24.203  0.00  0.00    +0.005 C 
ATOM      3  C   UNL     1      34.481 -16.309 -21.825  0.00  0.00    +0.005 C 
ATOM      4  C   UNL     1      34.150 -14.424 -23.298  0.00  0.00    +0.042 C 
ATOM      5  C   UNL     1      34.102 -15.287 -24.393  0.00  0.00    +0.008 C 
ATOM      6  C   UNL     1      34.339 -14.935 -22.014  0.00  0.00    +0.008 C 
ENDROOT
BRANCH   1   9
ATOM      7  O   UNL     1      34.728 -19.335 -23.699  0.00  0.00    -0.270 OA
ATOM      8  N   UNL     1      34.559 -19.043 -21.404  0.00  0.00    -0.293 N 
ATOM      9  C   UNL     1      34.578 -18.606 -22.721  0.00  0.00    +0.246 C 
ATOM     10  H   UNL     1      34.433 -18.380 -20.687  0.00  0.00    +0.150 HD
BRANCH   8  11
ATOM     11  C   UNL     1      34.715 -20.429 -21.044  0.00  0.00    +0.178 C 
BRANCH  11  14
ATOM     12  O   UNL     1      32.529 -20.109 -20.045  0.00  0.00    -0.271 OA
ATOM     13  N   UNL     1      33.696 -22.044 -19.578  0.00  0.00    -0.196 N 
ATOM     14  C   UNL     1      33.517 -20.826 -20.188  0.00  0.00    +0.265 C 
ATOM     15  H   UNL     1      34.505 -22.587 -19.721  0.00  0.00    +0.182 HD
BRANCH  13  16
ATOM     16  O   UNL     1      32.655 -22.466 -18.740  0.00  0.00    -0.295 OA
ATOM     17  H   UNL     1      32.709 -21.995 -17.894  0.00  0.00    +0.241 HD
ENDBRANCH  13  16
ENDBRANCH  11  14
BRANCH  11  18
ATOM     18  C   UNL     1      36.037 -20.709 -20.318  0.00  0.00    +0.137 C 
ATOM     19  C   UNL     1      37.058 -19.593 -20.513  0.00  0.00    +0.034 C 
BRANCH  18  20
ATOM     20  O   UNL     1      35.790 -20.872 -18.922  0.00  0.00    -0.382 OA
ATOM     21  H   UNL     1      36.574 -21.251 -18.496  0.00  0.00    +0.210 HD
ENDBRANCH  18  20
ENDBRANCH  11  18
ENDBRANCH   8  11
ENDBRANCH   1   9
BRANCH   4  23
ATOM     22  C   UNL     1      33.889 -11.829 -23.658  0.00  0.00    -0.060 C 
ATOM     23  C   UNL     1      34.008 -13.015 -23.493  0.00  0.00    -0.060 C 
BRANCH  22  29
ATOM     24  C   UNL     1      33.470  -7.671 -24.233  0.00  0.00    -0.043 C 
ATOM     25  C   UNL     1      34.726  -8.267 -24.346  0.00  0.00    -0.006 C 
ATOM     26  C   UNL     1      32.352  -8.450 -23.931  0.00  0.00    -0.006 C 
ATOM     27  C   UNL     1      34.864  -9.642 -24.157  0.00  0.00    +0.008 C 
ATOM     28  C   UNL     1      32.492  -9.825 -23.742  0.00  0.00    +0.008 C 
ATOM     29  C   UNL     1      33.747 -10.419 -23.854  0.00  0.00    +0.042 C 
BRANCH  24  30
ATOM     30  C   UNL     1      33.322  -6.201 -24.438  0.00  0.00    -0.050 C 
BRANCH  30  32
ATOM     31  O   UNL     1      30.412  -3.920 -22.453  0.00  0.00    -0.358 OA
ATOM     32  N   UNL     1      32.030  -5.702 -23.972  0.00  0.00    +0.393 N 
ATOM     33  C   UNL     1      31.924  -5.818 -22.511  0.00  0.00    -0.044 C 
ATOM     34  C   UNL     1      31.831  -4.305 -24.382  0.00  0.00    -0.044 C 
ATOM     35  C   UNL     1      30.572  -5.281 -22.047  0.00  0.00    +0.119 C 
ATOM     36  C   UNL     1      30.483  -3.803 -23.874  0.00  0.00    +0.119 C 
ATOM     37  H   UNL     1      31.301  -6.274 -24.399  0.00  0.00    -0.079 HD
ENDBRANCH  30  32
ENDBRANCH  24  30
ENDBRANCH  22  29
ENDBRANCH   4  23
TORSDOF 10
ENDMDL
MODEL 8
REMARK VINA RESULT:      -9.3      1.335      2.300
REMARK  Name = 11546620
REMARK  10 active torsions:
REMARK  status: ('A' for Active; 'I' for Inactive)
REMARK    1  A    between atoms: C_1  and  C_9
REMARK    2  A    between atoms: C_4  and  C_23
REMARK    3  A    between atoms: N_8  and  C_11
REMARK    4  A    between atoms: C_11  and  C_14
REMARK    5  A    between atoms: C_11  and  C_18
REMARK    6  A    between atoms: N_13  and  O_16
REMARK    7  A    between atoms: C_18  and  O_20
REMARK    8  A    between atoms: C_22  and  C_29
REMARK    9  A    between atoms: C_24  and  C_30
REMARK   10  A    between atoms: C_30  and  N_32
REMARK                            x       y       z     vdW  Elec       q    Type
REMARK                         _______ _______ _______ _____ _____    ______ ____
ROOT
ATOM      1  C   UNL     1      35.908 -23.247 -16.541  0.00  0.00    +0.053 C 
ATOM      2  C   UNL     1      34.713 -23.258 -17.230  0.00  0.00    +0.005 C 
ATOM      3  C   UNL     1      36.959 -22.430 -16.903  0.00  0.00    +0.005 C 
ATOM      4  C   UNL     1      35.610 -21.580 -18.717  0.00  0.00    +0.042 C 
ATOM      5  C   UNL     1      34.562 -22.416 -18.331  0.00  0.00    +0.008 C 
ATOM      6  C   UNL     1      36.808 -21.587 -18.004  0.00  0.00    +0.008 C 
ENDROOT
BRANCH   1   9
ATOM      7  O   UNL     1      36.041 -25.361 -15.534  0.00  0.00    -0.270 OA
ATOM      8  N   UNL     1      36.266 -23.516 -14.145  0.00  0.00    -0.293 N 
ATOM      9  C   UNL     1      36.068 -24.144 -15.367  0.00  0.00    +0.246 C 
ATOM     10  H   UNL     1      36.271 -22.532 -14.114  0.00  0.00    +0.150 HD
BRANCH   8  11
ATOM     11  C   UNL     1      36.461 -24.248 -12.920  0.00  0.00    +0.178 C 
BRANCH  11  14
ATOM     12  O   UNL     1      34.894 -24.769 -11.143  0.00  0.00    -0.271 OA
ATOM     13  N   UNL     1      34.115 -24.623 -13.311  0.00  0.00    -0.196 N 
ATOM     14  C   UNL     1      35.086 -24.563 -12.340  0.00  0.00    +0.265 C 
ATOM     15  H   UNL     1      34.312 -24.450 -14.260  0.00  0.00    +0.182 HD
BRANCH  13  16
ATOM     16  O   UNL     1      32.826 -24.946 -12.866  0.00  0.00    -0.295 OA
ATOM     17  H   UNL     1      32.216 -24.225 -13.090  0.00  0.00    +0.241 HD
ENDBRANCH  13  16
ENDBRANCH  11  14
BRANCH  11  18
ATOM     18  C   UNL     1      37.332 -23.492 -11.909  0.00  0.00    +0.137 C 
ATOM     19  C   UNL     1      38.724 -24.098 -11.769  0.00  0.00    +0.034 C 
BRANCH  18  20
ATOM     20  O   UNL     1      37.459 -22.129 -12.313  0.00  0.00    -0.382 OA
ATOM     21  H   UNL     1      36.715 -21.616 -11.960  0.00  0.00    +0.210 HD
ENDBRANCH  18  20
ENDBRANCH  11  18
ENDBRANCH   8  11
ENDBRANCH   1   9
BRANCH   4  23
ATOM     22  C   UNL     1      35.326 -19.993 -20.798  0.00  0.00    -0.060 C 
ATOM     23  C   UNL     1      35.456 -20.718 -19.848  0.00  0.00    -0.060 C 
BRANCH  22  29
ATOM     24  C   UNL     1      34.873 -17.448 -24.133  0.00  0.00    -0.043 C 
ATOM     25  C   UNL     1      34.466 -18.780 -24.212  0.00  0.00    -0.006 C 
ATOM     26  C   UNL     1      35.429 -16.958 -22.951  0.00  0.00    -0.006 C 
ATOM     27  C   UNL     1      34.615 -19.621 -23.109  0.00  0.00    +0.008 C 
ATOM     28  C   UNL     1      35.578 -17.799 -21.849  0.00  0.00    +0.008 C 
ATOM     29  C   UNL     1      35.172 -19.130 -21.929  0.00  0.00    +0.042 C 
BRANCH  24  30
ATOM     30  C   UNL     1      34.711 -16.549 -25.311  0.00  0.00    -0.050 C 
BRANCH  30  32
ATOM     31  O   UNL     1      32.289 -13.257 -24.357  0.00  0.00    -0.358 OA
ATOM     32  N   UNL     1      34.285 -15.204 -24.930  0.00  0.00    +0.393 N 
ATOM     33  C   UNL     1      33.481 -14.591 -25.997  0.00  0.00    -0.044 C 
ATOM     34  C   UNL     1      33.518 -15.235 -23.677  0.00  0.00    -0.044 C 
ATOM     35  C   UNL     1      33.038 -13.193 -25.572  0.00  0.00    +0.119 C 
ATOM     36  C   UNL     1      33.074 -13.823 -23.307  0.00  0.00    +0.119 C 
ATOM     37  H   UNL     1      35.122 -14.640 -24.786  0.00  0.00    -0.079 HD
ENDBRANCH  30  32
ENDBRANCH  24  30
ENDBRANCH  22  29
ENDBRANCH   4  23
TORSDOF 10
ENDMDL
MODEL 9
REMARK VINA RESULT:      -9.2      4.057     13.922
REMARK  Name = 11546620
REMARK  10 active torsions:
REMARK  status: ('A' for Active; 'I' for Inactive)
REMARK    1  A    between atoms: C_1  and  C_9
REMARK    2  A    between atoms: C_4  and  C_23
REMARK    3  A    between atoms: N_8  and  C_11
REMARK    4  A    between atoms: C_11  and  C_14
REMARK    5  A    between atoms: C_11  and  C_18
REMARK    6  A    between atoms: N_13  and  O_16
REMARK    7  A    between atoms: C_18  and  O_20
REMARK    8  A    between atoms: C_22  and  C_29
REMARK    9  A    between atoms: C_24  and  C_30
REMARK   10  A    between atoms: C_30  and  N_32
REMARK                            x       y       z     vdW  Elec       q    Type
REMARK                         _______ _______ _______ _____ _____    ______ ____
ROOT
ATOM      1  C   UNL     1      33.271 -11.930 -23.306  0.00  0.00    +0.053 C 
ATOM      2  C   UNL     1      32.568 -12.303 -22.179  0.00  0.00    +0.005 C 
ATOM      3  C   UNL     1      34.093 -12.805 -23.984  0.00  0.00    +0.005 C 
ATOM      4  C   UNL     1      33.519 -14.514 -22.377  0.00  0.00    +0.042 C 
ATOM      5  C   UNL     1      32.693 -13.610 -21.709  0.00  0.00    +0.008 C 
ATOM      6  C   UNL     1      34.219 -14.112 -23.514  0.00  0.00    +0.008 C 
ENDROOT
BRANCH   1   9
ATOM      7  O   UNL     1      33.170 -10.331 -25.019  0.00  0.00    -0.270 OA
ATOM      8  N   UNL     1      32.953  -9.558 -22.842  0.00  0.00    -0.293 N 
ATOM      9  C   UNL     1      33.136 -10.538 -23.808  0.00  0.00    +0.246 C 
ATOM     10  H   UNL     1      32.940  -9.824 -21.894  0.00  0.00    +0.150 HD
BRANCH   8  11
ATOM     11  C   UNL     1      32.782  -8.166 -23.172  0.00  0.00    +0.178 C 
BRANCH  11  14
ATOM     12  O   UNL     1      32.511  -6.174 -21.815  0.00  0.00    -0.271 OA
ATOM     13  N   UNL     1      33.102  -8.154 -20.786  0.00  0.00    -0.196 N 
ATOM     14  C   UNL     1      32.765  -7.376 -21.867  0.00  0.00    +0.265 C 
ATOM     15  H   UNL     1      33.299  -9.114 -20.873  0.00  0.00    +0.182 HD
BRANCH  13  16
ATOM     16  O   UNL     1      33.148  -7.494 -19.551  0.00  0.00    -0.295 OA
ATOM     17  H   UNL     1      32.738  -6.619 -19.635  0.00  0.00    +0.241 HD
ENDBRANCH  13  16
ENDBRANCH  11  14
BRANCH  11  18
ATOM     18  C   UNL     1      31.516  -7.903 -23.999  0.00  0.00    +0.137 C 
ATOM     19  C   UNL     1      30.247  -8.352 -23.283  0.00  0.00    +0.034 C 
BRANCH  18  20
ATOM     20  O   UNL     1      31.417  -6.509 -24.288  0.00  0.00    -0.382 OA
ATOM     21  H   UNL     1      30.670  -6.130 -23.800  0.00  0.00    +0.210 HD
ENDBRANCH  18  20
ENDBRANCH  11  18
ENDBRANCH   8  11
ENDBRANCH   1   9
BRANCH   4  23
ATOM     22  C   UNL     1      33.760 -16.979 -21.487  0.00  0.00    -0.060 C 
ATOM     23  C   UNL     1      33.650 -15.853 -21.893  0.00  0.00    -0.060 C 
BRANCH  22  29
ATOM     24  C   UNL     1      34.147 -20.930 -20.057  0.00  0.00    -0.043 C 
ATOM     25  C   UNL     1      32.888 -20.335 -20.130  0.00  0.00    -0.006 C 
ATOM     26  C   UNL     1      35.279 -20.219 -20.458  0.00  0.00    -0.006 C 
ATOM     27  C   UNL     1      32.759 -19.030 -20.604  0.00  0.00    +0.008 C 
ATOM     28  C   UNL     1      35.150 -18.913 -20.931  0.00  0.00    +0.008 C 
ATOM     29  C   UNL     1      33.891 -18.320 -21.003  0.00  0.00    +0.042 C 
BRANCH  24  30
ATOM     30  C   UNL     1      34.283 -22.327 -19.554  0.00  0.00    -0.050 C 
BRANCH  30  32
ATOM     31  O   UNL     1      34.820 -23.713 -15.628  0.00  0.00    -0.358 OA
ATOM     32  N   UNL     1      34.285 -22.394 -18.094  0.00  0.00    +0.393 N 
ATOM     33  C   UNL     1      33.452 -23.509 -17.623  0.00  0.00    -0.044 C 
ATOM     34  C   UNL     1      35.654 -22.536 -17.578  0.00  0.00    -0.044 C 
ATOM     35  C   UNL     1      33.478 -23.566 -16.098  0.00  0.00    +0.119 C 
ATOM     36  C   UNL     1      35.629 -22.616 -16.056  0.00  0.00    +0.119 C 
ATOM     37  H   UNL     1      33.892 -21.521 -17.740  0.00  0.00    -0.079 HD
ENDBRANCH  30  32
ENDBRANCH  24  30
ENDBRANCH  22  29
ENDBRANCH   4  23
TORSDOF 10
ENDMDL
