MODEL 1
REMARK VINA RESULT:      -6.1      0.000      0.000
REMARK  Name = 5287547
REMARK  0 active torsions:
REMARK  status: ('A' for Active; 'I' for Inactive)
REMARK                            x       y       z     vdW  Elec       q    Type
REMARK                         _______ _______ _______ _____ _____    ______ ____
ROOT
ATOM      1  N   UNL     1      34.922 -22.417 -18.490  0.00  0.00    -0.271 NA
ATOM      2  N   UNL     1      32.699 -22.316 -18.639  0.00  0.00    -0.307 N 
ATOM      3  N   UNL     1      34.800 -19.727 -20.994  0.00  0.00    -0.251 NA
ATOM      4  N   UNL     1      32.608 -20.537 -20.294  0.00  0.00    -0.232 NA
ATOM      5  C   UNL     1      34.655 -21.439 -19.405  0.00  0.00    +0.146 C 
ATOM      6  C   UNL     1      35.433 -20.594 -20.172  0.00  0.00    +0.055 C 
ATOM      7  C   UNL     1      33.270 -21.395 -19.481  0.00  0.00    +0.123 C 
ATOM      8  C   UNL     1      36.921 -20.581 -20.150  0.00  0.00    +0.049 C 
ATOM      9  C   UNL     1      33.719 -22.912 -18.059  0.00  0.00    +0.163 C 
ATOM     10  C   UNL     1      33.446 -19.751 -21.005  0.00  0.00    +0.251 C 
ATOM     11  H   UNL     1      35.813 -22.712 -18.194  0.00  0.00    +0.125 HD
ATOM     12  H   UNL     1      31.741 -22.491 -18.499  0.00  0.00    +0.149 HD
ENDROOT
TORSDOF 0
ENDMDL
MODEL 2
REMARK VINA RESULT:      -6.0      0.976      3.462
REMARK  Name = 5287547
REMARK  0 active torsions:
REMARK  status: ('A' for Active; 'I' for Inactive)
REMARK                            x       y       z     vdW  Elec       q    Type
REMARK                         _______ _______ _______ _____ _____    ______ ____
ROOT
ATOM      1  N   UNL     1      32.652 -20.968 -20.031  0.00  0.00    -0.271 NA
ATOM      2  N   UNL     1      34.127 -19.628 -21.031  0.00  0.00    -0.307 N 
ATOM      3  N   UNL     1      35.632 -22.298 -18.336  0.00  0.00    -0.251 NA
ATOM      4  N   UNL     1      36.104 -20.500 -19.916  0.00  0.00    -0.232 NA
ATOM      5  C   UNL     1      33.872 -21.313 -19.522  0.00  0.00    +0.146 C 
ATOM      6  C   UNL     1      34.307 -22.242 -18.598  0.00  0.00    +0.055 C 
ATOM      7  C   UNL     1      34.770 -20.467 -20.157  0.00  0.00    +0.123 C 
ATOM      8  C   UNL     1      33.409 -23.183 -17.875  0.00  0.00    +0.049 C 
ATOM      9  C   UNL     1      32.856 -19.956 -20.931  0.00  0.00    +0.163 C 
ATOM     10  C   UNL     1      36.438 -21.436 -19.002  0.00  0.00    +0.251 C 
ATOM     11  H   UNL     1      31.787 -21.373 -19.796  0.00  0.00    +0.125 HD
ATOM     12  H   UNL     1      34.526 -18.936 -21.605  0.00  0.00    +0.149 HD
ENDROOT
TORSDOF 0
ENDMDL
MODEL 3
REMARK VINA RESULT:      -5.9      6.256      7.933
REMARK  Name = 5287547
REMARK  0 active torsions:
REMARK  status: ('A' for Active; 'I' for Inactive)
REMARK                            x       y       z     vdW  Elec       q    Type
REMARK                         _______ _______ _______ _____ _____    ______ ____
ROOT
ATOM      1  N   UNL     1      36.936 -25.760 -15.498  0.00  0.00    -0.271 NA
ATOM      2  N   UNL     1      37.117 -27.073 -13.705  0.00  0.00    -0.307 N 
ATOM      3  N   UNL     1      37.676 -23.075 -13.094  0.00  0.00    -0.251 NA
ATOM      4  N   UNL     1      37.607 -25.306 -12.108  0.00  0.00    -0.232 NA
ATOM      5  C   UNL     1      37.221 -24.926 -14.454  0.00  0.00    +0.146 C 
ATOM      6  C   UNL     1      37.397 -23.562 -14.325  0.00  0.00    +0.055 C 
ATOM      7  C   UNL     1      37.328 -25.764 -13.353  0.00  0.00    +0.123 C 
ATOM      8  C   UNL     1      37.297 -22.598 -15.454  0.00  0.00    +0.049 C 
ATOM      9  C   UNL     1      36.885 -27.035 -15.000  0.00  0.00    +0.163 C 
ATOM     10  C   UNL     1      37.763 -23.965 -12.076  0.00  0.00    +0.251 C 
ATOM     11  H   UNL     1      36.795 -25.494 -16.434  0.00  0.00    +0.125 HD
ATOM     12  H   UNL     1      37.135 -27.864 -13.120  0.00  0.00    +0.149 HD
ENDROOT
TORSDOF 0
ENDMDL
MODEL 4
REMARK VINA RESULT:      -5.8      6.617      7.865
REMARK  Name = 5287547
REMARK  0 active torsions:
REMARK  status: ('A' for Active; 'I' for Inactive)
REMARK                            x       y       z     vdW  Elec       q    Type
REMARK                         _______ _______ _______ _____ _____    ______ ____
ROOT
ATOM      1  N   UNL     1      34.636 -15.728 -22.779  0.00  0.00    -0.271 NA
ATOM      2  N   UNL     1      33.820 -13.661 -22.962  0.00  0.00    -0.307 N 
ATOM      3  N   UNL     1      33.497 -16.043 -26.262  0.00  0.00    -0.251 NA
ATOM      4  N   UNL     1      33.062 -13.859 -25.265  0.00  0.00    -0.232 NA
ATOM      5  C   UNL     1      34.145 -15.634 -24.051  0.00  0.00    +0.146 C 
ATOM      6  C   UNL     1      34.071 -16.498 -25.126  0.00  0.00    +0.055 C 
ATOM      7  C   UNL     1      33.643 -14.343 -24.140  0.00  0.00    +0.123 C 
ATOM      8  C   UNL     1      34.584 -17.895 -25.109  0.00  0.00    +0.049 C 
ATOM      9  C   UNL     1      34.419 -14.522 -22.167  0.00  0.00    +0.163 C 
ATOM     10  C   UNL     1      33.034 -14.770 -26.262  0.00  0.00    +0.251 C 
ATOM     11  H   UNL     1      35.067 -16.516 -22.378  0.00  0.00    +0.125 HD
ATOM     12  H   UNL     1      33.557 -12.736 -22.758  0.00  0.00    +0.149 HD
ENDROOT
TORSDOF 0
ENDMDL
MODEL 5
REMARK VINA RESULT:      -5.8      5.922      7.613
REMARK  Name = 5287547
REMARK  0 active torsions:
REMARK  status: ('A' for Active; 'I' for Inactive)
REMARK                            x       y       z     vdW  Elec       q    Type
REMARK                         _______ _______ _______ _____ _____    ______ ____
ROOT
ATOM      1  N   UNL     1      34.626 -15.878 -22.524  0.00  0.00    -0.271 NA
ATOM      2  N   UNL     1      35.264 -17.284 -24.132  0.00  0.00    -0.307 N 
ATOM      3  N   UNL     1      32.804 -14.228 -25.261  0.00  0.00    -0.251 NA
ATOM      4  N   UNL     1      34.064 -16.202 -25.949  0.00  0.00    -0.232 NA
ATOM      5  C   UNL     1      34.035 -15.425 -23.670  0.00  0.00    +0.146 C 
ATOM      6  C   UNL     1      33.202 -14.367 -23.976  0.00  0.00    +0.055 C 
ATOM      7  C   UNL     1      34.445 -16.314 -24.653  0.00  0.00    +0.123 C 
ATOM      8  C   UNL     1      32.719 -13.371 -22.981  0.00  0.00    +0.049 C 
ATOM      9  C   UNL     1      35.352 -16.992 -22.852  0.00  0.00    +0.163 C 
ATOM     10  C   UNL     1      33.253 -15.141 -26.156  0.00  0.00    +0.251 C 
ATOM     11  H   UNL     1      34.546 -15.477 -21.629  0.00  0.00    +0.125 HD
ATOM     12  H   UNL     1      35.691 -18.031 -24.609  0.00  0.00    +0.149 HD
ENDROOT
TORSDOF 0
ENDMDL
MODEL 6
REMARK VINA RESULT:      -5.8      4.272      6.025
REMARK  Name = 5287547
REMARK  0 active torsions:
REMARK  status: ('A' for Active; 'I' for Inactive)
REMARK                            x       y       z     vdW  Elec       q    Type
REMARK                         _______ _______ _______ _____ _____    ______ ____
ROOT
ATOM      1  N   UNL     1      35.340 -17.866 -24.017  0.00  0.00    -0.271 NA
ATOM      2  N   UNL     1      34.381 -15.896 -24.426  0.00  0.00    -0.307 N 
ATOM      3  N   UNL     1      35.167 -16.757 -20.514  0.00  0.00    -0.251 NA
ATOM      4  N   UNL     1      34.262 -15.152 -22.114  0.00  0.00    -0.232 NA
ATOM      5  C   UNL     1      35.182 -17.270 -22.798  0.00  0.00    +0.146 C 
ATOM      6  C   UNL     1      35.478 -17.631 -21.498  0.00  0.00    +0.055 C 
ATOM      7  C   UNL     1      34.585 -16.049 -23.078  0.00  0.00    +0.123 C 
ATOM      8  C   UNL     1      36.117 -18.919 -21.116  0.00  0.00    +0.049 C 
ATOM      9  C   UNL     1      34.846 -17.006 -24.960  0.00  0.00    +0.163 C 
ATOM     10  C   UNL     1      34.587 -15.588 -20.878  0.00  0.00    +0.251 C 
ATOM     11  H   UNL     1      35.736 -18.751 -24.185  0.00  0.00    +0.125 HD
ATOM     12  H   UNL     1      33.978 -15.128 -24.891  0.00  0.00    +0.149 HD
ENDROOT
TORSDOF 0
ENDMDL
MODEL 7
REMARK VINA RESULT:      -5.8      6.007      7.816
REMARK  Name = 5287547
REMARK  0 active torsions:
REMARK  status: ('A' for Active; 'I' for Inactive)
REMARK                            x       y       z     vdW  Elec       q    Type
REMARK                         _______ _______ _______ _____ _____    ______ ____
ROOT
ATOM      1  N   UNL     1      38.493 -23.544 -15.762  0.00  0.00    -0.271 NA
ATOM      2  N   UNL     1      36.398 -23.164 -15.099  0.00  0.00    -0.307 N 
ATOM      3  N   UNL     1      38.367 -26.220 -13.241  0.00  0.00    -0.251 NA
ATOM      4  N   UNL     1      36.304 -24.930 -13.430  0.00  0.00    -0.232 NA
ATOM      5  C   UNL     1      38.238 -24.468 -14.789  0.00  0.00    +0.146 C 
ATOM      6  C   UNL     1      38.967 -25.486 -14.206  0.00  0.00    +0.055 C 
ATOM      7  C   UNL     1      36.932 -24.213 -14.393  0.00  0.00    +0.123 C 
ATOM      8  C   UNL     1      40.369 -25.822 -14.572  0.00  0.00    +0.049 C 
ATOM      9  C   UNL     1      37.362 -22.786 -15.912  0.00  0.00    +0.163 C 
ATOM     10  C   UNL     1      37.091 -25.901 -12.917  0.00  0.00    +0.251 C 
ATOM     11  H   UNL     1      39.334 -23.441 -16.262  0.00  0.00    +0.125 HD
ATOM     12  H   UNL     1      35.496 -22.781 -15.016  0.00  0.00    +0.149 HD
ENDROOT
TORSDOF 0
ENDMDL
MODEL 8
REMARK VINA RESULT:      -5.8      4.207      6.235
REMARK  Name = 5287547
REMARK  0 active torsions:
REMARK  status: ('A' for Active; 'I' for Inactive)
REMARK                            x       y       z     vdW  Elec       q    Type
REMARK                         _______ _______ _______ _____ _____    ______ ____
ROOT
ATOM      1  N   UNL     1      34.123 -15.626 -23.712  0.00  0.00    -0.271 NA
ATOM      2  N   UNL     1      34.809 -17.425 -24.837  0.00  0.00    -0.307 N 
ATOM      3  N   UNL     1      35.360 -17.490 -20.793  0.00  0.00    -0.251 NA
ATOM      4  N   UNL     1      35.630 -18.666 -22.914  0.00  0.00    -0.232 NA
ATOM      5  C   UNL     1      34.637 -16.477 -22.775  0.00  0.00    +0.146 C 
ATOM      6  C   UNL     1      34.790 -16.426 -21.404  0.00  0.00    +0.055 C 
ATOM      7  C   UNL     1      35.056 -17.585 -23.497  0.00  0.00    +0.123 C 
ATOM      8  C   UNL     1      34.367 -15.277 -20.559  0.00  0.00    +0.049 C 
ATOM      9  C   UNL     1      34.248 -16.237 -24.932  0.00  0.00    +0.163 C 
ATOM     10  C   UNL     1      35.739 -18.530 -21.575  0.00  0.00    +0.251 C 
ATOM     11  H   UNL     1      33.735 -14.738 -23.543  0.00  0.00    +0.125 HD
ATOM     12  H   UNL     1      35.006 -18.056 -25.565  0.00  0.00    +0.149 HD
ENDROOT
TORSDOF 0
ENDMDL
MODEL 9
REMARK VINA RESULT:      -5.8      6.123      7.674
REMARK  Name = 5287547
REMARK  0 active torsions:
REMARK  status: ('A' for Active; 'I' for Inactive)
REMARK                            x       y       z     vdW  Elec       q    Type
REMARK                         _______ _______ _______ _____ _____    ______ ____
ROOT
ATOM      1  N   UNL     1      34.134 -17.205 -25.522  0.00  0.00    -0.271 NA
ATOM      2  N   UNL     1      35.258 -17.451 -23.612  0.00  0.00    -0.307 N 
ATOM      3  N   UNL     1      33.523 -13.811 -24.243  0.00  0.00    -0.251 NA
ATOM      4  N   UNL     1      34.860 -15.210 -22.757  0.00  0.00    -0.232 NA
ATOM      5  C   UNL     1      34.027 -16.008 -24.870  0.00  0.00    +0.146 C 
ATOM      6  C   UNL     1      33.413 -14.804 -25.153  0.00  0.00    +0.055 C 
ATOM      7  C   UNL     1      34.732 -16.186 -23.689  0.00  0.00    +0.123 C 
ATOM      8  C   UNL     1      32.639 -14.535 -26.395  0.00  0.00    +0.049 C 
ATOM      9  C   UNL     1      34.880 -18.036 -24.729  0.00  0.00    +0.163 C 
ATOM     10  C   UNL     1      34.230 -14.071 -23.117  0.00  0.00    +0.251 C 
ATOM     11  H   UNL     1      33.747 -17.428 -26.398  0.00  0.00    +0.125 HD
ATOM     12  H   UNL     1      35.798 -17.836 -22.885  0.00  0.00    +0.149 HD
ENDROOT
TORSDOF 0
ENDMDL
