MODEL 1
REMARK VINA RESULT:      -6.8      0.000      0.000
REMARK  Name = 311
REMARK  9 active torsions:
REMARK  status: ('A' for Active; 'I' for Inactive)
REMARK    1  A    between atoms: C_1  and  O_2
REMARK    2  A    between atoms: C_1  and  C_5
REMARK    3  A    between atoms: C_1  and  C_8
REMARK    4  A    between atoms: C_1  and  C_13
REMARK    5  A    between atoms: C_5  and  O_6
REMARK    6  A    between atoms: C_8  and  C_10
REMARK    7  A    between atoms: C_10  and  O_11
REMARK    8  A    between atoms: C_13  and  C_15
REMARK    9  A    between atoms: C_15  and  O_16
REMARK                            x       y       z     vdW  Elec       q    Type
REMARK                         _______ _______ _______ _____ _____    ______ ____
ROOT
ATOM      1  C   UNL     1      38.917 -25.419 -14.325  0.00  0.00    +0.198 C 
ENDROOT
BRANCH   1   2
ATOM      2  O   UNL     1      38.563 -24.389 -15.241  0.00  0.00    -0.376 OA
ATOM      3  H   UNL     1      39.185 -24.390 -15.985  0.00  0.00    +0.211 HD
ENDBRANCH   1   2
BRANCH   1   5
ATOM      4  O   UNL     1      41.099 -26.497 -14.095  0.00  0.00    -0.248 OA
ATOM      5  C   UNL     1      40.241 -26.011 -14.823  0.00  0.00    +0.339 C 
BRANCH   5   6
ATOM      6  O   UNL     1      40.400 -25.909 -16.168  0.00  0.00    -0.479 OA
ATOM      7  H   UNL     1      40.936 -26.527 -16.624  0.00  0.00    +0.295 HD
ENDBRANCH   5   6
ENDBRANCH   1   5
BRANCH   1   8
ATOM      8  C   UNL     1      37.848 -26.525 -14.343  0.00  0.00    +0.148 C 
BRANCH   8  10
ATOM      9  O   UNL     1      35.913 -25.508 -15.375  0.00  0.00    -0.250 OA
ATOM     10  C   UNL     1      36.771 -26.381 -15.394  0.00  0.00    +0.317 C 
BRANCH  10  11
ATOM     11  O   UNL     1      36.833 -27.339 -16.352  0.00  0.00    -0.480 OA
ATOM     12  H   UNL     1      37.645 -27.770 -16.532  0.00  0.00    +0.295 HD
ENDBRANCH  10  11
ENDBRANCH   8  10
ENDBRANCH   1   8
BRANCH   1  13
ATOM     13  C   UNL     1      39.199 -24.818 -12.940  0.00  0.00    +0.148 C 
BRANCH  13  15
ATOM     14  O   UNL     1      37.514 -24.557 -11.225  0.00  0.00    -0.250 OA
ATOM     15  C   UNL     1      38.026 -24.148 -12.260  0.00  0.00    +0.317 C 
BRANCH  15  16
ATOM     16  O   UNL     1      37.619 -23.023 -12.895  0.00  0.00    -0.480 OA
ATOM     17  H   UNL     1      36.708 -22.885 -13.067  0.00  0.00    +0.295 HD
ENDBRANCH  15  16
ENDBRANCH  13  15
ENDBRANCH   1  13
TORSDOF 9
ENDMDL
MODEL 2
REMARK VINA RESULT:      -6.7      1.229      3.987
REMARK  Name = 311
REMARK  9 active torsions:
REMARK  status: ('A' for Active; 'I' for Inactive)
REMARK    1  A    between atoms: C_1  and  O_2
REMARK    2  A    between atoms: C_1  and  C_5
REMARK    3  A    between atoms: C_1  and  C_8
REMARK    4  A    between atoms: C_1  and  C_13
REMARK    5  A    between atoms: C_5  and  O_6
REMARK    6  A    between atoms: C_8  and  C_10
REMARK    7  A    between atoms: C_10  and  O_11
REMARK    8  A    between atoms: C_13  and  C_15
REMARK    9  A    between atoms: C_15  and  O_16
REMARK                            x       y       z     vdW  Elec       q    Type
REMARK                         _______ _______ _______ _____ _____    ______ ____
ROOT
ATOM      1  C   UNL     1      37.933 -25.006 -13.968  0.00  0.00    +0.198 C 
ENDROOT
BRANCH   1   2
ATOM      2  O   UNL     1      38.241 -23.706 -14.458  0.00  0.00    -0.376 OA
ATOM      3  H   UNL     1      37.776 -23.042 -13.927  0.00  0.00    +0.211 HD
ENDBRANCH   1   2
BRANCH   1   5
ATOM      4  O   UNL     1      35.678 -25.257 -14.878  0.00  0.00    -0.248 OA
ATOM      5  C   UNL     1      36.859 -25.582 -14.899  0.00  0.00    +0.339 C 
BRANCH   5   6
ATOM      6  O   UNL     1      37.337 -26.536 -15.739  0.00  0.00    -0.479 OA
ATOM      7  H   UNL     1      38.090 -27.037 -15.498  0.00  0.00    +0.295 HD
ENDBRANCH   5   6
ENDBRANCH   1   5
BRANCH   1   8
ATOM      8  C   UNL     1      37.349 -24.905 -12.548  0.00  0.00    +0.148 C 
BRANCH   8  10
ATOM      9  O   UNL     1      37.615 -22.831 -11.336  0.00  0.00    -0.250 OA
ATOM     10  C   UNL     1      36.948 -23.518 -12.099  0.00  0.00    +0.317 C 
BRANCH  10  11
ATOM     11  O   UNL     1      35.756 -23.119 -12.607  0.00  0.00    -0.480 OA
ATOM     12  H   UNL     1      35.645 -22.237 -12.903  0.00  0.00    +0.295 HD
ENDBRANCH  10  11
ENDBRANCH   8  10
ENDBRANCH   1   8
BRANCH   1  13
ATOM     13  C   UNL     1      39.161 -25.921 -14.095  0.00  0.00    +0.148 C 
BRANCH  13  15
ATOM     14  O   UNL     1      41.128 -24.573 -14.491  0.00  0.00    -0.250 OA
ATOM     15  C   UNL     1      40.308 -25.377 -14.916  0.00  0.00    +0.317 C 
BRANCH  15  16
ATOM     16  O   UNL     1      40.359 -25.899 -16.165  0.00  0.00    -0.480 OA
ATOM     17  H   UNL     1      39.570 -26.013 -16.658  0.00  0.00    +0.295 HD
ENDBRANCH  15  16
ENDBRANCH  13  15
ENDBRANCH   1  13
TORSDOF 9
ENDMDL
MODEL 3
REMARK VINA RESULT:      -6.6      1.227      4.005
REMARK  Name = 311
REMARK  9 active torsions:
REMARK  status: ('A' for Active; 'I' for Inactive)
REMARK    1  A    between atoms: C_1  and  O_2
REMARK    2  A    between atoms: C_1  and  C_5
REMARK    3  A    between atoms: C_1  and  C_8
REMARK    4  A    between atoms: C_1  and  C_13
REMARK    5  A    between atoms: C_5  and  O_6
REMARK    6  A    between atoms: C_8  and  C_10
REMARK    7  A    between atoms: C_10  and  O_11
REMARK    8  A    between atoms: C_13  and  C_15
REMARK    9  A    between atoms: C_15  and  O_16
REMARK                            x       y       z     vdW  Elec       q    Type
REMARK                         _______ _______ _______ _____ _____    ______ ____
ROOT
ATOM      1  C   UNL     1      37.828 -24.442 -13.344  0.00  0.00    +0.198 C 
ENDROOT
BRANCH   1   2
ATOM      2  O   UNL     1      38.030 -23.483 -14.375  0.00  0.00    -0.376 OA
ATOM      3  H   UNL     1      37.430 -23.670 -15.113  0.00  0.00    +0.211 HD
ENDBRANCH   1   2
BRANCH   1   5
ATOM      4  O   UNL     1      38.208 -22.518 -11.885  0.00  0.00    -0.248 OA
ATOM      5  C   UNL     1      37.804 -23.666 -12.022  0.00  0.00    +0.339 C 
BRANCH   5   6
ATOM      6  O   UNL     1      37.322 -24.396 -10.982  0.00  0.00    -0.479 OA
ATOM      7  H   UNL     1      36.402 -24.561 -10.913  0.00  0.00    +0.295 HD
ENDBRANCH   5   6
ENDBRANCH   1   5
BRANCH   1   8
ATOM      8  C   UNL     1      39.007 -25.431 -13.310  0.00  0.00    +0.148 C 
BRANCH   8  10
ATOM      9  O   UNL     1      41.001 -24.889 -14.564  0.00  0.00    -0.250 OA
ATOM     10  C   UNL     1      39.902 -25.427 -14.529  0.00  0.00    +0.317 C 
BRANCH  10  11
ATOM     11  O   UNL     1      39.350 -26.058 -15.595  0.00  0.00    -0.480 OA
ATOM     12  H   UNL     1      38.674 -25.639 -16.089  0.00  0.00    +0.295 HD
ENDBRANCH  10  11
ENDBRANCH   8  10
ENDBRANCH   1   8
BRANCH   1  13
ATOM     13  C   UNL     1      36.445 -25.095 -13.494  0.00  0.00    +0.148 C 
BRANCH  13  15
ATOM     14  O   UNL     1      35.659 -24.719 -15.750  0.00  0.00    -0.250 OA
ATOM     15  C   UNL     1      36.058 -25.503 -14.898  0.00  0.00    +0.317 C 
BRANCH  15  16
ATOM     16  O   UNL     1      36.232 -26.827 -15.130  0.00  0.00    -0.480 OA
ATOM     17  H   UNL     1      36.939 -27.285 -14.721  0.00  0.00    +0.295 HD
ENDBRANCH  15  16
ENDBRANCH  13  15
ENDBRANCH   1  13
TORSDOF 9
ENDMDL
MODEL 4
REMARK VINA RESULT:      -6.6      1.439      3.469
REMARK  Name = 311
REMARK  9 active torsions:
REMARK  status: ('A' for Active; 'I' for Inactive)
REMARK    1  A    between atoms: C_1  and  O_2
REMARK    2  A    between atoms: C_1  and  C_5
REMARK    3  A    between atoms: C_1  and  C_8
REMARK    4  A    between atoms: C_1  and  C_13
REMARK    5  A    between atoms: C_5  and  O_6
REMARK    6  A    between atoms: C_8  and  C_10
REMARK    7  A    between atoms: C_10  and  O_11
REMARK    8  A    between atoms: C_13  and  C_15
REMARK    9  A    between atoms: C_15  and  O_16
REMARK                            x       y       z     vdW  Elec       q    Type
REMARK                         _______ _______ _______ _____ _____    ______ ____
ROOT
ATOM      1  C   UNL     1      38.142 -25.631 -13.838  0.00  0.00    +0.198 C 
ENDROOT
BRANCH   1   2
ATOM      2  O   UNL     1      38.036 -26.992 -14.239  0.00  0.00    -0.376 OA
ATOM      3  H   UNL     1      38.749 -27.506 -13.831  0.00  0.00    +0.211 HD
ENDBRANCH   1   2
BRANCH   1   5
ATOM      4  O   UNL     1      37.959 -24.689 -11.590  0.00  0.00    -0.248 OA
ATOM      5  C   UNL     1      37.642 -25.560 -12.391  0.00  0.00    +0.339 C 
BRANCH   5   6
ATOM      6  O   UNL     1      36.831 -26.597 -12.054  0.00  0.00    -0.479 OA
ATOM      7  H   UNL     1      36.208 -26.498 -11.363  0.00  0.00    +0.295 HD
ENDBRANCH   5   6
ENDBRANCH   1   5
BRANCH   1   8
ATOM      8  C   UNL     1      37.231 -24.754 -14.715  0.00  0.00    +0.148 C 
BRANCH   8  10
ATOM      9  O   UNL     1      34.874 -24.327 -14.386  0.00  0.00    -0.250 OA
ATOM     10  C   UNL     1      35.762 -25.111 -14.698  0.00  0.00    +0.317 C 
BRANCH  10  11
ATOM     11  O   UNL     1      35.525 -26.403 -15.038  0.00  0.00    -0.480 OA
ATOM     12  H   UNL     1      36.242 -26.992 -15.168  0.00  0.00    +0.295 HD
ENDBRANCH  10  11
ENDBRANCH   8  10
ENDBRANCH   1   8
BRANCH   1  13
ATOM     13  C   UNL     1      39.617 -25.202 -13.814  0.00  0.00    +0.148 C 
BRANCH  13  15
ATOM     14  O   UNL     1      41.344 -26.875 -14.074  0.00  0.00    -0.250 OA
ATOM     15  C   UNL     1      40.572 -26.078 -14.593  0.00  0.00    +0.317 C 
BRANCH  15  16
ATOM     16  O   UNL     1      40.461 -25.918 -15.934  0.00  0.00    -0.480 OA
ATOM     17  H   UNL     1      40.170 -25.100 -16.286  0.00  0.00    +0.295 HD
ENDBRANCH  15  16
ENDBRANCH  13  15
ENDBRANCH   1  13
TORSDOF 9
ENDMDL
MODEL 5
REMARK VINA RESULT:      -6.4      1.312      3.493
REMARK  Name = 311
REMARK  9 active torsions:
REMARK  status: ('A' for Active; 'I' for Inactive)
REMARK    1  A    between atoms: C_1  and  O_2
REMARK    2  A    between atoms: C_1  and  C_5
REMARK    3  A    between atoms: C_1  and  C_8
REMARK    4  A    between atoms: C_1  and  C_13
REMARK    5  A    between atoms: C_5  and  O_6
REMARK    6  A    between atoms: C_8  and  C_10
REMARK    7  A    between atoms: C_10  and  O_11
REMARK    8  A    between atoms: C_13  and  C_15
REMARK    9  A    between atoms: C_15  and  O_16
REMARK                            x       y       z     vdW  Elec       q    Type
REMARK                         _______ _______ _______ _____ _____    ______ ____
ROOT
ATOM      1  C   UNL     1      37.719 -25.239 -14.125  0.00  0.00    +0.198 C 
ENDROOT
BRANCH   1   2
ATOM      2  O   UNL     1      38.281 -26.220 -13.262  0.00  0.00    -0.376 OA
ATOM      3  H   UNL     1      38.711 -25.782 -12.511  0.00  0.00    +0.211 HD
ENDBRANCH   1   2
BRANCH   1   5
ATOM      4  O   UNL     1      36.646 -26.744 -15.724  0.00  0.00    -0.248 OA
ATOM      5  C   UNL     1      36.537 -25.907 -14.837  0.00  0.00    +0.339 C 
BRANCH   5   6
ATOM      6  O   UNL     1      35.330 -25.447 -14.415  0.00  0.00    -0.479 OA
ATOM      7  H   UNL     1      34.798 -24.934 -14.991  0.00  0.00    +0.295 HD
ENDBRANCH   5   6
ENDBRANCH   1   5
BRANCH   1   8
ATOM      8  C   UNL     1      38.754 -24.817 -15.183  0.00  0.00    +0.148 C 
BRANCH   8  10
ATOM      9  O   UNL     1      40.641 -26.282 -15.551  0.00  0.00    -0.250 OA
ATOM     10  C   UNL     1      40.162 -25.321 -14.962  0.00  0.00    +0.317 C 
BRANCH  10  11
ATOM     11  O   UNL     1      40.837 -24.617 -14.020  0.00  0.00    -0.480 OA
ATOM     12  H   UNL     1      41.591 -24.990 -13.608  0.00  0.00    +0.295 HD
ENDBRANCH  10  11
ENDBRANCH   8  10
ENDBRANCH   1   8
BRANCH   1  13
ATOM     13  C   UNL     1      37.136 -24.082 -13.299  0.00  0.00    +0.148 C 
BRANCH  13  15
ATOM     14  O   UNL     1      38.677 -23.092 -11.720  0.00  0.00    -0.250 OA
ATOM     15  C   UNL     1      37.754 -23.868 -11.935  0.00  0.00    +0.317 C 
BRANCH  15  16
ATOM     16  O   UNL     1      37.155 -24.598 -10.963  0.00  0.00    -0.480 OA
ATOM     17  H   UNL     1      36.941 -25.497 -11.117  0.00  0.00    +0.295 HD
ENDBRANCH  15  16
ENDBRANCH  13  15
ENDBRANCH   1  13
TORSDOF 9
ENDMDL
MODEL 6
REMARK VINA RESULT:      -6.3      1.378      3.539
REMARK  Name = 311
REMARK  9 active torsions:
REMARK  status: ('A' for Active; 'I' for Inactive)
REMARK    1  A    between atoms: C_1  and  O_2
REMARK    2  A    between atoms: C_1  and  C_5
REMARK    3  A    between atoms: C_1  and  C_8
REMARK    4  A    between atoms: C_1  and  C_13
REMARK    5  A    between atoms: C_5  and  O_6
REMARK    6  A    between atoms: C_8  and  C_10
REMARK    7  A    between atoms: C_10  and  O_11
REMARK    8  A    between atoms: C_13  and  C_15
REMARK    9  A    between atoms: C_15  and  O_16
REMARK                            x       y       z     vdW  Elec       q    Type
REMARK                         _______ _______ _______ _____ _____    ______ ____
ROOT
ATOM      1  C   UNL     1      38.417 -25.290 -13.841  0.00  0.00    +0.198 C 
ENDROOT
BRANCH   1   2
ATOM      2  O   UNL     1      38.131 -26.626 -13.444  0.00  0.00    -0.376 OA
ATOM      3  H   UNL     1      37.258 -26.659 -13.024  0.00  0.00    +0.211 HD
ENDBRANCH   1   2
BRANCH   1   5
ATOM      4  O   UNL     1      40.803 -24.828 -14.103  0.00  0.00    -0.248 OA
ATOM      5  C   UNL     1      39.777 -25.325 -14.549  0.00  0.00    +0.339 C 
BRANCH   5   6
ATOM      6  O   UNL     1      39.732 -25.935 -15.762  0.00  0.00    -0.479 OA
ATOM      7  H   UNL     1      40.151 -26.763 -15.886  0.00  0.00    +0.295 HD
ENDBRANCH   5   6
ENDBRANCH   1   5
BRANCH   1   8
ATOM      8  C   UNL     1      38.534 -24.389 -12.599  0.00  0.00    +0.148 C 
BRANCH   8  10
ATOM      9  O   UNL     1      36.537 -25.304 -11.592  0.00  0.00    -0.250 OA
ATOM     10  C   UNL     1      37.335 -24.379 -11.679  0.00  0.00    +0.317 C 
BRANCH  10  11
ATOM     11  O   UNL     1      37.213 -23.225 -10.977  0.00  0.00    -0.480 OA
ATOM     12  H   UNL     1      37.042 -22.420 -11.425  0.00  0.00    +0.295 HD
ENDBRANCH  10  11
ENDBRANCH   8  10
ENDBRANCH   1   8
BRANCH   1  13
ATOM     13  C   UNL     1      37.392 -24.819 -14.883  0.00  0.00    +0.148 C 
BRANCH  13  15
ATOM     14  O   UNL     1      36.201 -26.664 -15.897  0.00  0.00    -0.250 OA
ATOM     15  C   UNL     1      36.206 -25.732 -15.102  0.00  0.00    +0.317 C 
BRANCH  15  16
ATOM     16  O   UNL     1      35.156 -25.436 -14.298  0.00  0.00    -0.480 OA
ATOM     17  H   UNL     1      35.173 -25.684 -13.394  0.00  0.00    +0.295 HD
ENDBRANCH  15  16
ENDBRANCH  13  15
ENDBRANCH   1  13
TORSDOF 9
ENDMDL
MODEL 7
REMARK VINA RESULT:      -6.3      1.842      3.499
REMARK  Name = 311
REMARK  9 active torsions:
REMARK  status: ('A' for Active; 'I' for Inactive)
REMARK    1  A    between atoms: C_1  and  O_2
REMARK    2  A    between atoms: C_1  and  C_5
REMARK    3  A    between atoms: C_1  and  C_8
REMARK    4  A    between atoms: C_1  and  C_13
REMARK    5  A    between atoms: C_5  and  O_6
REMARK    6  A    between atoms: C_8  and  C_10
REMARK    7  A    between atoms: C_10  and  O_11
REMARK    8  A    between atoms: C_13  and  C_15
REMARK    9  A    between atoms: C_15  and  O_16
REMARK                            x       y       z     vdW  Elec       q    Type
REMARK                         _______ _______ _______ _____ _____    ______ ____
ROOT
ATOM      1  C   UNL     1      37.694 -24.459 -13.239  0.00  0.00    +0.198 C 
ENDROOT
BRANCH   1   2
ATOM      2  O   UNL     1      38.995 -24.582 -13.801  0.00  0.00    -0.376 OA
ATOM      3  H   UNL     1      39.645 -24.693 -13.091  0.00  0.00    +0.211 HD
ENDBRANCH   1   2
BRANCH   1   5
ATOM      4  O   UNL     1      37.192 -24.299 -10.852  0.00  0.00    -0.248 OA
ATOM      5  C   UNL     1      37.883 -23.956 -11.803  0.00  0.00    +0.339 C 
BRANCH   5   6
ATOM      6  O   UNL     1      38.882 -23.043 -11.684  0.00  0.00    -0.479 OA
ATOM      7  H   UNL     1      39.348 -22.962 -10.876  0.00  0.00    +0.295 HD
ENDBRANCH   5   6
ENDBRANCH   1   5
BRANCH   1   8
ATOM      8  C   UNL     1      37.013 -25.838 -13.189  0.00  0.00    +0.148 C 
BRANCH   8  10
ATOM      9  O   UNL     1      38.323 -27.208 -14.689  0.00  0.00    -0.250 OA
ATOM     10  C   UNL     1      37.237 -26.725 -14.393  0.00  0.00    +0.317 C 
BRANCH  10  11
ATOM     11  O   UNL     1      36.116 -26.912 -15.132  0.00  0.00    -0.480 OA
ATOM     12  H   UNL     1      35.275 -26.892 -14.720  0.00  0.00    +0.295 HD
ENDBRANCH  10  11
ENDBRANCH   8  10
ENDBRANCH   1   8
BRANCH   1  13
ATOM     13  C   UNL     1      36.899 -23.375 -13.982  0.00  0.00    +0.148 C 
BRANCH  13  15
ATOM     14  O   UNL     1      35.854 -23.915 -16.096  0.00  0.00    -0.250 OA
ATOM     15  C   UNL     1      36.840 -23.515 -15.487  0.00  0.00    +0.317 C 
BRANCH  15  16
ATOM     16  O   UNL     1      37.980 -23.116 -16.100  0.00  0.00    -0.480 OA
ATOM     17  H   UNL     1      38.288 -23.571 -16.859  0.00  0.00    +0.295 HD
ENDBRANCH  15  16
ENDBRANCH  13  15
ENDBRANCH   1  13
TORSDOF 9
ENDMDL
MODEL 8
REMARK VINA RESULT:      -6.3      1.794      3.381
REMARK  Name = 311
REMARK  9 active torsions:
REMARK  status: ('A' for Active; 'I' for Inactive)
REMARK    1  A    between atoms: C_1  and  O_2
REMARK    2  A    between atoms: C_1  and  C_5
REMARK    3  A    between atoms: C_1  and  C_8
REMARK    4  A    between atoms: C_1  and  C_13
REMARK    5  A    between atoms: C_5  and  O_6
REMARK    6  A    between atoms: C_8  and  C_10
REMARK    7  A    between atoms: C_10  and  O_11
REMARK    8  A    between atoms: C_13  and  C_15
REMARK    9  A    between atoms: C_15  and  O_16
REMARK                            x       y       z     vdW  Elec       q    Type
REMARK                         _______ _______ _______ _____ _____    ______ ____
ROOT
ATOM      1  C   UNL     1      37.288 -24.610 -13.262  0.00  0.00    +0.198 C 
ENDROOT
BRANCH   1   2
ATOM      2  O   UNL     1      36.529 -25.806 -13.401  0.00  0.00    -0.376 OA
ATOM      3  H   UNL     1      36.894 -26.338 -14.125  0.00  0.00    +0.211 HD
ENDBRANCH   1   2
BRANCH   1   5
ATOM      4  O   UNL     1      37.663 -22.789 -14.848  0.00  0.00    -0.248 OA
ATOM      5  C   UNL     1      37.317 -23.946 -14.643  0.00  0.00    +0.339 C 
BRANCH   5   6
ATOM      6  O   UNL     1      36.873 -24.759 -15.636  0.00  0.00    -0.479 OA
ATOM      7  H   UNL     1      37.403 -24.902 -16.396  0.00  0.00    +0.295 HD
ENDBRANCH   5   6
ENDBRANCH   1   5
BRANCH   1   8
ATOM      8  C   UNL     1      38.731 -24.951 -12.852  0.00  0.00    +0.148 C 
BRANCH   8  10
ATOM      9  O   UNL     1      40.657 -24.971 -14.312  0.00  0.00    -0.250 OA
ATOM     10  C   UNL     1      39.614 -25.500 -13.950  0.00  0.00    +0.317 C 
BRANCH  10  11
ATOM     11  O   UNL     1      39.119 -26.627 -14.517  0.00  0.00    -0.480 OA
ATOM     12  H   UNL     1      38.397 -27.073 -14.119  0.00  0.00    +0.295 HD
ENDBRANCH  10  11
ENDBRANCH   8  10
ENDBRANCH   1   8
BRANCH   1  13
ATOM     13  C   UNL     1      36.566 -23.634 -12.321  0.00  0.00    +0.148 C 
BRANCH  13  15
ATOM     14  O   UNL     1      34.937 -25.015 -11.186  0.00  0.00    -0.250 OA
ATOM     15  C   UNL     1      35.895 -24.254 -11.116  0.00  0.00    +0.317 C 
BRANCH  15  16
ATOM     16  O   UNL     1      36.486 -23.910  -9.946  0.00  0.00    -0.480 OA
ATOM     17  H   UNL     1      37.397 -23.694  -9.927  0.00  0.00    +0.295 HD
ENDBRANCH  15  16
ENDBRANCH  13  15
ENDBRANCH   1  13
TORSDOF 9
ENDMDL
MODEL 9
REMARK VINA RESULT:      -6.3      2.082      3.985
REMARK  Name = 311
REMARK  9 active torsions:
REMARK  status: ('A' for Active; 'I' for Inactive)
REMARK    1  A    between atoms: C_1  and  O_2
REMARK    2  A    between atoms: C_1  and  C_5
REMARK    3  A    between atoms: C_1  and  C_8
REMARK    4  A    between atoms: C_1  and  C_13
REMARK    5  A    between atoms: C_5  and  O_6
REMARK    6  A    between atoms: C_8  and  C_10
REMARK    7  A    between atoms: C_10  and  O_11
REMARK    8  A    between atoms: C_13  and  C_15
REMARK    9  A    between atoms: C_15  and  O_16
REMARK                            x       y       z     vdW  Elec       q    Type
REMARK                         _______ _______ _______ _____ _____    ______ ____
ROOT
ATOM      1  C   UNL     1      36.901 -25.454 -13.590  0.00  0.00    +0.198 C 
ENDROOT
BRANCH   1   2
ATOM      2  O   UNL     1      36.466 -26.299 -12.531  0.00  0.00    -0.376 OA
ATOM      3  H   UNL     1      35.616 -26.701 -12.766  0.00  0.00    +0.211 HD
ENDBRANCH   1   2
BRANCH   1   5
ATOM      4  O   UNL     1      36.429 -26.634 -15.678  0.00  0.00    -0.248 OA
ATOM      5  C   UNL     1      37.218 -26.369 -14.778  0.00  0.00    +0.339 C 
BRANCH   5   6
ATOM      6  O   UNL     1      38.464 -26.905 -14.723  0.00  0.00    -0.479 OA
ATOM      7  H   UNL     1      39.133 -26.595 -15.301  0.00  0.00    +0.295 HD
ENDBRANCH   5   6
ENDBRANCH   1   5
BRANCH   1   8
ATOM      8  C   UNL     1      38.189 -24.720 -13.178  0.00  0.00    +0.148 C 
BRANCH   8  10
ATOM      9  O   UNL     1      38.461 -22.646 -11.968  0.00  0.00    -0.250 OA
ATOM     10  C   UNL     1      38.070 -23.806 -11.980  0.00  0.00    +0.317 C 
BRANCH  10  11
ATOM     11  O   UNL     1      37.510 -24.411 -10.903  0.00  0.00    -0.480 OA
ATOM     12  H   UNL     1      36.840 -25.054 -11.024  0.00  0.00    +0.295 HD
ENDBRANCH  10  11
ENDBRANCH   8  10
ENDBRANCH   1   8
BRANCH   1  13
ATOM     13  C   UNL     1      35.752 -24.536 -14.037  0.00  0.00    +0.148 C 
BRANCH  13  15
ATOM     14  O   UNL     1      34.666 -23.958 -11.955  0.00  0.00    -0.250 OA
ATOM     15  C   UNL     1      34.584 -24.429 -13.083  0.00  0.00    +0.317 C 
BRANCH  15  16
ATOM     16  O   UNL     1      33.422 -24.874 -13.619  0.00  0.00    -0.480 OA
ATOM     17  H   UNL     1      32.839 -24.274 -14.040  0.00  0.00    +0.295 HD
ENDBRANCH  15  16
ENDBRANCH  13  15
ENDBRANCH   1  13
TORSDOF 9
ENDMDL
