MODEL 1
REMARK VINA RESULT:      -9.2      0.000      0.000
REMARK  Name = 6857711
REMARK  9 active torsions:
REMARK  status: ('A' for Active; 'I' for Inactive)
REMARK    1  A    between atoms: C_1  and  C_4
REMARK    2  A    between atoms: C_1  and  N_13
REMARK    3  A    between atoms: C_1  and  C_25
REMARK    4  A    between atoms: N_3  and  C_7
REMARK    5  A    between atoms: C_10  and  O_11
REMARK    6  A    between atoms: N_13  and  C_16
REMARK    7  A    between atoms: C_16  and  N_17
REMARK    8  A    between atoms: N_17  and  C_19
REMARK    9  A    between atoms: C_25  and  C_26
REMARK                            x       y       z     vdW  Elec       q    Type
REMARK                         _______ _______ _______ _____ _____    ______ ____
ROOT
ATOM      1  C   UNL     1      34.099 -23.433 -14.713  0.00  0.00    +0.148 C 
ENDROOT
BRANCH   1   4
ATOM      2  O   UNL     1      34.326 -24.023 -12.372  0.00  0.00    -0.273 OA
ATOM      3  N   UNL     1      36.002 -24.651 -13.852  0.00  0.00    -0.302 N 
ATOM      4  C   UNL     1      34.804 -24.042 -13.505  0.00  0.00    +0.240 C 
ATOM      5  H   UNL     1      36.294 -24.606 -14.792  0.00  0.00    +0.150 HD
BRANCH   3   7
ATOM      6  O   UNL     1      39.021 -24.410 -13.052  0.00  0.00    -0.329 OA
ATOM      7  C   UNL     1      36.840 -25.345 -12.906  0.00  0.00    +0.106 C 
ATOM      8  C   UNL     1      37.754 -26.336 -13.594  0.00  0.00    +0.083 C 
ATOM      9  C   UNL     1      37.832 -24.405 -12.247  0.00  0.00    +0.164 C 
ATOM     10  C   UNL     1      38.934 -25.472 -14.011  0.00  0.00    +0.234 C 
BRANCH  10  11
ATOM     11  O   UNL     1      38.703 -24.961 -15.318  0.00  0.00    -0.360 OA
ATOM     12  H   UNL     1      39.548 -24.886 -15.789  0.00  0.00    +0.213 HD
ENDBRANCH  10  11
ENDBRANCH   3   7
ENDBRANCH   1   4
BRANCH   1  13
ATOM     13  N   UNL     1      34.899 -23.741 -15.871  0.00  0.00    -0.310 N 
ATOM     14  H   UNL     1      35.139 -24.687 -15.996  0.00  0.00    +0.149 HD
BRANCH  13  16
ATOM     15  S   UNL     1      36.771 -21.996 -16.470  0.00  0.00    -0.019 S 
ATOM     16  C   UNL     1      35.372 -22.850 -16.835  0.00  0.00    +0.135 C 
BRANCH  16  17
ATOM     17  N   UNL     1      34.577 -22.763 -17.973  0.00  0.00    -0.296 N 
ATOM     18  H   UNL     1      33.970 -23.528 -18.098  0.00  0.00    +0.154 HD
BRANCH  17  19
ATOM     19  C   UNL     1      34.481 -21.776 -18.988  0.00  0.00    +0.050 C 
ATOM     20  C   UNL     1      33.230 -21.300 -19.381  0.00  0.00    +0.015 C 
ATOM     21  C   UNL     1      35.638 -21.280 -19.591  0.00  0.00    +0.015 C 
ATOM     22  C   UNL     1      33.135 -20.330 -20.378  0.00  0.00    +0.001 C 
ATOM     23  C   UNL     1      35.542 -20.310 -20.588  0.00  0.00    +0.001 C 
ATOM     24  C   UNL     1      34.290 -19.834 -20.982  0.00  0.00    +0.000 C 
ENDBRANCH  17  19
ENDBRANCH  16  17
ENDBRANCH  13  16
ENDBRANCH   1  13
BRANCH   1  25
ATOM     25  C   UNL     1      32.673 -23.987 -14.829  0.00  0.00    +0.029 C 
BRANCH  25  26
ATOM     26  C   UNL     1      31.594 -22.933 -15.155  0.00  0.00    +0.002 C 
ATOM     27  C   UNL     1      30.331 -23.219 -14.338  0.00  0.00    +0.000 C 
ATOM     28  C   UNL     1      31.248 -22.894 -16.643  0.00  0.00    +0.000 C 
ENDBRANCH  25  26
ENDBRANCH   1  25
TORSDOF 9
ENDMDL
MODEL 2
REMARK VINA RESULT:      -8.8      9.054     12.284
REMARK  Name = 6857711
REMARK  9 active torsions:
REMARK  status: ('A' for Active; 'I' for Inactive)
REMARK    1  A    between atoms: C_1  and  C_4
REMARK    2  A    between atoms: C_1  and  N_13
REMARK    3  A    between atoms: C_1  and  C_25
REMARK    4  A    between atoms: N_3  and  C_7
REMARK    5  A    between atoms: C_10  and  O_11
REMARK    6  A    between atoms: N_13  and  C_16
REMARK    7  A    between atoms: C_16  and  N_17
REMARK    8  A    between atoms: N_17  and  C_19
REMARK    9  A    between atoms: C_25  and  C_26
REMARK                            x       y       z     vdW  Elec       q    Type
REMARK                         _______ _______ _______ _____ _____    ______ ____
ROOT
ATOM      1  C   UNL     1      34.472 -14.366 -23.379  0.00  0.00    +0.148 C 
ENDROOT
BRANCH   1   4
ATOM      2  O   UNL     1      33.932 -16.122 -24.962  0.00  0.00    -0.273 OA
ATOM      3  N   UNL     1      35.316 -16.621 -23.166  0.00  0.00    -0.302 N 
ATOM      4  C   UNL     1      34.513 -15.787 -23.932  0.00  0.00    +0.240 C 
ATOM      5  H   UNL     1      35.736 -16.251 -22.355  0.00  0.00    +0.150 HD
BRANCH   3   7
ATOM      6  O   UNL     1      34.414 -19.345 -21.909  0.00  0.00    -0.329 OA
ATOM      7  C   UNL     1      35.566 -18.003 -23.497  0.00  0.00    +0.106 C 
ATOM      8  C   UNL     1      36.575 -18.627 -22.557  0.00  0.00    +0.083 C 
ATOM      9  C   UNL     1      34.339 -18.863 -23.259  0.00  0.00    +0.164 C 
ATOM     10  C   UNL     1      35.715 -19.061 -21.381  0.00  0.00    +0.234 C 
BRANCH  10  11
ATOM     11  O   UNL     1      35.658 -18.008 -20.427  0.00  0.00    -0.360 OA
ATOM     12  H   UNL     1      36.382 -17.383 -20.593  0.00  0.00    +0.213 HD
ENDBRANCH  10  11
ENDBRANCH   3   7
ENDBRANCH   1   4
BRANCH   1  13
ATOM     13  N   UNL     1      33.499 -13.638 -24.153  0.00  0.00    -0.310 N 
ATOM     14  H   UNL     1      32.556 -13.875 -24.002  0.00  0.00    +0.149 HD
BRANCH  13  16
ATOM     15  S   UNL     1      33.152 -12.880 -26.646  0.00  0.00    -0.019 S 
ATOM     16  C   UNL     1      33.743 -12.636 -25.093  0.00  0.00    +0.135 C 
BRANCH  16  17
ATOM     17  N   UNL     1      34.492 -11.568 -24.610  0.00  0.00    -0.296 N 
ATOM     18  H   UNL     1      35.464 -11.716 -24.635  0.00  0.00    +0.154 HD
BRANCH  17  19
ATOM     19  C   UNL     1      34.112 -10.304 -24.088  0.00  0.00    +0.050 C 
ATOM     20  C   UNL     1      34.943  -9.198 -24.266  0.00  0.00    +0.015 C 
ATOM     21  C   UNL     1      32.906 -10.167 -23.399  0.00  0.00    +0.015 C 
ATOM     22  C   UNL     1      34.571  -7.956 -23.754  0.00  0.00    +0.001 C 
ATOM     23  C   UNL     1      32.534  -8.925 -22.886  0.00  0.00    +0.001 C 
ATOM     24  C   UNL     1      33.367  -7.819 -23.064  0.00  0.00    +0.000 C 
ENDBRANCH  17  19
ENDBRANCH  16  17
ENDBRANCH  13  16
ENDBRANCH   1  13
BRANCH   1  25
ATOM     25  C   UNL     1      34.126 -14.388 -21.885  0.00  0.00    +0.029 C 
BRANCH  25  26
ATOM     26  C   UNL     1      32.619 -14.479 -21.570  0.00  0.00    +0.002 C 
ATOM     27  C   UNL     1      32.165 -13.209 -20.846  0.00  0.00    +0.000 C 
ATOM     28  C   UNL     1      32.273 -15.705 -20.725  0.00  0.00    +0.000 C 
ENDBRANCH  25  26
ENDBRANCH   1  25
TORSDOF 9
ENDMDL
MODEL 3
REMARK VINA RESULT:      -8.5      8.815     12.693
REMARK  Name = 6857711
REMARK  9 active torsions:
REMARK  status: ('A' for Active; 'I' for Inactive)
REMARK    1  A    between atoms: C_1  and  C_4
REMARK    2  A    between atoms: C_1  and  N_13
REMARK    3  A    between atoms: C_1  and  C_25
REMARK    4  A    between atoms: N_3  and  C_7
REMARK    5  A    between atoms: C_10  and  O_11
REMARK    6  A    between atoms: N_13  and  C_16
REMARK    7  A    between atoms: C_16  and  N_17
REMARK    8  A    between atoms: N_17  and  C_19
REMARK    9  A    between atoms: C_25  and  C_26
REMARK                            x       y       z     vdW  Elec       q    Type
REMARK                         _______ _______ _______ _____ _____    ______ ____
ROOT
ATOM      1  C   UNL     1      33.867 -14.766 -23.179  0.00  0.00    +0.148 C 
ENDROOT
BRANCH   1   4
ATOM      2  O   UNL     1      33.074 -14.065 -25.361  0.00  0.00    -0.273 OA
ATOM      3  N   UNL     1      34.192 -12.526 -24.029  0.00  0.00    -0.302 N 
ATOM      4  C   UNL     1      33.670 -13.778 -24.324  0.00  0.00    +0.240 C 
ATOM      5  H   UNL     1      34.652 -12.403 -23.167  0.00  0.00    +0.150 HD
BRANCH   3   7
ATOM      6  O   UNL     1      34.568  -9.438 -23.661  0.00  0.00    -0.329 OA
ATOM      7  C   UNL     1      34.094 -11.397 -24.921  0.00  0.00    +0.106 C 
ATOM      8  C   UNL     1      32.808 -10.628 -24.707  0.00  0.00    +0.083 C 
ATOM      9  C   UNL     1      35.145 -10.348 -24.609  0.00  0.00    +0.164 C 
ATOM     10  C   UNL     1      33.162  -9.695 -23.560  0.00  0.00    +0.234 C 
BRANCH  10  11
ATOM     11  O   UNL     1      32.847 -10.328 -22.325  0.00  0.00    -0.360 OA
ATOM     12  H   UNL     1      32.357 -11.146 -22.499  0.00  0.00    +0.213 HD
ENDBRANCH  10  11
ENDBRANCH   3   7
ENDBRANCH   1   4
BRANCH   1  13
ATOM     13  N   UNL     1      34.941 -15.647 -23.559  0.00  0.00    -0.310 N 
ATOM     14  H   UNL     1      35.716 -15.226 -23.996  0.00  0.00    +0.149 HD
BRANCH  13  16
ATOM     15  S   UNL     1      34.618 -17.996 -24.695  0.00  0.00    -0.019 S 
ATOM     16  C   UNL     1      35.008 -17.029 -23.378  0.00  0.00    +0.135 C 
BRANCH  16  17
ATOM     17  N   UNL     1      35.357 -17.422 -22.090  0.00  0.00    -0.296 N 
ATOM     18  H   UNL     1      35.853 -16.739 -21.583  0.00  0.00    +0.154 HD
BRANCH  17  19
ATOM     19  C   UNL     1      35.131 -18.625 -21.373  0.00  0.00    +0.050 C 
ATOM     20  C   UNL     1      33.828 -19.067 -21.147  0.00  0.00    +0.015 C 
ATOM     21  C   UNL     1      36.213 -19.366 -20.896  0.00  0.00    +0.015 C 
ATOM     22  C   UNL     1      33.605 -20.250 -20.442  0.00  0.00    +0.001 C 
ATOM     23  C   UNL     1      35.990 -20.549 -20.191  0.00  0.00    +0.001 C 
ATOM     24  C   UNL     1      34.686 -20.991 -19.964  0.00  0.00    +0.000 C 
ENDBRANCH  17  19
ENDBRANCH  16  17
ENDBRANCH  13  16
ENDBRANCH   1  13
BRANCH   1  25
ATOM     25  C   UNL     1      34.166 -14.014 -21.876  0.00  0.00    +0.029 C 
BRANCH  25  26
ATOM     26  C   UNL     1      33.162 -14.276 -20.733  0.00  0.00    +0.002 C 
ATOM     27  C   UNL     1      32.457 -15.615 -20.963  0.00  0.00    +0.000 C 
ATOM     28  C   UNL     1      32.124 -13.162 -20.603  0.00  0.00    +0.000 C 
ENDBRANCH  25  26
ENDBRANCH   1  25
TORSDOF 9
ENDMDL
MODEL 4
REMARK VINA RESULT:      -8.5      1.354      1.492
REMARK  Name = 6857711
REMARK  9 active torsions:
REMARK  status: ('A' for Active; 'I' for Inactive)
REMARK    1  A    between atoms: C_1  and  C_4
REMARK    2  A    between atoms: C_1  and  N_13
REMARK    3  A    between atoms: C_1  and  C_25
REMARK    4  A    between atoms: N_3  and  C_7
REMARK    5  A    between atoms: C_10  and  O_11
REMARK    6  A    between atoms: N_13  and  C_16
REMARK    7  A    between atoms: C_16  and  N_17
REMARK    8  A    between atoms: N_17  and  C_19
REMARK    9  A    between atoms: C_25  and  C_26
REMARK                            x       y       z     vdW  Elec       q    Type
REMARK                         _______ _______ _______ _____ _____    ______ ____
ROOT
ATOM      1  C   UNL     1      34.264 -23.395 -14.976  0.00  0.00    +0.148 C 
ENDROOT
BRANCH   1   4
ATOM      2  O   UNL     1      35.113 -25.499 -15.832  0.00  0.00    -0.273 OA
ATOM      3  N   UNL     1      36.130 -24.556 -13.970  0.00  0.00    -0.302 N 
ATOM      4  C   UNL     1      35.187 -24.610 -14.986  0.00  0.00    +0.240 C 
ATOM      5  H   UNL     1      36.100 -23.798 -13.343  0.00  0.00    +0.150 HD
BRANCH   3   7
ATOM      6  O   UNL     1      37.921 -25.400 -11.542  0.00  0.00    -0.329 OA
ATOM      7  C   UNL     1      37.154 -25.557 -13.786  0.00  0.00    +0.106 C 
ATOM      8  C   UNL     1      38.537 -24.943 -13.782  0.00  0.00    +0.083 C 
ATOM      9  C   UNL     1      37.081 -26.180 -12.405  0.00  0.00    +0.164 C 
ATOM     10  C   UNL     1      38.705 -24.502 -12.337  0.00  0.00    +0.234 C 
BRANCH  10  11
ATOM     11  O   UNL     1      38.243 -23.163 -12.198  0.00  0.00    -0.360 OA
ATOM     12  H   UNL     1      38.789 -22.576 -12.744  0.00  0.00    +0.213 HD
ENDBRANCH  10  11
ENDBRANCH   3   7
ENDBRANCH   1   4
BRANCH   1  13
ATOM     13  N   UNL     1      34.996 -22.302 -15.564  0.00  0.00    -0.310 N 
ATOM     14  H   UNL     1      34.901 -21.427 -15.124  0.00  0.00    +0.149 HD
BRANCH  13  16
ATOM     15  S   UNL     1      37.466 -22.089 -16.439  0.00  0.00    -0.019 S 
ATOM     16  C   UNL     1      35.824 -22.343 -16.686  0.00  0.00    +0.135 C 
BRANCH  16  17
ATOM     17  N   UNL     1      35.153 -22.554 -17.886  0.00  0.00    -0.296 N 
ATOM     18  H   UNL     1      34.865 -23.485 -18.026  0.00  0.00    +0.154 HD
BRANCH  17  19
ATOM     19  C   UNL     1      34.807 -21.675 -18.945  0.00  0.00    +0.050 C 
ATOM     20  C   UNL     1      33.466 -21.460 -19.262  0.00  0.00    +0.015 C 
ATOM     21  C   UNL     1      35.808 -21.026 -19.668  0.00  0.00    +0.015 C 
ATOM     22  C   UNL     1      33.125 -20.596 -20.302  0.00  0.00    +0.001 C 
ATOM     23  C   UNL     1      35.467 -20.162 -20.709  0.00  0.00    +0.001 C 
ATOM     24  C   UNL     1      34.125 -19.947 -21.026  0.00  0.00    +0.000 C 
ENDBRANCH  17  19
ENDBRANCH  16  17
ENDBRANCH  13  16
ENDBRANCH   1  13
BRANCH   1  25
ATOM     25  C   UNL     1      32.971 -23.705 -15.740  0.00  0.00    +0.029 C 
BRANCH  25  26
ATOM     26  C   UNL     1      31.725 -22.948 -15.236  0.00  0.00    +0.002 C 
ATOM     27  C   UNL     1      31.363 -23.428 -13.829  0.00  0.00    +0.000 C 
ATOM     28  C   UNL     1      30.522 -23.122 -16.164  0.00  0.00    +0.000 C 
ENDBRANCH  25  26
ENDBRANCH   1  25
TORSDOF 9
ENDMDL
MODEL 5
REMARK VINA RESULT:      -8.5      8.863     12.500
REMARK  Name = 6857711
REMARK  9 active torsions:
REMARK  status: ('A' for Active; 'I' for Inactive)
REMARK    1  A    between atoms: C_1  and  C_4
REMARK    2  A    between atoms: C_1  and  N_13
REMARK    3  A    between atoms: C_1  and  C_25
REMARK    4  A    between atoms: N_3  and  C_7
REMARK    5  A    between atoms: C_10  and  O_11
REMARK    6  A    between atoms: N_13  and  C_16
REMARK    7  A    between atoms: C_16  and  N_17
REMARK    8  A    between atoms: N_17  and  C_19
REMARK    9  A    between atoms: C_25  and  C_26
REMARK                            x       y       z     vdW  Elec       q    Type
REMARK                         _______ _______ _______ _____ _____    ______ ____
ROOT
ATOM      1  C   UNL     1      33.164 -14.537 -24.335  0.00  0.00    +0.148 C 
ENDROOT
BRANCH   1   4
ATOM      2  O   UNL     1      34.134 -15.994 -26.013  0.00  0.00    -0.273 OA
ATOM      3  N   UNL     1      34.492 -16.477 -23.770  0.00  0.00    -0.302 N 
ATOM      4  C   UNL     1      33.960 -15.744 -24.822  0.00  0.00    +0.240 C 
ATOM      5  H   UNL     1      34.289 -16.189 -22.850  0.00  0.00    +0.150 HD
BRANCH   3   7
ATOM      6  O   UNL     1      34.208 -19.496 -22.985  0.00  0.00    -0.329 OA
ATOM      7  C   UNL     1      35.327 -17.638 -23.957  0.00  0.00    +0.106 C 
ATOM      8  C   UNL     1      36.037 -18.024 -22.677  0.00  0.00    +0.083 C 
ATOM      9  C   UNL     1      34.501 -18.877 -24.246  0.00  0.00    +0.164 C 
ATOM     10  C   UNL     1      35.002 -18.880 -21.964  0.00  0.00    +0.234 C 
BRANCH  10  11
ATOM     11  O   UNL     1      34.204 -18.050 -21.128  0.00  0.00    -0.360 OA
ATOM     12  H   UNL     1      34.754 -17.346 -20.752  0.00  0.00    +0.213 HD
ENDBRANCH  10  11
ENDBRANCH   3   7
ENDBRANCH   1   4
BRANCH   1  13
ATOM     13  N   UNL     1      32.622 -14.878 -23.045  0.00  0.00    -0.310 N 
ATOM     14  H   UNL     1      32.187 -15.758 -22.974  0.00  0.00    +0.149 HD
BRANCH  13  16
ATOM     15  S   UNL     1      33.709 -14.567 -20.671  0.00  0.00    -0.019 S 
ATOM     16  C   UNL     1      32.644 -14.103 -21.885  0.00  0.00    +0.135 C 
BRANCH  16  17
ATOM     17  N   UNL     1      31.730 -13.055 -21.879  0.00  0.00    -0.296 N 
ATOM     18  H   UNL     1      30.901 -13.243 -22.375  0.00  0.00    +0.154 HD
BRANCH  17  19
ATOM     19  C   UNL     1      31.774 -11.764 -21.291  0.00  0.00    +0.050 C 
ATOM     20  C   UNL     1      31.623 -11.620 -19.913  0.00  0.00    +0.015 C 
ATOM     21  C   UNL     1      31.970 -10.638 -22.093  0.00  0.00    +0.015 C 
ATOM     22  C   UNL     1      31.665 -10.352 -19.334  0.00  0.00    +0.001 C 
ATOM     23  C   UNL     1      32.012  -9.370 -21.515  0.00  0.00    +0.001 C 
ATOM     24  C   UNL     1      31.860  -9.226 -20.135  0.00  0.00    +0.000 C 
ENDBRANCH  17  19
ENDBRANCH  16  17
ENDBRANCH  13  16
ENDBRANCH   1  13
BRANCH   1  25
ATOM     25  C   UNL     1      34.065 -13.297 -24.277  0.00  0.00    +0.029 C 
BRANCH  25  26
ATOM     26  C   UNL     1      33.609 -12.123 -25.169  0.00  0.00    +0.002 C 
ATOM     27  C   UNL     1      33.510 -12.589 -26.623  0.00  0.00    +0.000 C 
ATOM     28  C   UNL     1      34.549 -10.921 -25.076  0.00  0.00    +0.000 C 
ENDBRANCH  25  26
ENDBRANCH   1  25
TORSDOF 9
ENDMDL
MODEL 6
REMARK VINA RESULT:      -8.3      9.919     14.078
REMARK  Name = 6857711
REMARK  9 active torsions:
REMARK  status: ('A' for Active; 'I' for Inactive)
REMARK    1  A    between atoms: C_1  and  C_4
REMARK    2  A    between atoms: C_1  and  N_13
REMARK    3  A    between atoms: C_1  and  C_25
REMARK    4  A    between atoms: N_3  and  C_7
REMARK    5  A    between atoms: C_10  and  O_11
REMARK    6  A    between atoms: N_13  and  C_16
REMARK    7  A    between atoms: C_16  and  N_17
REMARK    8  A    between atoms: N_17  and  C_19
REMARK    9  A    between atoms: C_25  and  C_26
REMARK                            x       y       z     vdW  Elec       q    Type
REMARK                         _______ _______ _______ _____ _____    ______ ____
ROOT
ATOM      1  C   UNL     1      33.945 -12.886 -24.424  0.00  0.00    +0.148 C 
ENDROOT
BRANCH   1   4
ATOM      2  O   UNL     1      34.686 -10.777 -25.363  0.00  0.00    -0.273 OA
ATOM      3  N   UNL     1      32.975 -10.763 -23.793  0.00  0.00    -0.302 N 
ATOM      4  C   UNL     1      33.942 -11.369 -24.584  0.00  0.00    +0.240 C 
ATOM      5  H   UNL     1      32.431 -11.332 -23.202  0.00  0.00    +0.150 HD
BRANCH   3   7
ATOM      6  O   UNL     1      33.161  -8.533 -21.601  0.00  0.00    -0.329 OA
ATOM      7  C   UNL     1      32.728  -9.342 -23.794  0.00  0.00    +0.106 C 
ATOM      8  C   UNL     1      31.412  -9.005 -23.127  0.00  0.00    +0.083 C 
ATOM      9  C   UNL     1      33.724  -8.603 -22.920  0.00  0.00    +0.164 C 
ATOM     10  C   UNL     1      31.789  -8.942 -21.654  0.00  0.00    +0.234 C 
BRANCH  10  11
ATOM     11  O   UNL     1      31.618 -10.228 -21.071  0.00  0.00    -0.360 OA
ATOM     12  H   UNL     1      31.938 -10.907 -21.685  0.00  0.00    +0.213 HD
ENDBRANCH  10  11
ENDBRANCH   3   7
ENDBRANCH   1   4
BRANCH   1  13
ATOM     13  N   UNL     1      34.169 -13.164 -23.029  0.00  0.00    -0.310 N 
ATOM     14  H   UNL     1      34.495 -12.414 -22.481  0.00  0.00    +0.149 HD
BRANCH  13  16
ATOM     15  S   UNL     1      32.709 -14.458 -21.266  0.00  0.00    -0.019 S 
ATOM     16  C   UNL     1      33.977 -14.377 -22.365  0.00  0.00    +0.135 C 
BRANCH  16  17
ATOM     17  N   UNL     1      34.909 -15.359 -22.684  0.00  0.00    -0.296 N 
ATOM     18  H   UNL     1      35.727 -15.013 -23.108  0.00  0.00    +0.154 HD
BRANCH  17  19
ATOM     19  C   UNL     1      34.898 -16.767 -22.511  0.00  0.00    +0.050 C 
ATOM     20  C   UNL     1      34.885 -17.311 -21.227  0.00  0.00    +0.015 C 
ATOM     21  C   UNL     1      34.898 -17.607 -23.626  0.00  0.00    +0.015 C 
ATOM     22  C   UNL     1      34.874 -18.695 -21.056  0.00  0.00    +0.001 C 
ATOM     23  C   UNL     1      34.887 -18.991 -23.454  0.00  0.00    +0.001 C 
ATOM     24  C   UNL     1      34.875 -19.536 -22.170  0.00  0.00    +0.000 C 
ENDBRANCH  17  19
ENDBRANCH  16  17
ENDBRANCH  13  16
ENDBRANCH   1  13
BRANCH   1  25
ATOM     25  C   UNL     1      32.622 -13.476 -24.929  0.00  0.00    +0.029 C 
BRANCH  25  26
ATOM     26  C   UNL     1      32.724 -14.250 -26.259  0.00  0.00    +0.002 C 
ATOM     27  C   UNL     1      33.461 -15.572 -26.031  0.00  0.00    +0.000 C 
ATOM     28  C   UNL     1      33.435 -13.446 -27.348  0.00  0.00    +0.000 C 
ENDBRANCH  25  26
ENDBRANCH   1  25
TORSDOF 9
ENDMDL
MODEL 7
REMARK VINA RESULT:      -8.2      1.936      2.564
REMARK  Name = 6857711
REMARK  9 active torsions:
REMARK  status: ('A' for Active; 'I' for Inactive)
REMARK    1  A    between atoms: C_1  and  C_4
REMARK    2  A    between atoms: C_1  and  N_13
REMARK    3  A    between atoms: C_1  and  C_25
REMARK    4  A    between atoms: N_3  and  C_7
REMARK    5  A    between atoms: C_10  and  O_11
REMARK    6  A    between atoms: N_13  and  C_16
REMARK    7  A    between atoms: C_16  and  N_17
REMARK    8  A    between atoms: N_17  and  C_19
REMARK    9  A    between atoms: C_25  and  C_26
REMARK                            x       y       z     vdW  Elec       q    Type
REMARK                         _______ _______ _______ _____ _____    ______ ____
ROOT
ATOM      1  C   UNL     1      33.434 -23.938 -14.554  0.00  0.00    +0.148 C 
ENDROOT
BRANCH   1   4
ATOM      2  O   UNL     1      35.354 -24.579 -15.889  0.00  0.00    -0.273 OA
ATOM      3  N   UNL     1      35.481 -24.777 -13.579  0.00  0.00    -0.302 N 
ATOM      4  C   UNL     1      34.844 -24.476 -14.775  0.00  0.00    +0.240 C 
ATOM      5  H   UNL     1      34.980 -24.658 -12.740  0.00  0.00    +0.150 HD
BRANCH   3   7
ATOM      6  O   UNL     1      37.616 -24.879 -11.289  0.00  0.00    -0.329 OA
ATOM      7  C   UNL     1      36.840 -25.255 -13.504  0.00  0.00    +0.106 C 
ATOM      8  C   UNL     1      37.833 -24.113 -13.520  0.00  0.00    +0.083 C 
ATOM      9  C   UNL     1      37.128 -25.907 -12.165  0.00  0.00    +0.164 C 
ATOM     10  C   UNL     1      37.894 -23.702 -12.057  0.00  0.00    +0.234 C 
BRANCH  10  11
ATOM     11  O   UNL     1      36.922 -22.693 -11.813  0.00  0.00    -0.360 OA
ATOM     12  H   UNL     1      37.285 -22.037 -11.196  0.00  0.00    +0.213 HD
ENDBRANCH  10  11
ENDBRANCH   3   7
ENDBRANCH   1   4
BRANCH   1  13
ATOM     13  N   UNL     1      33.237 -22.865 -15.494  0.00  0.00    -0.310 N 
ATOM     14  H   UNL     1      33.592 -21.985 -15.232  0.00  0.00    +0.149 HD
BRANCH  13  16
ATOM     15  S   UNL     1      30.922 -22.860 -16.741  0.00  0.00    -0.019 S 
ATOM     16  C   UNL     1      32.601 -22.930 -16.734  0.00  0.00    +0.135 C 
BRANCH  16  17
ATOM     17  N   UNL     1      33.464 -23.089 -17.813  0.00  0.00    -0.296 N 
ATOM     18  H   UNL     1      33.735 -24.021 -17.976  0.00  0.00    +0.154 HD
BRANCH  17  19
ATOM     19  C   UNL     1      34.026 -22.154 -18.721  0.00  0.00    +0.050 C 
ATOM     20  C   UNL     1      35.409 -22.074 -18.871  0.00  0.00    +0.015 C 
ATOM     21  C   UNL     1      33.193 -21.318 -19.466  0.00  0.00    +0.015 C 
ATOM     22  C   UNL     1      35.963 -21.156 -19.764  0.00  0.00    +0.001 C 
ATOM     23  C   UNL     1      33.746 -20.400 -20.358  0.00  0.00    +0.001 C 
ATOM     24  C   UNL     1      35.131 -20.318 -20.507  0.00  0.00    +0.000 C 
ENDBRANCH  17  19
ENDBRANCH  16  17
ENDBRANCH  13  16
ENDBRANCH   1  13
BRANCH   1  25
ATOM     25  C   UNL     1      32.404 -25.061 -14.731  0.00  0.00    +0.029 C 
BRANCH  25  26
ATOM     26  C   UNL     1      31.222 -25.018 -13.742  0.00  0.00    +0.002 C 
ATOM     27  C   UNL     1      29.940 -25.463 -14.450  0.00  0.00    +0.000 C 
ATOM     28  C   UNL     1      31.019 -23.629 -13.137  0.00  0.00    +0.000 C 
ENDBRANCH  25  26
ENDBRANCH   1  25
TORSDOF 9
ENDMDL
MODEL 8
REMARK VINA RESULT:      -8.2     10.210     14.169
REMARK  Name = 6857711
REMARK  9 active torsions:
REMARK  status: ('A' for Active; 'I' for Inactive)
REMARK    1  A    between atoms: C_1  and  C_4
REMARK    2  A    between atoms: C_1  and  N_13
REMARK    3  A    between atoms: C_1  and  C_25
REMARK    4  A    between atoms: N_3  and  C_7
REMARK    5  A    between atoms: C_10  and  O_11
REMARK    6  A    between atoms: N_13  and  C_16
REMARK    7  A    between atoms: C_16  and  N_17
REMARK    8  A    between atoms: N_17  and  C_19
REMARK    9  A    between atoms: C_25  and  C_26
REMARK                            x       y       z     vdW  Elec       q    Type
REMARK                         _______ _______ _______ _____ _____    ______ ____
ROOT
ATOM      1  C   UNL     1      33.510 -12.732 -23.518  0.00  0.00    +0.148 C 
ENDROOT
BRANCH   1   4
ATOM      2  O   UNL     1      31.651 -12.099 -22.095  0.00  0.00    -0.273 OA
ATOM      3  N   UNL     1      32.837 -10.433 -23.195  0.00  0.00    -0.302 N 
ATOM      4  C   UNL     1      32.546 -11.748 -22.862  0.00  0.00    +0.240 C 
ATOM      5  H   UNL     1      33.578 -10.262 -23.821  0.00  0.00    +0.150 HD
BRANCH   3   7
ATOM      6  O   UNL     1      32.721  -7.393 -23.945  0.00  0.00    -0.329 OA
ATOM      7  C   UNL     1      32.109  -9.303 -22.669  0.00  0.00    +0.106 C 
ATOM      8  C   UNL     1      32.996  -8.413 -21.825  0.00  0.00    +0.083 C 
ATOM      9  C   UNL     1      31.673  -8.360 -23.774  0.00  0.00    +0.164 C 
ATOM     10  C   UNL     1      33.651  -7.513 -22.861  0.00  0.00    +0.234 C 
BRANCH  10  11
ATOM     11  O   UNL     1      34.868  -8.107 -23.297  0.00  0.00    -0.360 OA
ATOM     12  H   UNL     1      35.524  -7.413 -23.465  0.00  0.00    +0.213 HD
ENDBRANCH  10  11
ENDBRANCH   3   7
ENDBRANCH   1   4
BRANCH   1  13
ATOM     13  N   UNL     1      34.204 -13.417 -22.458  0.00  0.00    -0.310 N 
ATOM     14  H   UNL     1      34.841 -12.880 -21.935  0.00  0.00    +0.149 HD
BRANCH  13  16
ATOM     15  S   UNL     1      32.865 -15.137 -20.987  0.00  0.00    -0.019 S 
ATOM     16  C   UNL     1      34.075 -14.757 -22.088  0.00  0.00    +0.135 C 
BRANCH  16  17
ATOM     17  N   UNL     1      35.015 -15.603 -22.667  0.00  0.00    -0.296 N 
ATOM     18  H   UNL     1      35.922 -15.223 -22.714  0.00  0.00    +0.154 HD
BRANCH  17  19
ATOM     19  C   UNL     1      34.907 -16.913 -23.202  0.00  0.00    +0.050 C 
ATOM     20  C   UNL     1      34.679 -17.092 -24.565  0.00  0.00    +0.015 C 
ATOM     21  C   UNL     1      35.031 -18.022 -22.363  0.00  0.00    +0.015 C 
ATOM     22  C   UNL     1      34.573 -18.379 -25.092  0.00  0.00    +0.001 C 
ATOM     23  C   UNL     1      34.925 -19.309 -22.890  0.00  0.00    +0.001 C 
ATOM     24  C   UNL     1      34.696 -19.488 -24.254  0.00  0.00    +0.000 C 
ENDBRANCH  17  19
ENDBRANCH  16  17
ENDBRANCH  13  16
ENDBRANCH   1  13
BRANCH   1  25
ATOM     25  C   UNL     1      32.743 -13.698 -24.429  0.00  0.00    +0.029 C 
BRANCH  25  26
ATOM     26  C   UNL     1      33.397 -13.949 -25.804  0.00  0.00    +0.002 C 
ATOM     27  C   UNL     1      33.445 -12.641 -26.598  0.00  0.00    +0.000 C 
ATOM     28  C   UNL     1      32.661 -15.016 -26.614  0.00  0.00    +0.000 C 
ENDBRANCH  25  26
ENDBRANCH   1  25
TORSDOF 9
ENDMDL
MODEL 9
REMARK VINA RESULT:      -8.1      9.246     12.555
REMARK  Name = 6857711
REMARK  9 active torsions:
REMARK  status: ('A' for Active; 'I' for Inactive)
REMARK    1  A    between atoms: C_1  and  C_4
REMARK    2  A    between atoms: C_1  and  N_13
REMARK    3  A    between atoms: C_1  and  C_25
REMARK    4  A    between atoms: N_3  and  C_7
REMARK    5  A    between atoms: C_10  and  O_11
REMARK    6  A    between atoms: N_13  and  C_16
REMARK    7  A    between atoms: C_16  and  N_17
REMARK    8  A    between atoms: N_17  and  C_19
REMARK    9  A    between atoms: C_25  and  C_26
REMARK                            x       y       z     vdW  Elec       q    Type
REMARK                         _______ _______ _______ _____ _____    ______ ____
ROOT
ATOM      1  C   UNL     1      32.656 -14.114 -22.572  0.00  0.00    +0.148 C 
ENDROOT
BRANCH   1   4
ATOM      2  O   UNL     1      32.482 -15.289 -20.458  0.00  0.00    -0.273 OA
ATOM      3  N   UNL     1      33.668 -16.277 -22.193  0.00  0.00    -0.302 N 
ATOM      4  C   UNL     1      32.923 -15.263 -21.606  0.00  0.00    +0.240 C 
ATOM      5  H   UNL     1      33.974 -16.154 -23.121  0.00  0.00    +0.150 HD
BRANCH   3   7
ATOM      6  O   UNL     1      36.305 -17.953 -21.970  0.00  0.00    -0.329 OA
ATOM      7  C   UNL     1      34.017 -17.500 -21.512  0.00  0.00    +0.106 C 
ATOM      8  C   UNL     1      34.103 -18.666 -22.473  0.00  0.00    +0.083 C 
ATOM      9  C   UNL     1      35.427 -17.444 -20.955  0.00  0.00    +0.164 C 
ATOM     10  C   UNL     1      35.523 -18.555 -23.009  0.00  0.00    +0.234 C 
BRANCH  10  11
ATOM     11  O   UNL     1      35.521 -17.747 -24.179  0.00  0.00    -0.360 OA
ATOM     12  H   UNL     1      36.429 -17.651 -24.506  0.00  0.00    +0.213 HD
ENDBRANCH  10  11
ENDBRANCH   3   7
ENDBRANCH   1   4
BRANCH   1  13
ATOM     13  N   UNL     1      32.757 -12.892 -21.816  0.00  0.00    -0.310 N 
ATOM     14  H   UNL     1      33.460 -12.861 -21.129  0.00  0.00    +0.149 HD
BRANCH  13  16
ATOM     15  S   UNL     1      30.770 -11.504 -20.797  0.00  0.00    -0.019 S 
ATOM     16  C   UNL     1      31.970 -11.747 -21.948  0.00  0.00    +0.135 C 
BRANCH  16  17
ATOM     17  N   UNL     1      32.270 -10.971 -23.062  0.00  0.00    -0.296 N 
ATOM     18  H   UNL     1      31.829 -11.270 -23.890  0.00  0.00    +0.154 HD
BRANCH  17  19
ATOM     19  C   UNL     1      33.094  -9.827 -23.225  0.00  0.00    +0.050 C 
ATOM     20  C   UNL     1      32.794  -8.649 -22.542  0.00  0.00    +0.015 C 
ATOM     21  C   UNL     1      34.206  -9.883 -24.067  0.00  0.00    +0.015 C 
ATOM     22  C   UNL     1      33.603  -7.524 -22.702  0.00  0.00    +0.001 C 
ATOM     23  C   UNL     1      35.015  -8.758 -24.226  0.00  0.00    +0.001 C 
ATOM     24  C   UNL     1      34.714  -7.578 -23.544  0.00  0.00    +0.000 C 
ENDBRANCH  17  19
ENDBRANCH  16  17
ENDBRANCH  13  16
ENDBRANCH   1  13
BRANCH   1  25
ATOM     25  C   UNL     1      33.652 -14.159 -23.738  0.00  0.00    +0.029 C 
BRANCH  25  26
ATOM     26  C   UNL     1      33.008 -14.154 -25.140  0.00  0.00    +0.002 C 
ATOM     27  C   UNL     1      33.373 -15.444 -25.879  0.00  0.00    +0.000 C 
ATOM     28  C   UNL     1      33.435 -12.945 -25.972  0.00  0.00    +0.000 C 
ENDBRANCH  25  26
ENDBRANCH   1  25
TORSDOF 9
ENDMDL
