MODEL 1
REMARK VINA RESULT:      -8.0      0.000      0.000
REMARK  Name = 3337
REMARK  5 active torsions:
REMARK  status: ('A' for Active; 'I' for Inactive)
REMARK    1  A    between atoms: C_1  and  C_11
REMARK    2  A    between atoms: C_4  and  C_10
REMARK    3  A    between atoms: C_11  and  C_12
REMARK    4  A    between atoms: C_12  and  N_14
REMARK    5  A    between atoms: N_14  and  C_17
REMARK                            x       y       z     vdW  Elec       q    Type
REMARK                         _______ _______ _______ _____ _____    ______ ____
ROOT
ATOM      1  C   UNL     1      35.105 -19.473 -21.094  0.00  0.00    -0.024 C 
ATOM      2  C   UNL     1      34.320 -20.420 -20.455  0.00  0.00    -0.000 C 
ATOM      3  C   UNL     1      36.469 -19.393 -20.862  0.00  0.00    -0.004 C 
ATOM      4  C   UNL     1      34.915 -21.310 -19.560  0.00  0.00    +0.071 C 
ATOM      5  C   UNL     1      37.064 -20.284 -19.968  0.00  0.00    -0.000 C 
ATOM      6  C   UNL     1      36.286 -21.242 -19.318  0.00  0.00    +0.004 C 
ENDROOT
BRANCH   4  10
ATOM      7  F   UNL     1      32.812 -21.917 -18.595  0.00  0.00    -0.166 F 
ATOM      8  F   UNL     1      33.936 -23.491 -19.575  0.00  0.00    -0.166 F 
ATOM      9  F   UNL     1      34.609 -22.709 -17.662  0.00  0.00    -0.166 F 
ATOM     10  C   UNL     1      34.084 -22.334 -18.864  0.00  0.00    +0.419 C 
ENDBRANCH   4  10
BRANCH   1  11
ATOM     11  C   UNL     1      34.462 -18.510 -22.062  0.00  0.00    +0.005 C 
BRANCH  11  12
ATOM     12  C   UNL     1      35.257 -18.325 -23.368  0.00  0.00    -0.058 C 
ATOM     13  C   UNL     1      34.466 -18.756 -24.602  0.00  0.00    -0.023 C 
BRANCH  12  14
ATOM     14  N   UNL     1      35.621 -16.913 -23.523  0.00  0.00    +0.385 N 
ATOM     15  H   UNL     1      35.465 -16.631 -24.491  0.00  0.00    -0.084 HD
ATOM     16  H   UNL     1      36.604 -16.797 -23.275  0.00  0.00    -0.084 HD
BRANCH  14  17
ATOM     17  C   UNL     1      34.816 -16.079 -22.647  0.00  0.00    -0.082 C 
ATOM     18  C   UNL     1      34.395 -14.819 -23.333  0.00  0.00    -0.026 C 
ENDBRANCH  14  17
ENDBRANCH  12  14
ENDBRANCH  11  12
ENDBRANCH   1  11
TORSDOF 5
ENDMDL
MODEL 2
REMARK VINA RESULT:      -7.7      4.098      6.597
REMARK  Name = 3337
REMARK  5 active torsions:
REMARK  status: ('A' for Active; 'I' for Inactive)
REMARK    1  A    between atoms: C_1  and  C_11
REMARK    2  A    between atoms: C_4  and  C_10
REMARK    3  A    between atoms: C_11  and  C_12
REMARK    4  A    between atoms: C_12  and  N_14
REMARK    5  A    between atoms: N_14  and  C_17
REMARK                            x       y       z     vdW  Elec       q    Type
REMARK                         _______ _______ _______ _____ _____    ______ ____
ROOT
ATOM      1  C   UNL     1      34.798 -18.166 -23.236  0.00  0.00    -0.024 C 
ATOM      2  C   UNL     1      34.569 -16.993 -22.535  0.00  0.00    -0.000 C 
ATOM      3  C   UNL     1      34.722 -18.204 -24.620  0.00  0.00    -0.004 C 
ATOM      4  C   UNL     1      34.256 -15.827 -23.235  0.00  0.00    +0.071 C 
ATOM      5  C   UNL     1      34.410 -17.038 -25.320  0.00  0.00    -0.000 C 
ATOM      6  C   UNL     1      34.178 -15.850 -24.627  0.00  0.00    +0.004 C 
ENDROOT
BRANCH   4  10
ATOM      7  F   UNL     1      34.695 -14.464 -21.318  0.00  0.00    -0.166 F 
ATOM      8  F   UNL     1      34.354 -13.439 -23.198  0.00  0.00    -0.166 F 
ATOM      9  F   UNL     1      32.694 -14.389 -22.165  0.00  0.00    -0.166 F 
ATOM     10  C   UNL     1      34.007 -14.557 -22.495  0.00  0.00    +0.419 C 
ENDBRANCH   4  10
BRANCH   1  11
ATOM     11  C   UNL     1      35.136 -19.428 -22.479  0.00  0.00    +0.005 C 
BRANCH  11  12
ATOM     12  C   UNL     1      34.842 -19.338 -20.971  0.00  0.00    -0.058 C 
ATOM     13  C   UNL     1      33.586 -20.113 -20.572  0.00  0.00    -0.023 C 
BRANCH  12  14
ATOM     14  N   UNL     1      35.977 -19.881 -20.218  0.00  0.00    +0.385 N 
ATOM     15  H   UNL     1      36.138 -19.305 -19.392  0.00  0.00    -0.084 HD
ATOM     16  H   UNL     1      36.802 -19.877 -20.818  0.00  0.00    -0.084 HD
BRANCH  14  17
ATOM     17  C   UNL     1      35.708 -21.248 -19.803  0.00  0.00    -0.082 C 
ATOM     18  C   UNL     1      36.456 -21.594 -18.556  0.00  0.00    -0.026 C 
ENDBRANCH  14  17
ENDBRANCH  12  14
ENDBRANCH  11  12
ENDBRANCH   1  11
TORSDOF 5
ENDMDL
MODEL 3
REMARK VINA RESULT:      -7.6      4.012      6.295
REMARK  Name = 3337
REMARK  5 active torsions:
REMARK  status: ('A' for Active; 'I' for Inactive)
REMARK    1  A    between atoms: C_1  and  C_11
REMARK    2  A    between atoms: C_4  and  C_10
REMARK    3  A    between atoms: C_11  and  C_12
REMARK    4  A    between atoms: C_12  and  N_14
REMARK    5  A    between atoms: N_14  and  C_17
REMARK                            x       y       z     vdW  Elec       q    Type
REMARK                         _______ _______ _______ _____ _____    ______ ____
ROOT
ATOM      1  C   UNL     1      34.464 -18.973 -21.629  0.00  0.00    -0.024 C 
ATOM      2  C   UNL     1      34.278 -17.652 -21.251  0.00  0.00    -0.000 C 
ATOM      3  C   UNL     1      34.873 -19.303 -22.912  0.00  0.00    -0.004 C 
ATOM      4  C   UNL     1      34.507 -16.636 -22.179  0.00  0.00    +0.071 C 
ATOM      5  C   UNL     1      35.104 -18.287 -23.840  0.00  0.00    -0.000 C 
ATOM      6  C   UNL     1      34.921 -16.953 -23.473  0.00  0.00    +0.004 C 
ENDROOT
BRANCH   4  10
ATOM      7  F   UNL     1      34.895 -14.885 -20.596  0.00  0.00    -0.166 F 
ATOM      8  F   UNL     1      34.824 -14.322 -22.689  0.00  0.00    -0.166 F 
ATOM      9  F   UNL     1      32.995 -14.878 -21.653  0.00  0.00    -0.166 F 
ATOM     10  C   UNL     1      34.312 -15.210 -21.787  0.00  0.00    +0.419 C 
ENDBRANCH   4  10
BRANCH   1  11
ATOM     11  C   UNL     1      34.216 -20.073 -20.626  0.00  0.00    +0.005 C 
BRANCH  11  12
ATOM     12  C   UNL     1      35.442 -20.972 -20.382  0.00  0.00    -0.058 C 
ATOM     13  C   UNL     1      36.701 -20.170 -20.053  0.00  0.00    -0.023 C 
BRANCH  12  14
ATOM     14  N   UNL     1      35.168 -21.880 -19.265  0.00  0.00    +0.385 N 
ATOM     15  H   UNL     1      35.549 -21.481 -18.407  0.00  0.00    -0.084 HD
ATOM     16  H   UNL     1      35.603 -22.782 -19.459  0.00  0.00    -0.084 HD
BRANCH  14  17
ATOM     17  C   UNL     1      33.737 -22.077 -19.105  0.00  0.00    -0.082 C 
ATOM     18  C   UNL     1      33.438 -22.977 -17.950  0.00  0.00    -0.026 C 
ENDBRANCH  14  17
ENDBRANCH  12  14
ENDBRANCH  11  12
ENDBRANCH   1  11
TORSDOF 5
ENDMDL
MODEL 4
REMARK VINA RESULT:      -7.6      3.493      5.418
REMARK  Name = 3337
REMARK  5 active torsions:
REMARK  status: ('A' for Active; 'I' for Inactive)
REMARK    1  A    between atoms: C_1  and  C_11
REMARK    2  A    between atoms: C_4  and  C_10
REMARK    3  A    between atoms: C_11  and  C_12
REMARK    4  A    between atoms: C_12  and  N_14
REMARK    5  A    between atoms: N_14  and  C_17
REMARK                            x       y       z     vdW  Elec       q    Type
REMARK                         _______ _______ _______ _____ _____    ______ ____
ROOT
ATOM      1  C   UNL     1      33.944 -15.787 -24.375  0.00  0.00    -0.024 C 
ATOM      2  C   UNL     1      34.270 -16.073 -23.058  0.00  0.00    -0.000 C 
ATOM      3  C   UNL     1      34.116 -16.728 -25.379  0.00  0.00    -0.004 C 
ATOM      4  C   UNL     1      34.780 -17.331 -22.737  0.00  0.00    +0.071 C 
ATOM      5  C   UNL     1      34.625 -17.986 -25.058  0.00  0.00    -0.000 C 
ATOM      6  C   UNL     1      34.957 -18.287 -23.737  0.00  0.00    +0.004 C 
ENDROOT
BRANCH   4  10
ATOM      7  F   UNL     1      36.370 -18.220 -21.187  0.00  0.00    -0.166 F 
ATOM      8  F   UNL     1      35.152 -16.562 -20.504  0.00  0.00    -0.166 F 
ATOM      9  F   UNL     1      34.263 -18.531 -20.751  0.00  0.00    -0.166 F 
ATOM     10  C   UNL     1      35.136 -17.653 -21.325  0.00  0.00    +0.419 C 
ENDBRANCH   4  10
BRANCH   1  11
ATOM     11  C   UNL     1      33.392 -14.426 -24.723  0.00  0.00    +0.005 C 
BRANCH  11  12
ATOM     12  C   UNL     1      33.396 -13.439 -23.541  0.00  0.00    -0.058 C 
ATOM     13  C   UNL     1      33.736 -12.012 -23.971  0.00  0.00    -0.023 C 
BRANCH  12  14
ATOM     14  N   UNL     1      32.073 -13.427 -22.910  0.00  0.00    +0.385 N 
ATOM     15  H   UNL     1      31.682 -14.369 -22.932  0.00  0.00    -0.084 HD
ATOM     16  H   UNL     1      31.470 -12.783 -23.422  0.00  0.00    -0.084 HD
BRANCH  14  17
ATOM     17  C   UNL     1      32.169 -12.981 -21.530  0.00  0.00    -0.082 C 
ATOM     18  C   UNL     1      32.627 -14.086 -20.633  0.00  0.00    -0.026 C 
ENDBRANCH  14  17
ENDBRANCH  12  14
ENDBRANCH  11  12
ENDBRANCH   1  11
TORSDOF 5
ENDMDL
MODEL 5
REMARK VINA RESULT:      -7.5      3.947      6.407
REMARK  Name = 3337
REMARK  5 active torsions:
REMARK  status: ('A' for Active; 'I' for Inactive)
REMARK    1  A    between atoms: C_1  and  C_11
REMARK    2  A    between atoms: C_4  and  C_10
REMARK    3  A    between atoms: C_11  and  C_12
REMARK    4  A    between atoms: C_12  and  N_14
REMARK    5  A    between atoms: N_14  and  C_17
REMARK                            x       y       z     vdW  Elec       q    Type
REMARK                         _______ _______ _______ _____ _____    ______ ____
ROOT
ATOM      1  C   UNL     1      34.627 -21.161 -19.777  0.00  0.00    -0.024 C 
ATOM      2  C   UNL     1      35.518 -20.364 -20.479  0.00  0.00    -0.000 C 
ATOM      3  C   UNL     1      33.261 -20.931 -19.827  0.00  0.00    -0.004 C 
ATOM      4  C   UNL     1      35.030 -19.309 -21.250  0.00  0.00    +0.071 C 
ATOM      5  C   UNL     1      32.773 -19.876 -20.600  0.00  0.00    -0.000 C 
ATOM      6  C   UNL     1      33.658 -19.066 -21.311  0.00  0.00    +0.004 C 
ENDROOT
BRANCH   4  10
ATOM      7  F   UNL     1      35.963 -18.668 -23.358  0.00  0.00    -0.166 F 
ATOM      8  F   UNL     1      35.722 -17.107 -21.872  0.00  0.00    -0.166 F 
ATOM      9  F   UNL     1      37.272 -18.611 -21.623  0.00  0.00    -0.166 F 
ATOM     10  C   UNL     1      35.975 -18.442 -22.011  0.00  0.00    +0.419 C 
ENDBRANCH   4  10
BRANCH   1  11
ATOM     11  C   UNL     1      35.154 -22.303 -18.942  0.00  0.00    +0.005 C 
BRANCH  11  12
ATOM     12  C   UNL     1      34.419 -22.474 -17.600  0.00  0.00    -0.058 C 
ATOM     13  C   UNL     1      33.373 -23.588 -17.642  0.00  0.00    -0.023 C 
BRANCH  12  14
ATOM     14  N   UNL     1      35.389 -22.793 -16.548  0.00  0.00    +0.385 N 
ATOM     15  H   UNL     1      35.513 -23.805 -16.501  0.00  0.00    -0.084 HD
ATOM     16  H   UNL     1      35.038 -22.439 -15.658  0.00  0.00    -0.084 HD
BRANCH  14  17
ATOM     17  C   UNL     1      36.671 -22.167 -16.828  0.00  0.00    -0.082 C 
ATOM     18  C   UNL     1      37.756 -22.751 -15.984  0.00  0.00    -0.026 C 
ENDBRANCH  14  17
ENDBRANCH  12  14
ENDBRANCH  11  12
ENDBRANCH   1  11
TORSDOF 5
ENDMDL
MODEL 6
REMARK VINA RESULT:      -7.5      2.640      4.538
REMARK  Name = 3337
REMARK  5 active torsions:
REMARK  status: ('A' for Active; 'I' for Inactive)
REMARK    1  A    between atoms: C_1  and  C_11
REMARK    2  A    between atoms: C_4  and  C_10
REMARK    3  A    between atoms: C_11  and  C_12
REMARK    4  A    between atoms: C_12  and  N_14
REMARK    5  A    between atoms: N_14  and  C_17
REMARK                            x       y       z     vdW  Elec       q    Type
REMARK                         _______ _______ _______ _____ _____    ______ ____
ROOT
ATOM      1  C   UNL     1      34.634 -16.448 -23.445  0.00  0.00    -0.024 C 
ATOM      2  C   UNL     1      34.865 -17.209 -22.310  0.00  0.00    -0.000 C 
ATOM      3  C   UNL     1      34.503 -17.038 -24.693  0.00  0.00    -0.004 C 
ATOM      4  C   UNL     1      34.968 -18.596 -22.425  0.00  0.00    +0.071 C 
ATOM      5  C   UNL     1      34.604 -18.425 -24.808  0.00  0.00    -0.000 C 
ATOM      6  C   UNL     1      34.836 -19.203 -23.673  0.00  0.00    +0.004 C 
ENDROOT
BRANCH   4  10
ATOM      7  F   UNL     1      35.494 -20.736 -21.494  0.00  0.00    -0.166 F 
ATOM      8  F   UNL     1      36.271 -18.995 -20.460  0.00  0.00    -0.166 F 
ATOM      9  F   UNL     1      34.148 -19.455 -20.365  0.00  0.00    -0.166 F 
ATOM     10  C   UNL     1      35.216 -19.428 -21.213  0.00  0.00    +0.419 C 
ENDBRANCH   4  10
BRANCH   1  11
ATOM     11  C   UNL     1      34.524 -14.948 -23.322  0.00  0.00    +0.005 C 
BRANCH  11  12
ATOM     12  C   UNL     1      33.150 -14.395 -23.742  0.00  0.00    -0.058 C 
ATOM     13  C   UNL     1      32.449 -13.643 -22.610  0.00  0.00    -0.023 C 
BRANCH  12  14
ATOM     14  N   UNL     1      33.317 -13.475 -24.871  0.00  0.00    +0.385 N 
ATOM     15  H   UNL     1      34.299 -13.208 -24.944  0.00  0.00    -0.084 HD
ATOM     16  H   UNL     1      32.738 -12.650 -24.713  0.00  0.00    -0.084 HD
BRANCH  14  17
ATOM     17  C   UNL     1      32.901 -14.107 -26.112  0.00  0.00    -0.082 C 
ATOM     18  C   UNL     1      33.370 -13.333 -27.300  0.00  0.00    -0.026 C 
ENDBRANCH  14  17
ENDBRANCH  12  14
ENDBRANCH  11  12
ENDBRANCH   1  11
TORSDOF 5
ENDMDL
MODEL 7
REMARK VINA RESULT:      -7.4      4.224      6.427
REMARK  Name = 3337
REMARK  5 active torsions:
REMARK  status: ('A' for Active; 'I' for Inactive)
REMARK    1  A    between atoms: C_1  and  C_11
REMARK    2  A    between atoms: C_4  and  C_10
REMARK    3  A    between atoms: C_11  and  C_12
REMARK    4  A    between atoms: C_12  and  N_14
REMARK    5  A    between atoms: N_14  and  C_17
REMARK                            x       y       z     vdW  Elec       q    Type
REMARK                         _______ _______ _______ _____ _____    ______ ____
ROOT
ATOM      1  C   UNL     1      32.666 -23.292 -16.659  0.00  0.00    -0.024 C 
ATOM      2  C   UNL     1      31.300 -23.069 -16.747  0.00  0.00    -0.000 C 
ATOM      3  C   UNL     1      33.301 -23.394 -15.431  0.00  0.00    -0.004 C 
ATOM      4  C   UNL     1      30.551 -22.943 -15.577  0.00  0.00    +0.071 C 
ATOM      5  C   UNL     1      32.551 -23.269 -14.260  0.00  0.00    -0.000 C 
ATOM      6  C   UNL     1      31.176 -23.044 -14.334  0.00  0.00    +0.004 C 
ENDROOT
BRANCH   4  10
ATOM      7  F   UNL     1      28.660 -22.279 -16.883  0.00  0.00    -0.166 F 
ATOM      8  F   UNL     1      28.332 -23.812 -15.386  0.00  0.00    -0.166 F 
ATOM      9  F   UNL     1      28.657 -21.751 -14.774  0.00  0.00    -0.166 F 
ATOM     10  C   UNL     1      29.082 -22.703 -15.655  0.00  0.00    +0.419 C 
ENDBRANCH   4  10
BRANCH   1  11
ATOM     11  C   UNL     1      33.477 -23.428 -17.924  0.00  0.00    +0.005 C 
BRANCH  11  12
ATOM     12  C   UNL     1      33.881 -22.078 -18.544  0.00  0.00    -0.058 C 
ATOM     13  C   UNL     1      35.376 -21.998 -18.853  0.00  0.00    -0.023 C 
BRANCH  12  14
ATOM     14  N   UNL     1      33.141 -21.872 -19.793  0.00  0.00    +0.385 N 
ATOM     15  H   UNL     1      32.278 -22.414 -19.764  0.00  0.00    -0.084 HD
ATOM     16  H   UNL     1      33.723 -22.176 -20.574  0.00  0.00    -0.084 HD
BRANCH  14  17
ATOM     17  C   UNL     1      32.818 -20.466 -19.970  0.00  0.00    -0.082 C 
ATOM     18  C   UNL     1      33.624 -19.858 -21.072  0.00  0.00    -0.026 C 
ENDBRANCH  14  17
ENDBRANCH  12  14
ENDBRANCH  11  12
ENDBRANCH   1  11
TORSDOF 5
ENDMDL
MODEL 8
REMARK VINA RESULT:      -7.4      3.939      6.708
REMARK  Name = 3337
REMARK  5 active torsions:
REMARK  status: ('A' for Active; 'I' for Inactive)
REMARK    1  A    between atoms: C_1  and  C_11
REMARK    2  A    between atoms: C_4  and  C_10
REMARK    3  A    between atoms: C_11  and  C_12
REMARK    4  A    between atoms: C_12  and  N_14
REMARK    5  A    between atoms: N_14  and  C_17
REMARK                            x       y       z     vdW  Elec       q    Type
REMARK                         _______ _______ _______ _____ _____    ______ ____
ROOT
ATOM      1  C   UNL     1      34.318 -22.290 -18.578  0.00  0.00    -0.024 C 
ATOM      2  C   UNL     1      33.596 -21.495 -19.455  0.00  0.00    -0.000 C 
ATOM      3  C   UNL     1      35.695 -22.175 -18.468  0.00  0.00    -0.004 C 
ATOM      4  C   UNL     1      34.269 -20.560 -20.242  0.00  0.00    +0.071 C 
ATOM      5  C   UNL     1      36.368 -21.239 -19.254  0.00  0.00    -0.000 C 
ATOM      6  C   UNL     1      35.654 -20.432 -20.141  0.00  0.00    +0.004 C 
ENDROOT
BRANCH   4  10
ATOM      7  F   UNL     1      33.444 -18.387 -20.808  0.00  0.00    -0.166 F 
ATOM      8  F   UNL     1      34.033 -19.675 -22.450  0.00  0.00    -0.166 F 
ATOM      9  F   UNL     1      32.212 -20.098 -21.341  0.00  0.00    -0.166 F 
ATOM     10  C   UNL     1      33.508 -19.697 -21.190  0.00  0.00    +0.419 C 
ENDBRANCH   4  10
BRANCH   1  11
ATOM     11  C   UNL     1      33.590 -23.303 -17.727  0.00  0.00    +0.005 C 
BRANCH  11  12
ATOM     12  C   UNL     1      33.823 -23.117 -16.216  0.00  0.00    -0.058 C 
ATOM     13  C   UNL     1      32.538 -23.271 -15.402  0.00  0.00    -0.023 C 
BRANCH  12  14
ATOM     14  N   UNL     1      34.789 -24.113 -15.744  0.00  0.00    +0.385 N 
ATOM     15  H   UNL     1      35.316 -24.473 -16.539  0.00  0.00    -0.084 HD
ATOM     16  H   UNL     1      34.283 -24.870 -15.282  0.00  0.00    -0.084 HD
BRANCH  14  17
ATOM     17  C   UNL     1      35.711 -23.518 -14.790  0.00  0.00    -0.082 C 
ATOM     18  C   UNL     1      37.097 -23.448 -15.346  0.00  0.00    -0.026 C 
ENDBRANCH  14  17
ENDBRANCH  12  14
ENDBRANCH  11  12
ENDBRANCH   1  11
TORSDOF 5
ENDMDL
MODEL 9
REMARK VINA RESULT:      -7.3      5.092      7.082
REMARK  Name = 3337
REMARK  5 active torsions:
REMARK  status: ('A' for Active; 'I' for Inactive)
REMARK    1  A    between atoms: C_1  and  C_11
REMARK    2  A    between atoms: C_4  and  C_10
REMARK    3  A    between atoms: C_11  and  C_12
REMARK    4  A    between atoms: C_12  and  N_14
REMARK    5  A    between atoms: N_14  and  C_17
REMARK                            x       y       z     vdW  Elec       q    Type
REMARK                         _______ _______ _______ _____ _____    ______ ____
ROOT
ATOM      1  C   UNL     1      34.464 -16.301 -21.955  0.00  0.00    -0.024 C 
ATOM      2  C   UNL     1      34.243 -15.348 -22.937  0.00  0.00    -0.000 C 
ATOM      3  C   UNL     1      33.855 -16.209 -20.713  0.00  0.00    -0.004 C 
ATOM      4  C   UNL     1      33.392 -14.276 -22.671  0.00  0.00    +0.071 C 
ATOM      5  C   UNL     1      33.003 -15.137 -20.446  0.00  0.00    -0.000 C 
ATOM      6  C   UNL     1      32.772 -14.171 -21.426  0.00  0.00    +0.004 C 
ENDROOT
BRANCH   4  10
ATOM      7  F   UNL     1      32.465 -13.715 -24.803  0.00  0.00    -0.166 F 
ATOM      8  F   UNL     1      32.409 -12.181 -23.272  0.00  0.00    -0.166 F 
ATOM      9  F   UNL     1      34.298 -12.707 -24.210  0.00  0.00    -0.166 F 
ATOM     10  C   UNL     1      33.144 -13.242 -23.717  0.00  0.00    +0.419 C 
ENDBRANCH   4  10
BRANCH   1  11
ATOM     11  C   UNL     1      35.385 -17.462 -22.242  0.00  0.00    +0.005 C 
BRANCH  11  12
ATOM     12  C   UNL     1      34.643 -18.764 -22.596  0.00  0.00    -0.058 C 
ATOM     13  C   UNL     1      34.827 -19.163 -24.061  0.00  0.00    -0.023 C 
BRANCH  12  14
ATOM     14  N   UNL     1      35.143 -19.856 -21.755  0.00  0.00    +0.385 N 
ATOM     15  H   UNL     1      36.126 -19.690 -21.539  0.00  0.00    -0.084 HD
ATOM     16  H   UNL     1      35.037 -20.736 -22.261  0.00  0.00    -0.084 HD
BRANCH  14  17
ATOM     17  C   UNL     1      34.387 -19.934 -20.517  0.00  0.00    -0.082 C 
ATOM     18  C   UNL     1      32.918 -20.014 -20.781  0.00  0.00    -0.026 C 
ENDBRANCH  14  17
ENDBRANCH  12  14
ENDBRANCH  11  12
ENDBRANCH   1  11
TORSDOF 5
ENDMDL
