MODEL 1
REMARK VINA RESULT:      -9.0      0.000      0.000
REMARK  Name = 5284603
REMARK  2 active torsions:
REMARK  status: ('A' for Active; 'I' for Inactive)
REMARK    1  A    between atoms: C_5  and  O_22
REMARK    2  A    between atoms: C_19  and  O_24
REMARK                            x       y       z     vdW  Elec       q    Type
REMARK                         _______ _______ _______ _____ _____    ______ ____
ROOT
ATOM      1  O   UNL     1      31.360 -10.962 -22.444  0.00  0.00    -0.469 OA
ATOM      2  O   UNL     1      31.916 -10.919 -19.796  0.00  0.00    -0.292 OA
ATOM      3  N   UNL     1      31.988  -6.041 -23.994  0.00  0.00    +0.389 N 
ATOM      4  C   UNL     1      31.646  -8.567 -22.602  0.00  0.00    +0.084 C 
ATOM      5  C   UNL     1      32.218  -7.325 -21.903  0.00  0.00    +0.079 C 
ATOM      6  C   UNL     1      32.988  -6.518 -23.002  0.00  0.00    -0.028 C 
ATOM      7  C   UNL     1      31.109  -9.712 -21.727  0.00  0.00    +0.228 C 
ATOM      8  C   UNL     1      30.639  -8.131 -23.693  0.00  0.00    -0.013 C 
ATOM      9  C   UNL     1      32.750  -9.335 -23.244  0.00  0.00    +0.016 C 
ATOM     10  C   UNL     1      33.069  -7.696 -20.675  0.00  0.00    +0.033 C 
ATOM     11  C   UNL     1      34.177  -7.335 -23.621  0.00  0.00    +0.008 C 
ATOM     12  C   UNL     1      31.247  -7.109 -24.671  0.00  0.00    -0.077 C 
ATOM     13  C   UNL     1      33.905  -8.808 -23.787  0.00  0.00    -0.025 C 
ATOM     14  C   UNL     1      32.269  -8.558 -19.700  0.00  0.00    +0.071 C 
ATOM     15  C   UNL     1      31.803  -9.833 -20.367  0.00  0.00    +0.191 C 
ATOM     16  C   UNL     1      32.491 -10.689 -23.178  0.00  0.00    +0.169 C 
ATOM     17  C   UNL     1      32.523  -5.072 -24.945  0.00  0.00    -0.100 C 
ATOM     18  C   UNL     1      34.793  -9.712 -24.370  0.00  0.00    -0.001 C 
ATOM     19  C   UNL     1      33.345 -11.597 -23.760  0.00  0.00    +0.172 C 
ATOM     20  C   UNL     1      34.503 -11.094 -24.371  0.00  0.00    +0.040 C 
ATOM     21  H   UNL     1      31.305  -5.547 -23.419  0.00  0.00    -0.080 HD
ENDROOT
BRANCH   5  22
ATOM     22  O   UNL     1      31.135  -6.518 -21.410  0.00  0.00    -0.388 OA
ATOM     23  H   UNL     1      30.346  -6.673 -21.950  0.00  0.00    +0.210 HD
ENDBRANCH   5  22
BRANCH  19  24
ATOM     24  O   UNL     1      33.102 -12.930 -23.721  0.00  0.00    -0.468 OA
ATOM     25  C   UNL     1      34.094 -13.759 -23.110  0.00  0.00    +0.253 C 
ENDBRANCH  19  24
TORSDOF 2
ENDMDL
MODEL 2
REMARK VINA RESULT:      -6.0     15.109     17.597
REMARK  Name = 5284603
REMARK  2 active torsions:
REMARK  status: ('A' for Active; 'I' for Inactive)
REMARK    1  A    between atoms: C_5  and  O_22
REMARK    2  A    between atoms: C_19  and  O_24
REMARK                            x       y       z     vdW  Elec       q    Type
REMARK                         _______ _______ _______ _____ _____    ______ ____
ROOT
ATOM      1  O   UNL     1      34.101 -24.090 -16.950  0.00  0.00    -0.469 OA
ATOM      2  O   UNL     1      34.986 -21.754 -17.990  0.00  0.00    -0.292 OA
ATOM      3  N   UNL     1      37.637 -25.342 -13.352  0.00  0.00    +0.389 N 
ATOM      4  C   UNL     1      36.055 -24.268 -15.538  0.00  0.00    +0.084 C 
ATOM      5  C   UNL     1      37.241 -23.499 -14.938  0.00  0.00    +0.079 C 
ATOM      6  C   UNL     1      37.303 -23.895 -13.424  0.00  0.00    -0.028 C 
ATOM      7  C   UNL     1      35.544 -23.850 -16.926  0.00  0.00    +0.228 C 
ATOM      8  C   UNL     1      36.318 -25.789 -15.435  0.00  0.00    -0.013 C 
ATOM      9  C   UNL     1      34.812 -23.941 -14.784  0.00  0.00    +0.016 C 
ATOM     10  C   UNL     1      37.134 -21.984 -15.194  0.00  0.00    +0.033 C 
ATOM     11  C   UNL     1      36.000 -23.490 -12.647  0.00  0.00    +0.008 C 
ATOM     12  C   UNL     1      36.661 -26.224 -13.998  0.00  0.00    -0.077 C 
ATOM     13  C   UNL     1      34.727 -23.640 -13.439  0.00  0.00    -0.025 C 
ATOM     14  C   UNL     1      36.987 -21.694 -16.686  0.00  0.00    +0.071 C 
ATOM     15  C   UNL     1      35.753 -22.366 -17.245  0.00  0.00    +0.191 C 
ATOM     16  C   UNL     1      33.727 -23.922 -15.637  0.00  0.00    +0.169 C 
ATOM     17  C   UNL     1      37.965 -25.800 -12.006  0.00  0.00    -0.100 C 
ATOM     18  C   UNL     1      33.450 -23.398 -12.930  0.00  0.00    -0.001 C 
ATOM     19  C   UNL     1      32.458 -23.700 -15.154  0.00  0.00    +0.172 C 
ATOM     20  C   UNL     1      32.325 -23.446 -13.782  0.00  0.00    +0.040 C 
ATOM     21  H   UNL     1      38.490 -25.415 -13.906  0.00  0.00    -0.080 HD
ENDROOT
BRANCH   5  22
ATOM     22  O   UNL     1      38.456 -23.927 -15.578  0.00  0.00    -0.388 OA
ATOM     23  H   UNL     1      39.189 -23.874 -14.946  0.00  0.00    +0.210 HD
ENDBRANCH   5  22
BRANCH  19  24
ATOM     24  O   UNL     1      31.377 -23.693 -15.972  0.00  0.00    -0.468 OA
ATOM     25  C   UNL     1      30.217 -22.993 -15.516  0.00  0.00    +0.253 C 
ENDBRANCH  19  24
TORSDOF 2
ENDMDL
MODEL 3
REMARK VINA RESULT:      -6.0      2.546      5.840
REMARK  Name = 5284603
REMARK  2 active torsions:
REMARK  status: ('A' for Active; 'I' for Inactive)
REMARK    1  A    between atoms: C_5  and  O_22
REMARK    2  A    between atoms: C_19  and  O_24
REMARK                            x       y       z     vdW  Elec       q    Type
REMARK                         _______ _______ _______ _____ _____    ______ ____
ROOT
ATOM      1  O   UNL     1      31.593  -5.935 -25.143  0.00  0.00    -0.469 OA
ATOM      2  O   UNL     1      34.172  -5.370 -25.736  0.00  0.00    -0.292 OA
ATOM      3  N   UNL     1      31.861  -9.826 -21.707  0.00  0.00    +0.389 N 
ATOM      4  C   UNL     1      32.261  -7.774 -23.723  0.00  0.00    +0.084 C 
ATOM      5  C   UNL     1      33.436  -8.406 -22.963  0.00  0.00    +0.079 C 
ATOM      6  C   UNL     1      32.894  -8.770 -21.539  0.00  0.00    -0.028 C 
ATOM      7  C   UNL     1      32.560  -7.027 -25.033  0.00  0.00    +0.228 C 
ATOM      8  C   UNL     1      31.124  -8.811 -23.876  0.00  0.00    -0.013 C 
ATOM      9  C   UNL     1      31.745  -6.600 -22.963  0.00  0.00    +0.016 C 
ATOM     10  C   UNL     1      34.676  -7.494 -22.956  0.00  0.00    +0.033 C 
ATOM     11  C   UNL     1      32.407  -7.506 -20.745  0.00  0.00    +0.008 C 
ATOM     12  C   UNL     1      30.713  -9.427 -22.527  0.00  0.00    -0.077 C 
ATOM     13  C   UNL     1      31.731  -6.458 -21.589  0.00  0.00    -0.025 C 
ATOM     14  C   UNL     1      35.080  -7.116 -24.380  0.00  0.00    +0.071 C 
ATOM     15  C   UNL     1      33.953  -6.394 -25.085  0.00  0.00    +0.191 C 
ATOM     16  C   UNL     1      31.319  -5.617 -23.833  0.00  0.00    +0.169 C 
ATOM     17  C   UNL     1      31.438 -10.436 -20.452  0.00  0.00    -0.100 C 
ATOM     18  C   UNL     1      31.167  -5.285 -21.086  0.00  0.00    -0.001 C 
ATOM     19  C   UNL     1      30.747  -4.459 -23.358  0.00  0.00    +0.172 C 
ATOM     20  C   UNL     1      30.663  -4.303 -21.968  0.00  0.00    +0.040 C 
ATOM     21  H   UNL     1      32.347 -10.547 -22.240  0.00  0.00    -0.080 HD
ENDROOT
BRANCH   5  22
ATOM     22  O   UNL     1      33.834  -9.617 -23.629  0.00  0.00    -0.388 OA
ATOM     23  H   UNL     1      34.617  -9.443 -24.174  0.00  0.00    +0.210 HD
ENDBRANCH   5  22
BRANCH  19  24
ATOM     24  O   UNL     1      30.307  -3.488 -24.195  0.00  0.00    -0.468 OA
ATOM     25  C   UNL     1      31.220  -2.435 -24.512  0.00  0.00    +0.253 C 
ENDBRANCH  19  24
TORSDOF 2
ENDMDL
