MODEL 1
REMARK VINA RESULT:     -10.6      0.000      0.000
REMARK  Name = 9865528
REMARK  10 active torsions:
REMARK  status: ('A' for Active; 'I' for Inactive)
REMARK    1  A    between atoms: C_1  and  C_20
REMARK    2  A    between atoms: C_4  and  N_8
REMARK    3  A    between atoms: C_9  and  C_11
REMARK    4  A    between atoms: C_11  and  C_15
REMARK    5  A    between atoms: C_20  and  C_21
REMARK    6  A    between atoms: C_21  and  N_22
REMARK    7  A    between atoms: N_22  and  C_25
REMARK    8  A    between atoms: C_25  and  C_26
REMARK    9  A    between atoms: C_26  and  C_27
REMARK   10  A    between atoms: C_26  and  O_33
REMARK                            x       y       z     vdW  Elec       q    Type
REMARK                         _______ _______ _______ _____ _____    ______ ____
ROOT
ATOM      1  C   UNL     1      34.275 -22.035 -18.661  0.00  0.00    -0.024 C 
ATOM      2  C   UNL     1      33.105 -21.468 -19.167  0.00  0.00    -0.003 C 
ATOM      3  C   UNL     1      35.515 -21.633 -19.156  0.00  0.00    -0.003 C 
ATOM      4  C   UNL     1      34.415 -20.100 -20.665  0.00  0.00    +0.050 C 
ATOM      5  C   UNL     1      33.175 -20.502 -20.169  0.00  0.00    +0.014 C 
ATOM      6  C   UNL     1      35.585 -20.667 -20.159  0.00  0.00    +0.014 C 
ENDROOT
BRANCH   4   8
ATOM      7  O   UNL     1      35.375 -17.259 -20.556  0.00  0.00    -0.274 OA
ATOM      8  N   UNL     1      34.487 -19.132 -21.668  0.00  0.00    -0.284 N 
ATOM      9  C   UNL     1      34.948 -17.809 -21.567  0.00  0.00    +0.233 C 
ATOM     10  H   UNL     1      34.175 -19.412 -22.559  0.00  0.00    +0.155 HD
BRANCH   9  11
ATOM     11  C   UNL     1      34.853 -17.093 -22.907  0.00  0.00    +0.141 C 
BRANCH  11  15
ATOM     12  S   UNL     1      32.618 -13.846 -22.220  0.00  0.00    -0.060 S 
ATOM     13  N   UNL     1      34.659 -14.714 -23.548  0.00  0.00    -0.389 NA
ATOM     14  N   UNL     1      34.131 -12.434 -23.890  0.00  0.00    -0.328 N 
ATOM     15  C   UNL     1      34.166 -15.768 -22.805  0.00  0.00    +0.109 C 
ATOM     16  C   UNL     1      33.064 -15.490 -22.023  0.00  0.00    +0.121 C 
ATOM     17  C   UNL     1      33.922 -13.650 -23.318  0.00  0.00    +0.204 C 
ATOM     18  H   UNL     1      33.539 -11.679 -23.672  0.00  0.00    +0.145 HD
ATOM     19  H   UNL     1      34.876 -12.310 -24.522  0.00  0.00    +0.145 HD
ENDBRANCH  11  15
ENDBRANCH   9  11
ENDBRANCH   4   8
BRANCH   1  20
ATOM     20  C   UNL     1      34.200 -23.069 -17.589  0.00  0.00    +0.003 C 
BRANCH  20  21
ATOM     21  C   UNL     1      35.186 -22.789 -16.446  0.00  0.00    -0.077 C 
BRANCH  21  22
ATOM     22  N   UNL     1      34.541 -22.897 -15.142  0.00  0.00    +0.386 N 
ATOM     23  H   UNL     1      33.952 -22.078 -14.991  0.00  0.00    -0.084 HD
ATOM     24  H   UNL     1      35.263 -22.954 -14.424  0.00  0.00    -0.084 HD
BRANCH  22  25
ATOM     25  C   UNL     1      33.718 -24.096 -15.068  0.00  0.00    -0.047 C 
BRANCH  25  26
ATOM     26  C   UNL     1      32.597 -23.926 -14.035  0.00  0.00    +0.112 C 
BRANCH  26  27
ATOM     27  C   UNL     1      31.233 -23.950 -14.689  0.00  0.00    +0.002 C 
ATOM     28  C   UNL     1      30.888 -22.968 -15.619  0.00  0.00    -0.002 C 
ATOM     29  C   UNL     1      30.320 -24.951 -14.362  0.00  0.00    -0.002 C 
ATOM     30  C   UNL     1      29.632 -22.989 -16.222  0.00  0.00    -0.000 C 
ATOM     31  C   UNL     1      29.061 -24.973 -14.965  0.00  0.00    -0.000 C 
ATOM     32  C   UNL     1      28.718 -23.992 -15.895  0.00  0.00    -0.000 C 
ENDBRANCH  26  27
BRANCH  26  33
ATOM     33  O   UNL     1      32.648 -24.978 -13.072  0.00  0.00    -0.382 OA
ATOM     34  H   UNL     1      32.817 -24.605 -12.194  0.00  0.00    +0.211 HD
ENDBRANCH  26  33
ENDBRANCH  25  26
ENDBRANCH  22  25
ENDBRANCH  21  22
ENDBRANCH  20  21
ENDBRANCH   1  20
TORSDOF 10
ENDMDL
MODEL 2
REMARK VINA RESULT:     -10.5      3.856      9.996
REMARK  Name = 9865528
REMARK  10 active torsions:
REMARK  status: ('A' for Active; 'I' for Inactive)
REMARK    1  A    between atoms: C_1  and  C_20
REMARK    2  A    between atoms: C_4  and  N_8
REMARK    3  A    between atoms: C_9  and  C_11
REMARK    4  A    between atoms: C_11  and  C_15
REMARK    5  A    between atoms: C_20  and  C_21
REMARK    6  A    between atoms: C_21  and  N_22
REMARK    7  A    between atoms: N_22  and  C_25
REMARK    8  A    between atoms: C_25  and  C_26
REMARK    9  A    between atoms: C_26  and  C_27
REMARK   10  A    between atoms: C_26  and  O_33
REMARK                            x       y       z     vdW  Elec       q    Type
REMARK                         _______ _______ _______ _____ _____    ______ ____
ROOT
ATOM      1  C   UNL     1      35.011 -19.211 -21.952  0.00  0.00    -0.024 C 
ATOM      2  C   UNL     1      33.650 -19.346 -21.675  0.00  0.00    -0.003 C 
ATOM      3  C   UNL     1      35.952 -19.873 -21.164  0.00  0.00    -0.003 C 
ATOM      4  C   UNL     1      34.172 -20.803 -19.821  0.00  0.00    +0.050 C 
ATOM      5  C   UNL     1      33.232 -20.141 -20.609  0.00  0.00    +0.014 C 
ATOM      6  C   UNL     1      35.533 -20.668 -20.098  0.00  0.00    +0.014 C 
ENDROOT
BRANCH   4   8
ATOM      7  O   UNL     1      33.952 -23.787 -19.596  0.00  0.00    -0.274 OA
ATOM      8  N   UNL     1      33.754 -21.600 -18.754  0.00  0.00    -0.284 N 
ATOM      9  C   UNL     1      33.670 -23.001 -18.697  0.00  0.00    +0.233 C 
ATOM     10  H   UNL     1      33.485 -21.120 -17.938  0.00  0.00    +0.155 HD
BRANCH   9  11
ATOM     11  C   UNL     1      33.162 -23.464 -17.338  0.00  0.00    +0.141 C 
BRANCH  11  15
ATOM     12  S   UNL     1      35.544 -23.595 -14.126  0.00  0.00    -0.060 S 
ATOM     13  N   UNL     1      35.513 -23.107 -16.664  0.00  0.00    -0.389 NA
ATOM     14  N   UNL     1      37.621 -22.872 -15.620  0.00  0.00    -0.328 N 
ATOM     15  C   UNL     1      34.229 -23.447 -16.289  0.00  0.00    +0.109 C 
ATOM     16  C   UNL     1      34.050 -23.745 -14.954  0.00  0.00    +0.121 C 
ATOM     17  C   UNL     1      36.291 -23.152 -15.605  0.00  0.00    +0.204 C 
ATOM     18  H   UNL     1      38.145 -22.925 -14.788  0.00  0.00    +0.145 HD
ATOM     19  H   UNL     1      38.061 -22.616 -16.463  0.00  0.00    +0.145 HD
ENDBRANCH  11  15
ENDBRANCH   9  11
ENDBRANCH   4   8
BRANCH   1  20
ATOM     20  C   UNL     1      35.459 -18.360 -23.092  0.00  0.00    +0.003 C 
BRANCH  20  21
ATOM     21  C   UNL     1      34.699 -18.681 -24.386  0.00  0.00    -0.077 C 
BRANCH  21  22
ATOM     22  N   UNL     1      34.372 -17.469 -25.130  0.00  0.00    +0.386 N 
ATOM     23  H   UNL     1      33.374 -17.467 -25.345  0.00  0.00    -0.084 HD
ATOM     24  H   UNL     1      34.921 -17.456 -25.989  0.00  0.00    -0.084 HD
BRANCH  22  25
ATOM     25  C   UNL     1      34.694 -16.280 -24.354  0.00  0.00    -0.047 C 
BRANCH  25  26
ATOM     26  C   UNL     1      33.513 -15.302 -24.339  0.00  0.00    +0.112 C 
BRANCH  26  27
ATOM     27  C   UNL     1      33.197 -14.837 -22.934  0.00  0.00    +0.002 C 
ATOM     28  C   UNL     1      33.594 -15.606 -21.839  0.00  0.00    -0.002 C 
ATOM     29  C   UNL     1      32.509 -13.641 -22.733  0.00  0.00    -0.002 C 
ATOM     30  C   UNL     1      33.303 -15.178 -20.545  0.00  0.00    -0.000 C 
ATOM     31  C   UNL     1      32.218 -13.212 -21.437  0.00  0.00    -0.000 C 
ATOM     32  C   UNL     1      32.615 -13.981 -20.344  0.00  0.00    -0.000 C 
ENDBRANCH  26  27
BRANCH  26  33
ATOM     33  O   UNL     1      33.812 -14.153 -25.132  0.00  0.00    -0.382 OA
ATOM     34  H   UNL     1      34.420 -14.402 -25.844  0.00  0.00    +0.211 HD
ENDBRANCH  26  33
ENDBRANCH  25  26
ENDBRANCH  22  25
ENDBRANCH  21  22
ENDBRANCH  20  21
ENDBRANCH   1  20
TORSDOF 10
ENDMDL
MODEL 3
REMARK VINA RESULT:     -10.5      4.943     12.498
REMARK  Name = 9865528
REMARK  10 active torsions:
REMARK  status: ('A' for Active; 'I' for Inactive)
REMARK    1  A    between atoms: C_1  and  C_20
REMARK    2  A    between atoms: C_4  and  N_8
REMARK    3  A    between atoms: C_9  and  C_11
REMARK    4  A    between atoms: C_11  and  C_15
REMARK    5  A    between atoms: C_20  and  C_21
REMARK    6  A    between atoms: C_21  and  N_22
REMARK    7  A    between atoms: N_22  and  C_25
REMARK    8  A    between atoms: C_25  and  C_26
REMARK    9  A    between atoms: C_26  and  C_27
REMARK   10  A    between atoms: C_26  and  O_33
REMARK                            x       y       z     vdW  Elec       q    Type
REMARK                         _______ _______ _______ _____ _____    ______ ____
ROOT
ATOM      1  C   UNL     1      32.077 -12.756 -21.341  0.00  0.00    -0.024 C 
ATOM      2  C   UNL     1      32.352 -13.625 -20.285  0.00  0.00    -0.003 C 
ATOM      3  C   UNL     1      32.380 -13.130 -22.649  0.00  0.00    -0.003 C 
ATOM      4  C   UNL     1      33.233 -15.243 -21.847  0.00  0.00    +0.050 C 
ATOM      5  C   UNL     1      32.930 -14.868 -20.538  0.00  0.00    +0.014 C 
ATOM      6  C   UNL     1      32.959 -14.373 -22.903  0.00  0.00    +0.014 C 
ENDROOT
BRANCH   4   8
ATOM      7  O   UNL     1      35.335 -16.754 -20.329  0.00  0.00    -0.274 OA
ATOM      8  N   UNL     1      33.812 -16.487 -22.102  0.00  0.00    -0.284 N 
ATOM      9  C   UNL     1      34.797 -17.156 -21.356  0.00  0.00    +0.233 C 
ATOM     10  H   UNL     1      33.489 -16.956 -22.905  0.00  0.00    +0.155 HD
BRANCH   9  11
ATOM     11  C   UNL     1      35.146 -18.496 -21.989  0.00  0.00    +0.141 C 
BRANCH  11  15
ATOM     12  S   UNL     1      35.458 -21.528 -19.397  0.00  0.00    -0.060 S 
ATOM     13  N   UNL     1      33.758 -20.098 -20.719  0.00  0.00    -0.389 NA
ATOM     14  N   UNL     1      32.811 -21.780 -19.353  0.00  0.00    -0.328 N 
ATOM     15  C   UNL     1      35.022 -19.637 -21.029  0.00  0.00    +0.109 C 
ATOM     16  C   UNL     1      36.069 -20.286 -20.410  0.00  0.00    +0.121 C 
ATOM     17  C   UNL     1      33.866 -21.093 -19.867  0.00  0.00    +0.204 C 
ATOM     18  H   UNL     1      32.966 -22.516 -18.718  0.00  0.00    +0.145 HD
ATOM     19  H   UNL     1      31.893 -21.540 -19.615  0.00  0.00    +0.145 HD
ENDBRANCH  11  15
ENDBRANCH   9  11
ENDBRANCH   4   8
BRANCH   1  20
ATOM     20  C   UNL     1      31.458 -11.426 -21.070  0.00  0.00    +0.003 C 
BRANCH  20  21
ATOM     21  C   UNL     1      31.408 -11.107 -19.570  0.00  0.00    -0.077 C 
BRANCH  21  22
ATOM     22  N   UNL     1      32.092  -9.855 -19.264  0.00  0.00    +0.386 N 
ATOM     23  H   UNL     1      33.095 -10.029 -19.200  0.00  0.00    -0.084 HD
ATOM     24  H   UNL     1      31.735  -9.496 -18.379  0.00  0.00    -0.084 HD
BRANCH  22  25
ATOM     25  C   UNL     1      31.846  -8.862 -20.301  0.00  0.00    -0.047 C 
BRANCH  25  26
ATOM     26  C   UNL     1      33.095  -8.008 -20.546  0.00  0.00    +0.112 C 
BRANCH  26  27
ATOM     27  C   UNL     1      33.082  -7.392 -21.928  0.00  0.00    +0.002 C 
ATOM     28  C   UNL     1      32.015  -6.583 -22.321  0.00  0.00    -0.002 C 
ATOM     29  C   UNL     1      34.136  -7.632 -22.809  0.00  0.00    -0.002 C 
ATOM     30  C   UNL     1      32.002  -6.016 -23.594  0.00  0.00    -0.000 C 
ATOM     31  C   UNL     1      34.124  -7.064 -24.084  0.00  0.00    -0.000 C 
ATOM     32  C   UNL     1      33.057  -6.256 -24.476  0.00  0.00    -0.000 C 
ENDBRANCH  26  27
BRANCH  26  33
ATOM     33  O   UNL     1      33.167  -6.951 -19.588  0.00  0.00    -0.382 OA
ATOM     34  H   UNL     1      32.810  -7.259 -18.741  0.00  0.00    +0.211 HD
ENDBRANCH  26  33
ENDBRANCH  25  26
ENDBRANCH  22  25
ENDBRANCH  21  22
ENDBRANCH  20  21
ENDBRANCH   1  20
TORSDOF 10
ENDMDL
MODEL 4
REMARK VINA RESULT:     -10.3      4.396      7.853
REMARK  Name = 9865528
REMARK  10 active torsions:
REMARK  status: ('A' for Active; 'I' for Inactive)
REMARK    1  A    between atoms: C_1  and  C_20
REMARK    2  A    between atoms: C_4  and  N_8
REMARK    3  A    between atoms: C_9  and  C_11
REMARK    4  A    between atoms: C_11  and  C_15
REMARK    5  A    between atoms: C_20  and  C_21
REMARK    6  A    between atoms: C_21  and  N_22
REMARK    7  A    between atoms: N_22  and  C_25
REMARK    8  A    between atoms: C_25  and  C_26
REMARK    9  A    between atoms: C_26  and  C_27
REMARK   10  A    between atoms: C_26  and  O_33
REMARK                            x       y       z     vdW  Elec       q    Type
REMARK                         _______ _______ _______ _____ _____    ______ ____
ROOT
ATOM      1  C   UNL     1      34.446 -15.979 -24.608  0.00  0.00    -0.024 C 
ATOM      2  C   UNL     1      33.607 -15.402 -25.561  0.00  0.00    -0.003 C 
ATOM      3  C   UNL     1      34.693 -15.319 -23.405  0.00  0.00    -0.003 C 
ATOM      4  C   UNL     1      33.264 -13.503 -24.108  0.00  0.00    +0.050 C 
ATOM      5  C   UNL     1      33.017 -14.163 -25.311  0.00  0.00    +0.014 C 
ATOM      6  C   UNL     1      34.103 -14.081 -23.155  0.00  0.00    +0.014 C 
ENDROOT
BRANCH   4   8
ATOM      7  O   UNL     1      34.452 -10.747 -24.124  0.00  0.00    -0.274 OA
ATOM      8  N   UNL     1      32.674 -12.264 -23.856  0.00  0.00    -0.284 N 
ATOM      9  C   UNL     1      33.275 -10.994 -23.878  0.00  0.00    +0.233 C 
ATOM     10  H   UNL     1      31.714 -12.281 -23.637  0.00  0.00    +0.155 HD
BRANCH   9  11
ATOM     11  C   UNL     1      32.265  -9.905 -23.544  0.00  0.00    +0.141 C 
BRANCH  11  15
ATOM     12  S   UNL     1      31.810  -9.717 -19.573  0.00  0.00    -0.060 S 
ATOM     13  N   UNL     1      32.673  -8.402 -21.625  0.00  0.00    -0.389 NA
ATOM     14  N   UNL     1      32.887  -7.286 -19.551  0.00  0.00    -0.328 N 
ATOM     15  C   UNL     1      32.195  -9.615 -22.078  0.00  0.00    +0.109 C 
ATOM     16  C   UNL     1      31.689 -10.462 -21.113  0.00  0.00    +0.121 C 
ATOM     17  C   UNL     1      32.521  -8.346 -20.320  0.00  0.00    +0.204 C 
ATOM     18  H   UNL     1      32.744  -7.311 -18.577  0.00  0.00    +0.145 HD
ATOM     19  H   UNL     1      33.296  -6.493 -19.969  0.00  0.00    +0.145 HD
ENDBRANCH  11  15
ENDBRANCH   9  11
ENDBRANCH   4   8
BRANCH   1  20
ATOM     20  C   UNL     1      35.077 -17.304 -24.875  0.00  0.00    +0.003 C 
BRANCH  20  21
ATOM     21  C   UNL     1      34.063 -18.453 -24.800  0.00  0.00    -0.077 C 
BRANCH  21  22
ATOM     22  N   UNL     1      34.410 -19.408 -23.752  0.00  0.00    +0.386 N 
ATOM     23  H   UNL     1      34.843 -20.228 -24.178  0.00  0.00    -0.084 HD
ATOM     24  H   UNL     1      33.559 -19.671 -23.255  0.00  0.00    -0.084 HD
BRANCH  22  25
ATOM     25  C   UNL     1      35.341 -18.818 -22.800  0.00  0.00    -0.047 C 
BRANCH  25  26
ATOM     26  C   UNL     1      34.660 -18.580 -21.448  0.00  0.00    +0.112 C 
BRANCH  26  27
ATOM     27  C   UNL     1      34.593 -19.851 -20.630  0.00  0.00    +0.002 C 
ATOM     28  C   UNL     1      35.768 -20.506 -20.261  0.00  0.00    -0.002 C 
ATOM     29  C   UNL     1      33.356 -20.370 -20.246  0.00  0.00    -0.002 C 
ATOM     30  C   UNL     1      35.707 -21.678 -19.508  0.00  0.00    -0.000 C 
ATOM     31  C   UNL     1      33.294 -21.542 -19.492  0.00  0.00    -0.000 C 
ATOM     32  C   UNL     1      34.469 -22.196 -19.124  0.00  0.00    -0.000 C 
ENDBRANCH  26  27
BRANCH  26  33
ATOM     33  O   UNL     1      35.382 -17.605 -20.695  0.00  0.00    -0.382 OA
ATOM     34  H   UNL     1      35.249 -17.763 -19.749  0.00  0.00    +0.211 HD
ENDBRANCH  26  33
ENDBRANCH  25  26
ENDBRANCH  22  25
ENDBRANCH  21  22
ENDBRANCH  20  21
ENDBRANCH   1  20
TORSDOF 10
ENDMDL
MODEL 5
REMARK VINA RESULT:     -10.2      1.713      3.583
REMARK  Name = 9865528
REMARK  10 active torsions:
REMARK  status: ('A' for Active; 'I' for Inactive)
REMARK    1  A    between atoms: C_1  and  C_20
REMARK    2  A    between atoms: C_4  and  N_8
REMARK    3  A    between atoms: C_9  and  C_11
REMARK    4  A    between atoms: C_11  and  C_15
REMARK    5  A    between atoms: C_20  and  C_21
REMARK    6  A    between atoms: C_21  and  N_22
REMARK    7  A    between atoms: N_22  and  C_25
REMARK    8  A    between atoms: C_25  and  C_26
REMARK    9  A    between atoms: C_26  and  C_27
REMARK   10  A    between atoms: C_26  and  O_33
REMARK                            x       y       z     vdW  Elec       q    Type
REMARK                         _______ _______ _______ _____ _____    ______ ____
ROOT
ATOM      1  C   UNL     1      33.850 -21.885 -18.998  0.00  0.00    -0.024 C 
ATOM      2  C   UNL     1      32.780 -21.151 -19.509  0.00  0.00    -0.003 C 
ATOM      3  C   UNL     1      35.152 -21.596 -19.406  0.00  0.00    -0.003 C 
ATOM      4  C   UNL     1      34.314 -19.839 -20.836  0.00  0.00    +0.050 C 
ATOM      5  C   UNL     1      33.012 -20.128 -20.428  0.00  0.00    +0.014 C 
ATOM      6  C   UNL     1      35.384 -20.573 -20.325  0.00  0.00    +0.014 C 
ENDROOT
BRANCH   4   8
ATOM      7  O   UNL     1      35.378 -17.063 -20.423  0.00  0.00    -0.274 OA
ATOM      8  N   UNL     1      34.547 -18.815 -21.755  0.00  0.00    -0.284 N 
ATOM      9  C   UNL     1      35.050 -17.526 -21.511  0.00  0.00    +0.233 C 
ATOM     10  H   UNL     1      34.332 -19.022 -22.693  0.00  0.00    +0.155 HD
BRANCH   9  11
ATOM     11  C   UNL     1      35.148 -16.724 -22.802  0.00  0.00    +0.141 C 
BRANCH  11  15
ATOM     12  S   UNL     1      32.511 -13.750 -22.341  0.00  0.00    -0.060 S 
ATOM     13  N   UNL     1      34.733 -14.389 -23.497  0.00  0.00    -0.389 NA
ATOM     14  N   UNL     1      33.976 -12.189 -23.919  0.00  0.00    -0.328 N 
ATOM     15  C   UNL     1      34.308 -15.486 -22.775  0.00  0.00    +0.109 C 
ATOM     16  C   UNL     1      33.125 -15.330 -22.083  0.00  0.00    +0.121 C 
ATOM     17  C   UNL     1      33.863 -13.415 -23.342  0.00  0.00    +0.204 C 
ATOM     18  H   UNL     1      33.285 -11.505 -23.759  0.00  0.00    +0.145 HD
ATOM     19  H   UNL     1      34.747 -11.985 -24.496  0.00  0.00    +0.145 HD
ENDBRANCH  11  15
ENDBRANCH   9  11
ENDBRANCH   4   8
BRANCH   1  20
ATOM     20  C   UNL     1      33.602 -22.979 -18.015  0.00  0.00    +0.003 C 
BRANCH  20  21
ATOM     21  C   UNL     1      32.261 -22.810 -17.288  0.00  0.00    -0.077 C 
BRANCH  21  22
ATOM     22  N   UNL     1      32.218 -23.587 -16.054  0.00  0.00    +0.386 N 
ATOM     23  H   UNL     1      32.291 -24.579 -16.281  0.00  0.00    -0.084 HD
ATOM     24  H   UNL     1      31.337 -23.395 -15.578  0.00  0.00    -0.084 HD
BRANCH  22  25
ATOM     25  C   UNL     1      33.315 -23.219 -15.170  0.00  0.00    -0.047 C 
BRANCH  25  26
ATOM     26  C   UNL     1      34.057 -24.466 -14.674  0.00  0.00    +0.112 C 
BRANCH  26  27
ATOM     27  C   UNL     1      35.555 -24.318 -14.832  0.00  0.00    +0.002 C 
ATOM     28  C   UNL     1      36.409 -25.299 -14.327  0.00  0.00    -0.002 C 
ATOM     29  C   UNL     1      36.082 -23.201 -15.480  0.00  0.00    -0.002 C 
ATOM     30  C   UNL     1      37.789 -25.164 -14.472  0.00  0.00    -0.000 C 
ATOM     31  C   UNL     1      37.463 -23.066 -15.625  0.00  0.00    -0.000 C 
ATOM     32  C   UNL     1      38.316 -24.046 -15.121  0.00  0.00    -0.000 C 
ENDBRANCH  26  27
BRANCH  26  33
ATOM     33  O   UNL     1      33.775 -24.692 -13.292  0.00  0.00    -0.382 OA
ATOM     34  H   UNL     1      33.890 -23.866 -12.800  0.00  0.00    +0.211 HD
ENDBRANCH  26  33
ENDBRANCH  25  26
ENDBRANCH  22  25
ENDBRANCH  21  22
ENDBRANCH  20  21
ENDBRANCH   1  20
TORSDOF 10
ENDMDL
MODEL 6
REMARK VINA RESULT:     -10.1      4.193     10.723
REMARK  Name = 9865528
REMARK  10 active torsions:
REMARK  status: ('A' for Active; 'I' for Inactive)
REMARK    1  A    between atoms: C_1  and  C_20
REMARK    2  A    between atoms: C_4  and  N_8
REMARK    3  A    between atoms: C_9  and  C_11
REMARK    4  A    between atoms: C_11  and  C_15
REMARK    5  A    between atoms: C_20  and  C_21
REMARK    6  A    between atoms: C_21  and  N_22
REMARK    7  A    between atoms: N_22  and  C_25
REMARK    8  A    between atoms: C_25  and  C_26
REMARK    9  A    between atoms: C_26  and  C_27
REMARK   10  A    between atoms: C_26  and  O_33
REMARK                            x       y       z     vdW  Elec       q    Type
REMARK                         _______ _______ _______ _____ _____    ______ ____
ROOT
ATOM      1  C   UNL     1      34.462 -20.538 -20.393  0.00  0.00    -0.024 C 
ATOM      2  C   UNL     1      33.225 -20.979 -19.924  0.00  0.00    -0.003 C 
ATOM      3  C   UNL     1      35.638 -21.012 -19.811  0.00  0.00    -0.003 C 
ATOM      4  C   UNL     1      34.339 -22.366 -18.290  0.00  0.00    +0.050 C 
ATOM      5  C   UNL     1      33.163 -21.893 -18.872  0.00  0.00    +0.014 C 
ATOM      6  C   UNL     1      35.576 -21.925 -18.760  0.00  0.00    +0.014 C 
ENDROOT
BRANCH   4   8
ATOM      7  O   UNL     1      35.553 -22.254 -15.549  0.00  0.00    -0.274 OA
ATOM      8  N   UNL     1      34.278 -23.281 -17.238  0.00  0.00    -0.284 N 
ATOM      9  C   UNL     1      34.866 -23.182 -15.966  0.00  0.00    +0.233 C 
ATOM     10  H   UNL     1      33.758 -24.099 -17.408  0.00  0.00    +0.155 HD
BRANCH   9  11
ATOM     11  C   UNL     1      34.549 -24.407 -15.119  0.00  0.00    +0.141 C 
BRANCH  11  15
ATOM     12  S   UNL     1      37.356 -25.333 -12.422  0.00  0.00    -0.060 S 
ATOM     13  N   UNL     1      36.736 -25.541 -14.924  0.00  0.00    -0.389 NA
ATOM     14  N   UNL     1      38.801 -26.519 -14.314  0.00  0.00    -0.328 N 
ATOM     15  C   UNL     1      35.715 -24.856 -14.296  0.00  0.00    +0.109 C 
ATOM     16  C   UNL     1      35.872 -24.648 -12.942  0.00  0.00    +0.121 C 
ATOM     17  C   UNL     1      37.655 -25.842 -14.033  0.00  0.00    +0.204 C 
ATOM     18  H   UNL     1      39.447 -26.711 -13.596  0.00  0.00    +0.145 HD
ATOM     19  H   UNL     1      38.984 -26.816 -15.234  0.00  0.00    +0.145 HD
ENDBRANCH  11  15
ENDBRANCH   9  11
ENDBRANCH   4   8
BRANCH   1  20
ATOM     20  C   UNL     1      34.528 -19.561 -21.518  0.00  0.00    +0.003 C 
BRANCH  20  21
ATOM     21  C   UNL     1      35.752 -18.641 -21.413  0.00  0.00    -0.077 C 
BRANCH  21  22
ATOM     22  N   UNL     1      35.452 -17.434 -20.651  0.00  0.00    +0.386 N 
ATOM     23  H   UNL     1      36.236 -16.786 -20.728  0.00  0.00    -0.084 HD
ATOM     24  H   UNL     1      35.299 -17.693 -19.676  0.00  0.00    -0.084 HD
BRANCH  22  25
ATOM     25  C   UNL     1      34.248 -16.787 -21.155  0.00  0.00    -0.047 C 
BRANCH  25  26
ATOM     26  C   UNL     1      34.584 -15.441 -21.807  0.00  0.00    +0.112 C 
BRANCH  26  27
ATOM     27  C   UNL     1      34.154 -15.405 -23.257  0.00  0.00    +0.002 C 
ATOM     28  C   UNL     1      33.422 -14.320 -23.740  0.00  0.00    -0.002 C 
ATOM     29  C   UNL     1      34.486 -16.457 -24.110  0.00  0.00    -0.002 C 
ATOM     30  C   UNL     1      33.025 -14.286 -25.076  0.00  0.00    -0.000 C 
ATOM     31  C   UNL     1      34.088 -16.423 -25.447  0.00  0.00    -0.000 C 
ATOM     32  C   UNL     1      33.358 -15.338 -25.930  0.00  0.00    -0.000 C 
ENDBRANCH  26  27
BRANCH  26  33
ATOM     33  O   UNL     1      33.922 -14.379 -21.119  0.00  0.00    -0.382 OA
ATOM     34  H   UNL     1      33.257 -14.749 -20.519  0.00  0.00    +0.211 HD
ENDBRANCH  26  33
ENDBRANCH  25  26
ENDBRANCH  22  25
ENDBRANCH  21  22
ENDBRANCH  20  21
ENDBRANCH   1  20
TORSDOF 10
ENDMDL
MODEL 7
REMARK VINA RESULT:     -10.1      3.345      9.895
REMARK  Name = 9865528
REMARK  10 active torsions:
REMARK  status: ('A' for Active; 'I' for Inactive)
REMARK    1  A    between atoms: C_1  and  C_20
REMARK    2  A    between atoms: C_4  and  N_8
REMARK    3  A    between atoms: C_9  and  C_11
REMARK    4  A    between atoms: C_11  and  C_15
REMARK    5  A    between atoms: C_20  and  C_21
REMARK    6  A    between atoms: C_21  and  N_22
REMARK    7  A    between atoms: N_22  and  C_25
REMARK    8  A    between atoms: C_25  and  C_26
REMARK    9  A    between atoms: C_26  and  C_27
REMARK   10  A    between atoms: C_26  and  O_33
REMARK                            x       y       z     vdW  Elec       q    Type
REMARK                         _______ _______ _______ _____ _____    ______ ____
ROOT
ATOM      1  C   UNL     1      34.989 -19.168 -21.281  0.00  0.00    -0.024 C 
ATOM      2  C   UNL     1      35.920 -20.025 -20.695  0.00  0.00    -0.003 C 
ATOM      3  C   UNL     1      33.627 -19.353 -21.047  0.00  0.00    -0.003 C 
ATOM      4  C   UNL     1      34.127 -21.253 -19.641  0.00  0.00    +0.050 C 
ATOM      5  C   UNL     1      35.489 -21.068 -19.876  0.00  0.00    +0.014 C 
ATOM      6  C   UNL     1      33.196 -20.396 -20.228  0.00  0.00    +0.014 C 
ENDROOT
BRANCH   4   8
ATOM      7  O   UNL     1      35.391 -22.454 -17.199  0.00  0.00    -0.274 OA
ATOM      8  N   UNL     1      33.695 -22.296 -18.821  0.00  0.00    -0.284 N 
ATOM      9  C   UNL     1      34.325 -22.824 -17.682  0.00  0.00    +0.233 C 
ATOM     10  H   UNL     1      32.840 -22.715 -19.072  0.00  0.00    +0.155 HD
BRANCH   9  11
ATOM     11  C   UNL     1      33.508 -23.961 -17.082  0.00  0.00    +0.141 C 
BRANCH  11  15
ATOM     12  S   UNL     1      30.495 -22.734 -14.754  0.00  0.00    -0.060 S 
ATOM     13  N   UNL     1      31.159 -23.206 -17.208  0.00  0.00    -0.389 NA
ATOM     14  N   UNL     1      28.941 -22.448 -16.893  0.00  0.00    -0.328 N 
ATOM     15  C   UNL     1      32.257 -23.483 -16.417  0.00  0.00    +0.109 C 
ATOM     16  C   UNL     1      32.089 -23.287 -15.062  0.00  0.00    +0.121 C 
ATOM     17  C   UNL     1      30.172 -22.803 -16.438  0.00  0.00    +0.204 C 
ATOM     18  H   UNL     1      28.247 -22.155 -16.259  0.00  0.00    +0.145 HD
ATOM     19  H   UNL     1      28.744 -22.483 -17.857  0.00  0.00    +0.145 HD
ENDBRANCH  11  15
ENDBRANCH   9  11
ENDBRANCH   4   8
BRANCH   1  20
ATOM     20  C   UNL     1      35.450 -18.052 -22.157  0.00  0.00    +0.003 C 
BRANCH  20  21
ATOM     21  C   UNL     1      35.373 -18.418 -23.646  0.00  0.00    -0.077 C 
BRANCH  21  22
ATOM     22  N   UNL     1      35.250 -17.229 -24.484  0.00  0.00    +0.386 N 
ATOM     23  H   UNL     1      34.473 -17.357 -25.133  0.00  0.00    -0.084 HD
ATOM     24  H   UNL     1      36.123 -17.098 -24.995  0.00  0.00    -0.084 HD
BRANCH  22  25
ATOM     25  C   UNL     1      35.004 -16.045 -23.673  0.00  0.00    -0.047 C 
BRANCH  25  26
ATOM     26  C   UNL     1      33.604 -15.481 -23.942  0.00  0.00    +0.112 C 
BRANCH  26  27
ATOM     27  C   UNL     1      33.096 -14.676 -22.766  0.00  0.00    +0.002 C 
ATOM     28  C   UNL     1      32.519 -13.423 -22.976  0.00  0.00    -0.002 C 
ATOM     29  C   UNL     1      33.205 -15.184 -21.472  0.00  0.00    -0.002 C 
ATOM     30  C   UNL     1      32.051 -12.680 -21.894  0.00  0.00    -0.000 C 
ATOM     31  C   UNL     1      32.737 -14.441 -20.388  0.00  0.00    -0.000 C 
ATOM     32  C   UNL     1      32.160 -13.189 -20.599  0.00  0.00    -0.000 C 
ENDBRANCH  26  27
BRANCH  26  33
ATOM     33  O   UNL     1      33.625 -14.631 -25.088  0.00  0.00    -0.382 OA
ATOM     34  H   UNL     1      34.347 -13.991 -25.002  0.00  0.00    +0.211 HD
ENDBRANCH  26  33
ENDBRANCH  25  26
ENDBRANCH  22  25
ENDBRANCH  21  22
ENDBRANCH  20  21
ENDBRANCH   1  20
TORSDOF 10
ENDMDL
MODEL 8
REMARK VINA RESULT:     -10.1      2.674      5.074
REMARK  Name = 9865528
REMARK  10 active torsions:
REMARK  status: ('A' for Active; 'I' for Inactive)
REMARK    1  A    between atoms: C_1  and  C_20
REMARK    2  A    between atoms: C_4  and  N_8
REMARK    3  A    between atoms: C_9  and  C_11
REMARK    4  A    between atoms: C_11  and  C_15
REMARK    5  A    between atoms: C_20  and  C_21
REMARK    6  A    between atoms: C_21  and  N_22
REMARK    7  A    between atoms: N_22  and  C_25
REMARK    8  A    between atoms: C_25  and  C_26
REMARK    9  A    between atoms: C_26  and  C_27
REMARK   10  A    between atoms: C_26  and  O_33
REMARK                            x       y       z     vdW  Elec       q    Type
REMARK                         _______ _______ _______ _____ _____    ______ ____
ROOT
ATOM      1  C   UNL     1      34.765 -17.938 -22.318  0.00  0.00    -0.024 C 
ATOM      2  C   UNL     1      35.018 -17.540 -23.631  0.00  0.00    -0.003 C 
ATOM      3  C   UNL     1      34.407 -16.990 -21.359  0.00  0.00    -0.003 C 
ATOM      4  C   UNL     1      34.559 -15.247 -23.025  0.00  0.00    +0.050 C 
ATOM      5  C   UNL     1      34.916 -16.195 -23.984  0.00  0.00    +0.014 C 
ATOM      6  C   UNL     1      34.305 -15.645 -21.712  0.00  0.00    +0.014 C 
ENDROOT
BRANCH   4   8
ATOM      7  O   UNL     1      32.763 -13.893 -25.011  0.00  0.00    -0.274 OA
ATOM      8  N   UNL     1      34.455 -13.901 -23.378  0.00  0.00    -0.284 N 
ATOM      9  C   UNL     1      33.593 -13.313 -24.318  0.00  0.00    +0.233 C 
ATOM     10  H   UNL     1      35.063 -13.285 -22.908  0.00  0.00    +0.155 HD
BRANCH   9  11
ATOM     11  C   UNL     1      33.810 -11.807 -24.392  0.00  0.00    +0.141 C 
BRANCH  11  15
ATOM     12  S   UNL     1      31.871  -9.270 -21.981  0.00  0.00    -0.060 S 
ATOM     13  N   UNL     1      32.188 -11.777 -22.528  0.00  0.00    -0.389 NA
ATOM     14  N   UNL     1      30.682 -11.314 -20.765  0.00  0.00    -0.328 N 
ATOM     15  C   UNL     1      32.987 -11.057 -23.393  0.00  0.00    +0.109 C 
ATOM     16  C   UNL     1      32.949  -9.686 -23.249  0.00  0.00    +0.121 C 
ATOM     17  C   UNL     1      31.554 -10.939 -21.738  0.00  0.00    +0.204 C 
ATOM     18  H   UNL     1      30.241 -10.631 -20.209  0.00  0.00    +0.145 HD
ATOM     19  H   UNL     1      30.492 -12.269 -20.616  0.00  0.00    +0.145 HD
ENDBRANCH  11  15
ENDBRANCH   9  11
ENDBRANCH   4   8
BRANCH   1  20
ATOM     20  C   UNL     1      34.874 -19.376 -21.940  0.00  0.00    +0.003 C 
BRANCH  20  21
ATOM     21  C   UNL     1      33.918 -19.748 -20.799  0.00  0.00    -0.077 C 
BRANCH  21  22
ATOM     22  N   UNL     1      34.498 -20.758 -19.920  0.00  0.00    +0.386 N 
ATOM     23  H   UNL     1      34.968 -20.295 -19.142  0.00  0.00    -0.084 HD
ATOM     24  H   UNL     1      35.162 -21.315 -20.458  0.00  0.00    -0.084 HD
BRANCH  22  25
ATOM     25  C   UNL     1      33.468 -21.644 -19.395  0.00  0.00    -0.047 C 
BRANCH  25  26
ATOM     26  C   UNL     1      34.094 -22.845 -18.678  0.00  0.00    +0.112 C 
BRANCH  26  27
ATOM     27  C   UNL     1      33.499 -23.040 -17.301  0.00  0.00    +0.002 C 
ATOM     28  C   UNL     1      32.116 -22.980 -17.124  0.00  0.00    -0.002 C 
ATOM     29  C   UNL     1      34.331 -23.277 -16.207  0.00  0.00    -0.002 C 
ATOM     30  C   UNL     1      31.567 -23.159 -15.856  0.00  0.00    -0.000 C 
ATOM     31  C   UNL     1      33.782 -23.456 -14.937  0.00  0.00    -0.000 C 
ATOM     32  C   UNL     1      32.400 -23.397 -14.762  0.00  0.00    -0.000 C 
ENDBRANCH  26  27
BRANCH  26  33
ATOM     33  O   UNL     1      33.876 -24.039 -19.430  0.00  0.00    -0.382 OA
ATOM     34  H   UNL     1      33.003 -24.401 -19.215  0.00  0.00    +0.211 HD
ENDBRANCH  26  33
ENDBRANCH  25  26
ENDBRANCH  22  25
ENDBRANCH  21  22
ENDBRANCH  20  21
ENDBRANCH   1  20
TORSDOF 10
ENDMDL
MODEL 9
REMARK VINA RESULT:     -10.0      2.620      4.109
REMARK  Name = 9865528
REMARK  10 active torsions:
REMARK  status: ('A' for Active; 'I' for Inactive)
REMARK    1  A    between atoms: C_1  and  C_20
REMARK    2  A    between atoms: C_4  and  N_8
REMARK    3  A    between atoms: C_9  and  C_11
REMARK    4  A    between atoms: C_11  and  C_15
REMARK    5  A    between atoms: C_20  and  C_21
REMARK    6  A    between atoms: C_21  and  N_22
REMARK    7  A    between atoms: N_22  and  C_25
REMARK    8  A    between atoms: C_25  and  C_26
REMARK    9  A    between atoms: C_26  and  C_27
REMARK   10  A    between atoms: C_26  and  O_33
REMARK                            x       y       z     vdW  Elec       q    Type
REMARK                         _______ _______ _______ _____ _____    ______ ____
ROOT
ATOM      1  C   UNL     1      34.056 -21.504 -19.509  0.00  0.00    -0.024 C 
ATOM      2  C   UNL     1      35.382 -21.216 -19.834  0.00  0.00    -0.003 C 
ATOM      3  C   UNL     1      33.029 -20.688 -19.984  0.00  0.00    -0.003 C 
ATOM      4  C   UNL     1      34.654 -19.297 -21.107  0.00  0.00    +0.050 C 
ATOM      5  C   UNL     1      35.680 -20.112 -20.632  0.00  0.00    +0.014 C 
ATOM      6  C   UNL     1      33.328 -19.585 -20.782  0.00  0.00    +0.014 C 
ENDROOT
BRANCH   4   8
ATOM      7  O   UNL     1      34.397 -18.922 -24.074  0.00  0.00    -0.274 OA
ATOM      8  N   UNL     1      34.951 -18.193 -21.907  0.00  0.00    -0.284 N 
ATOM      9  C   UNL     1      34.811 -18.065 -23.299  0.00  0.00    +0.233 C 
ATOM     10  H   UNL     1      35.303 -17.403 -21.436  0.00  0.00    +0.155 HD
BRANCH   9  11
ATOM     11  C   UNL     1      35.254 -16.686 -23.769  0.00  0.00    +0.141 C 
BRANCH  11  15
ATOM     12  S   UNL     1      32.667 -13.670 -23.304  0.00  0.00    -0.060 S 
ATOM     13  N   UNL     1      34.037 -15.442 -22.014  0.00  0.00    -0.389 NA
ATOM     14  N   UNL     1      32.710 -14.021 -20.669  0.00  0.00    -0.328 N 
ATOM     15  C   UNL     1      34.304 -15.606 -23.359  0.00  0.00    +0.109 C 
ATOM     16  C   UNL     1      33.654 -14.738 -24.212  0.00  0.00    +0.121 C 
ATOM     17  C   UNL     1      33.187 -14.451 -21.868  0.00  0.00    +0.204 C 
ATOM     18  H   UNL     1      32.074 -13.271 -20.632  0.00  0.00    +0.145 HD
ATOM     19  H   UNL     1      33.001 -14.462 -19.837  0.00  0.00    +0.145 HD
ENDBRANCH  11  15
ENDBRANCH   9  11
ENDBRANCH   4   8
BRANCH   1  20
ATOM     20  C   UNL     1      33.737 -22.684 -18.655  0.00  0.00    +0.003 C 
BRANCH  20  21
ATOM     21  C   UNL     1      34.672 -22.790 -17.443  0.00  0.00    -0.077 C 
BRANCH  21  22
ATOM     22  N   UNL     1      34.022 -23.455 -16.319  0.00  0.00    +0.386 N 
ATOM     23  H   UNL     1      34.146 -24.464 -16.409  0.00  0.00    -0.084 HD
ATOM     24  H   UNL     1      33.030 -23.216 -16.329  0.00  0.00    -0.084 HD
BRANCH  22  25
ATOM     25  C   UNL     1      34.593 -23.016 -15.054  0.00  0.00    -0.047 C 
BRANCH  25  26
ATOM     26  C   UNL     1      34.578 -24.151 -14.025  0.00  0.00    +0.112 C 
BRANCH  26  27
ATOM     27  C   UNL     1      35.971 -24.681 -13.763  0.00  0.00    +0.002 C 
ATOM     28  C   UNL     1      36.551 -25.586 -14.653  0.00  0.00    -0.002 C 
ATOM     29  C   UNL     1      36.675 -24.267 -12.633  0.00  0.00    -0.002 C 
ATOM     30  C   UNL     1      37.834 -26.075 -14.413  0.00  0.00    -0.000 C 
ATOM     31  C   UNL     1      37.959 -24.756 -12.392  0.00  0.00    -0.000 C 
ATOM     32  C   UNL     1      38.539 -25.660 -13.282  0.00  0.00    -0.000 C 
ENDBRANCH  26  27
BRANCH  26  33
ATOM     33  O   UNL     1      34.038 -23.689 -12.786  0.00  0.00    -0.382 OA
ATOM     34  H   UNL     1      33.070 -23.735 -12.819  0.00  0.00    +0.211 HD
ENDBRANCH  26  33
ENDBRANCH  25  26
ENDBRANCH  22  25
ENDBRANCH  21  22
ENDBRANCH  20  21
ENDBRANCH   1  20
TORSDOF 10
ENDMDL
