MODEL 1
REMARK VINA RESULT:      -7.0      0.000      0.000
REMARK  Name = 46937177
REMARK  11 active torsions:
REMARK  status: ('A' for Active; 'I' for Inactive)
REMARK    1  A    between atoms: C_1  and  O_2
REMARK    2  A    between atoms: C_1  and  C_4
REMARK    3  A    between atoms: C_1  and  C_12
REMARK    4  A    between atoms: C_4  and  C_6
REMARK    5  A    between atoms: C_6  and  C_7
REMARK    6  A    between atoms: C_7  and  C_9
REMARK    7  A    between atoms: C_9  and  O_10
REMARK    8  A    between atoms: C_12  and  C_15
REMARK    9  A    between atoms: C_15  and  C_16
REMARK   10  A    between atoms: C_16  and  P_17
REMARK   11  A    between atoms: P_17  and  O_20
REMARK                            x       y       z     vdW  Elec       q    Type
REMARK                         _______ _______ _______ _____ _____    ______ ____
ROOT
ATOM      1  C   UNL     1      35.714 -24.032 -13.429  0.00  0.00    +0.117 C 
ENDROOT
BRANCH   1   2
ATOM      2  O   UNL     1      35.160 -23.437 -12.251  0.00  0.00    -0.384 OA
ATOM      3  H   UNL     1      35.429 -23.951 -11.472  0.00  0.00    +0.210 HD
ENDBRANCH   1   2
BRANCH   1   4
ATOM      4  C   UNL     1      35.274 -23.222 -14.680  0.00  0.00    +0.027 C 
ATOM      5  C   UNL     1      36.458 -23.091 -15.650  0.00  0.00    +0.002 C 
BRANCH   4   6
ATOM      6  C   UNL     1      34.042 -23.837 -15.389  0.00  0.00    +0.005 C 
BRANCH   6   7
ATOM      7  C   UNL     1      32.695 -23.116 -15.148  0.00  0.00    +0.029 C 
ATOM      8  C   UNL     1      31.773 -23.208 -16.367  0.00  0.00    +0.003 C 
BRANCH   7   9
ATOM      9  C   UNL     1      32.005 -23.683 -13.895  0.00  0.00    +0.137 C 
BRANCH   9  10
ATOM     10  O   UNL     1      32.315 -22.935 -12.728  0.00  0.00    -0.382 OA
ATOM     11  H   UNL     1      32.083 -23.452 -11.941  0.00  0.00    +0.210 HD
ENDBRANCH   9  10
ENDBRANCH   7   9
ENDBRANCH   6   7
ENDBRANCH   4   6
ENDBRANCH   1   4
BRANCH   1  12
ATOM     12  C   UNL     1      37.239 -24.189 -13.231  0.00  0.00    +0.085 C 
ATOM     13  C   UNL     1      37.763 -23.521 -11.964  0.00  0.00    +0.010 C 
BRANCH  12  15
ATOM     14  O   UNL     1      37.309 -26.382 -12.210  0.00  0.00    -0.295 OA
ATOM     15  C   UNL     1      37.613 -25.672 -13.168  0.00  0.00    +0.162 C 
BRANCH  15  16
ATOM     16  C   UNL     1      38.349 -26.234 -14.361  0.00  0.00    +0.147 C 
BRANCH  16  17
ATOM     17  P   UNL     1      40.045 -25.641 -14.522  0.00  0.00    +0.207 P 
ATOM     18  O   UNL     1      40.970 -26.543 -13.746  0.00  0.00    -0.293 OA
ATOM     19  H   UNL     1      40.289 -24.306 -14.775  0.00  0.00    +0.129 HD
BRANCH  17  20
ATOM     20  O   UNL     1      40.254 -25.842 -16.123  0.00  0.00    -0.345 OA
ATOM     21  H   UNL     1      41.051 -25.368 -16.407  0.00  0.00    +0.217 HD
ENDBRANCH  17  20
ENDBRANCH  16  17
ENDBRANCH  15  16
ENDBRANCH  12  15
ENDBRANCH   1  12
TORSDOF 11
ENDMDL
MODEL 2
REMARK VINA RESULT:      -6.9      2.200      2.748
REMARK  Name = 46937177
REMARK  11 active torsions:
REMARK  status: ('A' for Active; 'I' for Inactive)
REMARK    1  A    between atoms: C_1  and  O_2
REMARK    2  A    between atoms: C_1  and  C_4
REMARK    3  A    between atoms: C_1  and  C_12
REMARK    4  A    between atoms: C_4  and  C_6
REMARK    5  A    between atoms: C_6  and  C_7
REMARK    6  A    between atoms: C_7  and  C_9
REMARK    7  A    between atoms: C_9  and  O_10
REMARK    8  A    between atoms: C_12  and  C_15
REMARK    9  A    between atoms: C_15  and  C_16
REMARK   10  A    between atoms: C_16  and  P_17
REMARK   11  A    between atoms: P_17  and  O_20
REMARK                            x       y       z     vdW  Elec       q    Type
REMARK                         _______ _______ _______ _____ _____    ______ ____
ROOT
ATOM      1  C   UNL     1      33.836 -24.409 -14.338  0.00  0.00    +0.117 C 
ENDROOT
BRANCH   1   2
ATOM      2  O   UNL     1      33.190 -24.796 -13.121  0.00  0.00    -0.384 OA
ATOM      3  H   UNL     1      33.596 -24.325 -12.375  0.00  0.00    +0.210 HD
ENDBRANCH   1   2
BRANCH   1   4
ATOM      4  C   UNL     1      33.045 -23.248 -15.002  0.00  0.00    +0.027 C 
ATOM      5  C   UNL     1      33.136 -23.372 -16.531  0.00  0.00    +0.002 C 
BRANCH   4   6
ATOM      6  C   UNL     1      31.568 -23.187 -14.539  0.00  0.00    +0.005 C 
BRANCH   6   7
ATOM      7  C   UNL     1      30.533 -23.822 -15.497  0.00  0.00    +0.029 C 
ATOM      8  C   UNL     1      30.030 -25.172 -14.980  0.00  0.00    +0.003 C 
BRANCH   7   9
ATOM      9  C   UNL     1      29.361 -22.852 -15.731  0.00  0.00    +0.137 C 
BRANCH   9  10
ATOM     10  O   UNL     1      29.291 -22.412 -17.080  0.00  0.00    -0.382 OA
ATOM     11  H   UNL     1      28.368 -22.429 -17.378  0.00  0.00    +0.210 HD
ENDBRANCH   9  10
ENDBRANCH   7   9
ENDBRANCH   6   7
ENDBRANCH   4   6
ENDBRANCH   1   4
BRANCH   1  12
ATOM     12  C   UNL     1      35.325 -24.122 -14.037  0.00  0.00    +0.085 C 
ATOM     13  C   UNL     1      35.622 -23.929 -12.553  0.00  0.00    +0.010 C 
BRANCH  12  15
ATOM     14  O   UNL     1      36.069 -25.742 -15.674  0.00  0.00    -0.295 OA
ATOM     15  C   UNL     1      36.197 -25.274 -14.543  0.00  0.00    +0.162 C 
BRANCH  15  16
ATOM     16  C   UNL     1      37.252 -25.790 -13.593  0.00  0.00    +0.147 C 
BRANCH  16  17
ATOM     17  P   UNL     1      38.943 -25.435 -14.113  0.00  0.00    +0.207 P 
ATOM     18  O   UNL     1      39.545 -26.666 -14.742  0.00  0.00    -0.293 OA
ATOM     19  H   UNL     1      39.670 -24.451 -13.474  0.00  0.00    +0.129 HD
BRANCH  17  20
ATOM     20  O   UNL     1      38.650 -24.298 -15.238  0.00  0.00    -0.345 OA
ATOM     21  H   UNL     1      37.820 -24.502 -15.696  0.00  0.00    +0.217 HD
ENDBRANCH  17  20
ENDBRANCH  16  17
ENDBRANCH  15  16
ENDBRANCH  12  15
ENDBRANCH   1  12
TORSDOF 11
ENDMDL
MODEL 3
REMARK VINA RESULT:      -6.7      2.558      3.526
REMARK  Name = 46937177
REMARK  11 active torsions:
REMARK  status: ('A' for Active; 'I' for Inactive)
REMARK    1  A    between atoms: C_1  and  O_2
REMARK    2  A    between atoms: C_1  and  C_4
REMARK    3  A    between atoms: C_1  and  C_12
REMARK    4  A    between atoms: C_4  and  C_6
REMARK    5  A    between atoms: C_6  and  C_7
REMARK    6  A    between atoms: C_7  and  C_9
REMARK    7  A    between atoms: C_9  and  O_10
REMARK    8  A    between atoms: C_12  and  C_15
REMARK    9  A    between atoms: C_15  and  C_16
REMARK   10  A    between atoms: C_16  and  P_17
REMARK   11  A    between atoms: P_17  and  O_20
REMARK                            x       y       z     vdW  Elec       q    Type
REMARK                         _______ _______ _______ _____ _____    ______ ____
ROOT
ATOM      1  C   UNL     1      34.591 -23.252 -15.489  0.00  0.00    +0.117 C 
ENDROOT
BRANCH   1   2
ATOM      2  O   UNL     1      35.583 -23.282 -16.520  0.00  0.00    -0.384 OA
ATOM      3  H   UNL     1      36.454 -23.090 -16.137  0.00  0.00    +0.210 HD
ENDBRANCH   1   2
BRANCH   1   4
ATOM      4  C   UNL     1      33.188 -23.034 -16.120  0.00  0.00    +0.027 C 
ATOM      5  C   UNL     1      33.256 -23.303 -17.631  0.00  0.00    +0.002 C 
BRANCH   4   6
ATOM      6  C   UNL     1      32.090 -23.898 -15.453  0.00  0.00    +0.005 C 
BRANCH   6   7
ATOM      7  C   UNL     1      31.098 -23.142 -14.537  0.00  0.00    +0.029 C 
ATOM      8  C   UNL     1      29.813 -22.763 -15.278  0.00  0.00    +0.003 C 
BRANCH   7   9
ATOM      9  C   UNL     1      30.783 -23.982 -13.287  0.00  0.00    +0.137 C 
BRANCH   9  10
ATOM     10  O   UNL     1      31.661 -25.091 -13.152  0.00  0.00    -0.382 OA
ATOM     11  H   UNL     1      31.155 -25.872 -12.876  0.00  0.00    +0.210 HD
ENDBRANCH   9  10
ENDBRANCH   7   9
ENDBRANCH   6   7
ENDBRANCH   4   6
ENDBRANCH   1   4
BRANCH   1  12
ATOM     12  C   UNL     1      34.747 -24.519 -14.617  0.00  0.00    +0.085 C 
ATOM     13  C   UNL     1      35.831 -25.471 -15.111  0.00  0.00    +0.010 C 
BRANCH  12  15
ATOM     14  O   UNL     1      34.406 -24.505 -12.221  0.00  0.00    -0.295 OA
ATOM     15  C   UNL     1      35.086 -24.130 -13.176  0.00  0.00    +0.162 C 
BRANCH  15  16
ATOM     16  C   UNL     1      36.324 -23.287 -12.978  0.00  0.00    +0.147 C 
BRANCH  16  17
ATOM     17  P   UNL     1      37.528 -24.007 -11.845  0.00  0.00    +0.207 P 
ATOM     18  O   UNL     1      38.682 -23.054 -11.665  0.00  0.00    -0.293 OA
ATOM     19  H   UNL     1      37.622 -25.378 -11.715  0.00  0.00    +0.129 HD
BRANCH  17  20
ATOM     20  O   UNL     1      36.624 -24.078 -10.494  0.00  0.00    -0.345 OA
ATOM     21  H   UNL     1      36.059 -23.292 -10.442  0.00  0.00    +0.217 HD
ENDBRANCH  17  20
ENDBRANCH  16  17
ENDBRANCH  15  16
ENDBRANCH  12  15
ENDBRANCH   1  12
TORSDOF 11
ENDMDL
MODEL 4
REMARK VINA RESULT:      -6.7     10.130     11.628
REMARK  Name = 46937177
REMARK  11 active torsions:
REMARK  status: ('A' for Active; 'I' for Inactive)
REMARK    1  A    between atoms: C_1  and  O_2
REMARK    2  A    between atoms: C_1  and  C_4
REMARK    3  A    between atoms: C_1  and  C_12
REMARK    4  A    between atoms: C_4  and  C_6
REMARK    5  A    between atoms: C_6  and  C_7
REMARK    6  A    between atoms: C_7  and  C_9
REMARK    7  A    between atoms: C_9  and  O_10
REMARK    8  A    between atoms: C_12  and  C_15
REMARK    9  A    between atoms: C_15  and  C_16
REMARK   10  A    between atoms: C_16  and  P_17
REMARK   11  A    between atoms: P_17  and  O_20
REMARK                            x       y       z     vdW  Elec       q    Type
REMARK                         _______ _______ _______ _____ _____    ______ ____
ROOT
ATOM      1  C   UNL     1      35.191 -16.753 -22.365  0.00  0.00    +0.117 C 
ENDROOT
BRANCH   1   2
ATOM      2  O   UNL     1      35.761 -16.328 -23.607  0.00  0.00    -0.384 OA
ATOM      3  H   UNL     1      36.729 -16.369 -23.550  0.00  0.00    +0.210 HD
ENDBRANCH   1   2
BRANCH   1   4
ATOM      4  C   UNL     1      34.236 -15.653 -21.824  0.00  0.00    +0.027 C 
ATOM      5  C   UNL     1      34.599 -15.329 -20.367  0.00  0.00    +0.002 C 
BRANCH   4   6
ATOM      6  C   UNL     1      34.244 -14.372 -22.695  0.00  0.00    +0.005 C 
BRANCH   6   7
ATOM      7  C   UNL     1      32.914 -14.034 -23.409  0.00  0.00    +0.029 C 
ATOM      8  C   UNL     1      32.381 -12.659 -22.999  0.00  0.00    +0.003 C 
BRANCH   7   9
ATOM      9  C   UNL     1      33.094 -14.120 -24.935  0.00  0.00    +0.137 C 
BRANCH   9  10
ATOM     10  O   UNL     1      33.503 -15.414 -25.354  0.00  0.00    -0.382 OA
ATOM     11  H   UNL     1      34.257 -15.705 -24.817  0.00  0.00    +0.210 HD
ENDBRANCH   9  10
ENDBRANCH   7   9
ENDBRANCH   6   7
ENDBRANCH   4   6
ENDBRANCH   1   4
BRANCH   1  12
ATOM     12  C   UNL     1      34.562 -18.151 -22.565  0.00  0.00    +0.085 C 
ATOM     13  C   UNL     1      35.185 -18.944 -23.709  0.00  0.00    +0.010 C 
BRANCH  12  15
ATOM     14  O   UNL     1      35.673 -18.863 -20.535  0.00  0.00    -0.295 OA
ATOM     15  C   UNL     1      34.705 -18.982 -21.286  0.00  0.00    +0.162 C 
BRANCH  15  16
ATOM     16  C   UNL     1      33.578 -19.936 -20.972  0.00  0.00    +0.147 C 
BRANCH  16  17
ATOM     17  P   UNL     1      33.969 -21.132 -19.679  0.00  0.00    +0.207 P 
ATOM     18  O   UNL     1      33.030 -22.307 -19.779  0.00  0.00    -0.293 OA
ATOM     19  H   UNL     1      34.571 -20.713 -18.509  0.00  0.00    +0.129 HD
BRANCH  17  20
ATOM     20  O   UNL     1      35.470 -21.553 -20.140  0.00  0.00    -0.345 OA
ATOM     21  H   UNL     1      35.427 -22.347 -20.696  0.00  0.00    +0.217 HD
ENDBRANCH  17  20
ENDBRANCH  16  17
ENDBRANCH  15  16
ENDBRANCH  12  15
ENDBRANCH   1  12
TORSDOF 11
ENDMDL
MODEL 5
REMARK VINA RESULT:      -6.7     10.701     12.564
REMARK  Name = 46937177
REMARK  11 active torsions:
REMARK  status: ('A' for Active; 'I' for Inactive)
REMARK    1  A    between atoms: C_1  and  O_2
REMARK    2  A    between atoms: C_1  and  C_4
REMARK    3  A    between atoms: C_1  and  C_12
REMARK    4  A    between atoms: C_4  and  C_6
REMARK    5  A    between atoms: C_6  and  C_7
REMARK    6  A    between atoms: C_7  and  C_9
REMARK    7  A    between atoms: C_9  and  O_10
REMARK    8  A    between atoms: C_12  and  C_15
REMARK    9  A    between atoms: C_15  and  C_16
REMARK   10  A    between atoms: C_16  and  P_17
REMARK   11  A    between atoms: P_17  and  O_20
REMARK                            x       y       z     vdW  Elec       q    Type
REMARK                         _______ _______ _______ _____ _____    ______ ____
ROOT
ATOM      1  C   UNL     1      34.518 -16.300 -21.648  0.00  0.00    +0.117 C 
ENDROOT
BRANCH   1   2
ATOM      2  O   UNL     1      35.087 -16.182 -20.340  0.00  0.00    -0.384 OA
ATOM      3  H   UNL     1      34.789 -16.924 -19.790  0.00  0.00    +0.210 HD
ENDBRANCH   1   2
BRANCH   1   4
ATOM      4  C   UNL     1      34.546 -17.787 -22.098  0.00  0.00    +0.027 C 
ATOM      5  C   UNL     1      35.334 -17.912 -23.411  0.00  0.00    +0.002 C 
BRANCH   4   6
ATOM      6  C   UNL     1      35.124 -18.730 -21.014  0.00  0.00    +0.005 C 
BRANCH   6   7
ATOM      7  C   UNL     1      34.454 -20.120 -20.901  0.00  0.00    +0.029 C 
ATOM      8  C   UNL     1      35.144 -21.003 -19.858  0.00  0.00    +0.003 C 
BRANCH   7   9
ATOM      9  C   UNL     1      32.956 -19.964 -20.583  0.00  0.00    +0.137 C 
BRANCH   9  10
ATOM     10  O   UNL     1      32.562 -20.744 -19.464  0.00  0.00    -0.382 OA
ATOM     11  H   UNL     1      33.251 -21.398 -19.267  0.00  0.00    +0.210 HD
ENDBRANCH   9  10
ENDBRANCH   7   9
ENDBRANCH   6   7
ENDBRANCH   4   6
ENDBRANCH   1   4
BRANCH   1  12
ATOM     12  C   UNL     1      33.128 -15.624 -21.644  0.00  0.00    +0.085 C 
ATOM     13  C   UNL     1      32.724 -15.064 -20.284  0.00  0.00    +0.010 C 
BRANCH  12  15
ATOM     14  O   UNL     1      32.398 -13.474 -22.483  0.00  0.00    -0.295 OA
ATOM     15  C   UNL     1      33.098 -14.472 -22.652  0.00  0.00    +0.162 C 
BRANCH  15  16
ATOM     16  C   UNL     1      34.002 -14.605 -23.855  0.00  0.00    +0.147 C 
BRANCH  16  17
ATOM     17  P   UNL     1      33.125 -14.629 -25.432  0.00  0.00    +0.207 P 
ATOM     18  O   UNL     1      33.305 -13.304 -26.128  0.00  0.00    -0.293 OA
ATOM     19  H   UNL     1      32.035 -15.458 -25.604  0.00  0.00    +0.129 HD
BRANCH  17  20
ATOM     20  O   UNL     1      33.963 -15.797 -26.192  0.00  0.00    -0.345 OA
ATOM     21  H   UNL     1      34.788 -15.968 -25.713  0.00  0.00    +0.217 HD
ENDBRANCH  17  20
ENDBRANCH  16  17
ENDBRANCH  15  16
ENDBRANCH  12  15
ENDBRANCH   1  12
TORSDOF 11
ENDMDL
MODEL 6
REMARK VINA RESULT:      -6.7      1.195      2.791
REMARK  Name = 46937177
REMARK  11 active torsions:
REMARK  status: ('A' for Active; 'I' for Inactive)
REMARK    1  A    between atoms: C_1  and  O_2
REMARK    2  A    between atoms: C_1  and  C_4
REMARK    3  A    between atoms: C_1  and  C_12
REMARK    4  A    between atoms: C_4  and  C_6
REMARK    5  A    between atoms: C_6  and  C_7
REMARK    6  A    between atoms: C_7  and  C_9
REMARK    7  A    between atoms: C_9  and  O_10
REMARK    8  A    between atoms: C_12  and  C_15
REMARK    9  A    between atoms: C_15  and  C_16
REMARK   10  A    between atoms: C_16  and  P_17
REMARK   11  A    between atoms: P_17  and  O_20
REMARK                            x       y       z     vdW  Elec       q    Type
REMARK                         _______ _______ _______ _____ _____    ______ ____
ROOT
ATOM      1  C   UNL     1      35.475 -24.397 -13.133  0.00  0.00    +0.117 C 
ENDROOT
BRANCH   1   2
ATOM      2  O   UNL     1      34.865 -23.588 -12.121  0.00  0.00    -0.384 OA
ATOM      3  H   UNL     1      34.554 -24.156 -11.398  0.00  0.00    +0.210 HD
ENDBRANCH   1   2
BRANCH   1   4
ATOM      4  C   UNL     1      34.768 -24.153 -14.494  0.00  0.00    +0.027 C 
ATOM      5  C   UNL     1      33.246 -24.256 -14.309  0.00  0.00    +0.002 C 
BRANCH   4   6
ATOM      6  C   UNL     1      35.156 -22.798 -15.137  0.00  0.00    +0.005 C 
BRANCH   6   7
ATOM      7  C   UNL     1      36.041 -22.881 -16.403  0.00  0.00    +0.029 C 
ATOM      8  C   UNL     1      35.332 -22.306 -17.632  0.00  0.00    +0.003 C 
BRANCH   7   9
ATOM      9  C   UNL     1      37.383 -22.169 -16.161  0.00  0.00    +0.137 C 
BRANCH   9  10
ATOM     10  O   UNL     1      38.478 -23.074 -16.166  0.00  0.00    -0.382 OA
ATOM     11  H   UNL     1      38.320 -23.769 -16.824  0.00  0.00    +0.210 HD
ENDBRANCH   9  10
ENDBRANCH   7   9
ENDBRANCH   6   7
ENDBRANCH   4   6
ENDBRANCH   1   4
BRANCH   1  12
ATOM     12  C   UNL     1      37.000 -24.145 -13.112  0.00  0.00    +0.085 C 
ATOM     13  C   UNL     1      37.452 -23.225 -11.982  0.00  0.00    +0.010 C 
BRANCH  12  15
ATOM     14  O   UNL     1      37.830 -26.062 -11.890  0.00  0.00    -0.295 OA
ATOM     15  C   UNL     1      37.753 -25.470 -12.966  0.00  0.00    +0.162 C 
BRANCH  15  16
ATOM     16  C   UNL     1      38.369 -26.038 -14.222  0.00  0.00    +0.147 C 
BRANCH  16  17
ATOM     17  P   UNL     1      40.109 -25.615 -14.440  0.00  0.00    +0.207 P 
ATOM     18  O   UNL     1      40.970 -26.680 -13.810  0.00  0.00    -0.293 OA
ATOM     19  H   UNL     1      40.486 -24.295 -14.588  0.00  0.00    +0.129 HD
BRANCH  17  20
ATOM     20  O   UNL     1      40.206 -25.682 -16.063  0.00  0.00    -0.345 OA
ATOM     21  H   UNL     1      39.323 -25.558 -16.445  0.00  0.00    +0.217 HD
ENDBRANCH  17  20
ENDBRANCH  16  17
ENDBRANCH  15  16
ENDBRANCH  12  15
ENDBRANCH   1  12
TORSDOF 11
ENDMDL
MODEL 7
REMARK VINA RESULT:      -6.6      2.093      2.847
REMARK  Name = 46937177
REMARK  11 active torsions:
REMARK  status: ('A' for Active; 'I' for Inactive)
REMARK    1  A    between atoms: C_1  and  O_2
REMARK    2  A    between atoms: C_1  and  C_4
REMARK    3  A    between atoms: C_1  and  C_12
REMARK    4  A    between atoms: C_4  and  C_6
REMARK    5  A    between atoms: C_6  and  C_7
REMARK    6  A    between atoms: C_7  and  C_9
REMARK    7  A    between atoms: C_9  and  O_10
REMARK    8  A    between atoms: C_12  and  C_15
REMARK    9  A    between atoms: C_15  and  C_16
REMARK   10  A    between atoms: C_16  and  P_17
REMARK   11  A    between atoms: P_17  and  O_20
REMARK                            x       y       z     vdW  Elec       q    Type
REMARK                         _______ _______ _______ _____ _____    ______ ____
ROOT
ATOM      1  C   UNL     1      34.419 -24.424 -15.366  0.00  0.00    +0.117 C 
ENDROOT
BRANCH   1   2
ATOM      2  O   UNL     1      34.175 -24.829 -14.014  0.00  0.00    -0.384 OA
ATOM      3  H   UNL     1      34.842 -25.481 -13.747  0.00  0.00    +0.210 HD
ENDBRANCH   1   2
BRANCH   1   4
ATOM      4  C   UNL     1      33.336 -23.401 -15.808  0.00  0.00    +0.027 C 
ATOM      5  C   UNL     1      33.522 -23.068 -17.297  0.00  0.00    +0.002 C 
BRANCH   4   6
ATOM      6  C   UNL     1      31.895 -23.895 -15.527  0.00  0.00    +0.005 C 
BRANCH   6   7
ATOM      7  C   UNL     1      31.045 -23.001 -14.595  0.00  0.00    +0.029 C 
ATOM      8  C   UNL     1      29.669 -22.699 -15.195  0.00  0.00    +0.003 C 
BRANCH   7   9
ATOM      9  C   UNL     1      30.907 -23.656 -13.210  0.00  0.00    +0.137 C 
BRANCH   9  10
ATOM     10  O   UNL     1      31.442 -24.972 -13.184  0.00  0.00    -0.382 OA
ATOM     11  H   UNL     1      31.071 -25.457 -12.430  0.00  0.00    +0.210 HD
ENDBRANCH   9  10
ENDBRANCH   7   9
ENDBRANCH   6   7
ENDBRANCH   4   6
ENDBRANCH   1   4
BRANCH   1  12
ATOM     12  C   UNL     1      35.884 -23.944 -15.480  0.00  0.00    +0.085 C 
ATOM     13  C   UNL     1      36.195 -22.719 -14.626  0.00  0.00    +0.010 C 
BRANCH  12  15
ATOM     14  O   UNL     1      36.715 -26.218 -15.467  0.00  0.00    -0.295 OA
ATOM     15  C   UNL     1      36.840 -25.064 -15.058  0.00  0.00    +0.162 C 
BRANCH  15  16
ATOM     16  C   UNL     1      37.973 -24.673 -14.139  0.00  0.00    +0.147 C 
BRANCH  16  17
ATOM     17  P   UNL     1      37.927 -25.491 -12.531  0.00  0.00    +0.207 P 
ATOM     18  O   UNL     1      37.987 -24.455 -11.438  0.00  0.00    -0.293 OA
ATOM     19  H   UNL     1      38.382 -26.787 -12.403  0.00  0.00    +0.129 HD
BRANCH  17  20
ATOM     20  O   UNL     1      36.448 -26.162 -12.608  0.00  0.00    -0.345 OA
ATOM     21  H   UNL     1      36.504 -27.097 -12.358  0.00  0.00    +0.217 HD
ENDBRANCH  17  20
ENDBRANCH  16  17
ENDBRANCH  15  16
ENDBRANCH  12  15
ENDBRANCH   1  12
TORSDOF 11
ENDMDL
MODEL 8
REMARK VINA RESULT:      -6.6      4.209      7.748
REMARK  Name = 46937177
REMARK  11 active torsions:
REMARK  status: ('A' for Active; 'I' for Inactive)
REMARK    1  A    between atoms: C_1  and  O_2
REMARK    2  A    between atoms: C_1  and  C_4
REMARK    3  A    between atoms: C_1  and  C_12
REMARK    4  A    between atoms: C_4  and  C_6
REMARK    5  A    between atoms: C_6  and  C_7
REMARK    6  A    between atoms: C_7  and  C_9
REMARK    7  A    between atoms: C_9  and  O_10
REMARK    8  A    between atoms: C_12  and  C_15
REMARK    9  A    between atoms: C_15  and  C_16
REMARK   10  A    between atoms: C_16  and  P_17
REMARK   11  A    between atoms: P_17  and  O_20
REMARK                            x       y       z     vdW  Elec       q    Type
REMARK                         _______ _______ _______ _____ _____    ______ ____
ROOT
ATOM      1  C   UNL     1      32.598 -23.274 -14.749  0.00  0.00    +0.117 C 
ENDROOT
BRANCH   1   2
ATOM      2  O   UNL     1      32.668 -23.223 -13.320  0.00  0.00    -0.384 OA
ATOM      3  H   UNL     1      31.909 -23.695 -12.942  0.00  0.00    +0.210 HD
ENDBRANCH   1   2
BRANCH   1   4
ATOM      4  C   UNL     1      33.948 -23.787 -15.321  0.00  0.00    +0.027 C 
ATOM      5  C   UNL     1      34.171 -23.197 -16.721  0.00  0.00    +0.002 C 
BRANCH   4   6
ATOM      6  C   UNL     1      35.148 -23.477 -14.392  0.00  0.00    +0.005 C 
BRANCH   6   7
ATOM      7  C   UNL     1      35.836 -24.702 -13.746  0.00  0.00    +0.029 C 
ATOM      8  C   UNL     1      37.276 -24.872 -14.237  0.00  0.00    +0.003 C 
BRANCH   7   9
ATOM      9  C   UNL     1      35.790 -24.590 -12.212  0.00  0.00    +0.137 C 
BRANCH   9  10
ATOM     10  O   UNL     1      34.875 -23.595 -11.775  0.00  0.00    -0.382 OA
ATOM     11  H   UNL     1      34.880 -23.554 -10.806  0.00  0.00    +0.210 HD
ENDBRANCH   9  10
ENDBRANCH   7   9
ENDBRANCH   6   7
ENDBRANCH   4   6
ENDBRANCH   1   4
BRANCH   1  12
ATOM     12  C   UNL     1      31.345 -24.085 -15.151  0.00  0.00    +0.085 C 
ATOM     13  C   UNL     1      30.575 -24.652 -13.963  0.00  0.00    +0.010 C 
BRANCH  12  15
ATOM     14  O   UNL     1      30.745 -22.593 -16.960  0.00  0.00    -0.295 OA
ATOM     15  C   UNL     1      30.383 -23.207 -15.957  0.00  0.00    +0.162 C 
BRANCH  15  16
ATOM     16  C   UNL     1      28.952 -23.158 -15.477  0.00  0.00    +0.147 C 
BRANCH  16  17
ATOM     17  P   UNL     1      27.778 -22.605 -16.730  0.00  0.00    +0.207 P 
ATOM     18  O   UNL     1      27.513 -23.726 -17.701  0.00  0.00    -0.293 OA
ATOM     19  H   UNL     1      27.680 -21.264 -17.042  0.00  0.00    +0.129 HD
BRANCH  17  20
ATOM     20  O   UNL     1      26.478 -22.340 -15.788  0.00  0.00    -0.345 OA
ATOM     21  H   UNL     1      26.357 -23.090 -15.186  0.00  0.00    +0.217 HD
ENDBRANCH  17  20
ENDBRANCH  16  17
ENDBRANCH  15  16
ENDBRANCH  12  15
ENDBRANCH   1  12
TORSDOF 11
ENDMDL
MODEL 9
REMARK VINA RESULT:      -6.5      3.901      7.412
REMARK  Name = 46937177
REMARK  11 active torsions:
REMARK  status: ('A' for Active; 'I' for Inactive)
REMARK    1  A    between atoms: C_1  and  O_2
REMARK    2  A    between atoms: C_1  and  C_4
REMARK    3  A    between atoms: C_1  and  C_12
REMARK    4  A    between atoms: C_4  and  C_6
REMARK    5  A    between atoms: C_6  and  C_7
REMARK    6  A    between atoms: C_7  and  C_9
REMARK    7  A    between atoms: C_9  and  O_10
REMARK    8  A    between atoms: C_12  and  C_15
REMARK    9  A    between atoms: C_15  and  C_16
REMARK   10  A    between atoms: C_16  and  P_17
REMARK   11  A    between atoms: P_17  and  O_20
REMARK                            x       y       z     vdW  Elec       q    Type
REMARK                         _______ _______ _______ _____ _____    ______ ____
ROOT
ATOM      1  C   UNL     1      33.359 -23.859 -14.367  0.00  0.00    +0.117 C 
ENDROOT
BRANCH   1   2
ATOM      2  O   UNL     1      32.807 -25.117 -13.964  0.00  0.00    -0.384 OA
ATOM      3  H   UNL     1      31.838 -25.055 -13.951  0.00  0.00    +0.210 HD
ENDBRANCH   1   2
BRANCH   1   4
ATOM      4  C   UNL     1      34.777 -24.078 -14.964  0.00  0.00    +0.027 C 
ATOM      5  C   UNL     1      35.418 -22.717 -15.277  0.00  0.00    +0.002 C 
BRANCH   4   6
ATOM      6  C   UNL     1      35.691 -24.922 -14.042  0.00  0.00    +0.005 C 
BRANCH   6   7
ATOM      7  C   UNL     1      37.064 -25.319 -14.632  0.00  0.00    +0.029 C 
ATOM      8  C   UNL     1      38.222 -24.860 -13.743  0.00  0.00    +0.003 C 
BRANCH   7   9
ATOM      9  C   UNL     1      37.121 -26.840 -14.866  0.00  0.00    +0.137 C 
BRANCH   9  10
ATOM     10  O   UNL     1      36.798 -27.188 -16.205  0.00  0.00    -0.382 OA
ATOM     11  H   UNL     1      35.854 -27.401 -16.265  0.00  0.00    +0.210 HD
ENDBRANCH   9  10
ENDBRANCH   7   9
ENDBRANCH   6   7
ENDBRANCH   4   6
ENDBRANCH   1   4
BRANCH   1  12
ATOM     12  C   UNL     1      32.343 -23.148 -15.291  0.00  0.00    +0.085 C 
ATOM     13  C   UNL     1      32.542 -23.456 -16.771  0.00  0.00    +0.010 C 
BRANCH  12  15
ATOM     14  O   UNL     1      30.460 -23.374 -13.787  0.00  0.00    -0.295 OA
ATOM     15  C   UNL     1      30.915 -23.554 -14.915  0.00  0.00    +0.162 C 
BRANCH  15  16
ATOM     16  C   UNL     1      30.075 -24.161 -16.015  0.00  0.00    +0.147 C 
BRANCH  16  17
ATOM     17  P   UNL     1      28.518 -23.298 -16.308  0.00  0.00    +0.207 P 
ATOM     18  O   UNL     1      28.795 -21.969 -16.965  0.00  0.00    -0.293 OA
ATOM     19  H   UNL     1      27.422 -23.561 -15.512  0.00  0.00    +0.129 HD
BRANCH  17  20
ATOM     20  O   UNL     1      27.829 -24.328 -17.361  0.00  0.00    -0.345 OA
ATOM     21  H   UNL     1      28.487 -24.611 -18.015  0.00  0.00    +0.217 HD
ENDBRANCH  17  20
ENDBRANCH  16  17
ENDBRANCH  15  16
ENDBRANCH  12  15
ENDBRANCH   1  12
TORSDOF 11
ENDMDL
