MODEL 1
REMARK VINA RESULT:     -10.8      0.000      0.000
REMARK  Name = 24800833
REMARK  9 active torsions:
REMARK  status: ('A' for Active; 'I' for Inactive)
REMARK    1  A    between atoms: C_1  and  C_20
REMARK    2  A    between atoms: C_6  and  O_7
REMARK    3  A    between atoms: O_7  and  C_8
REMARK    4  A    between atoms: C_8  and  C_10
REMARK    5  A    between atoms: C_20  and  C_21
REMARK    6  A    between atoms: C_21  and  C_31
REMARK    7  A    between atoms: C_22  and  C_26
REMARK    8  A    between atoms: N_25  and  O_28
REMARK    9  A    between atoms: C_31  and  O_32
REMARK                            x       y       z     vdW  Elec       q    Type
REMARK                         _______ _______ _______ _____ _____    ______ ____
ROOT
ATOM      1  C   UNL     1      33.940  -8.735 -23.400  0.00  0.00    -0.021 C 
ATOM      2  C   UNL     1      34.911  -8.988 -24.369  0.00  0.00    -0.001 C 
ATOM      3  C   UNL     1      33.016  -9.724 -23.063  0.00  0.00    -0.001 C 
ATOM      4  C   UNL     1      34.958 -10.231 -25.001  0.00  0.00    +0.037 C 
ATOM      5  C   UNL     1      33.063 -10.967 -23.695  0.00  0.00    +0.037 C 
ATOM      6  C   UNL     1      34.034 -11.220 -24.664  0.00  0.00    +0.139 C 
ENDROOT
BRANCH   6   7
ATOM      7  O   UNL     1      34.079 -12.441 -25.285  0.00  0.00    -0.471 OA
BRANCH   7   8
ATOM      8  C   UNL     1      32.955 -13.292 -25.111  0.00  0.00    +0.232 C 
BRANCH   8  10
ATOM      9  N   UNL     1      34.194 -16.849 -23.082  0.00  0.00    -0.410 NA
ATOM     10  C   UNL     1      33.377 -14.520 -24.369  0.00  0.00    +0.026 C 
ATOM     11  C   UNL     1      33.227 -14.644 -22.981  0.00  0.00    +0.025 C 
ATOM     12  C   UNL     1      33.932 -15.557 -25.105  0.00  0.00    +0.027 C 
ATOM     13  C   UNL     1      33.654 -15.841 -22.370  0.00  0.00    +0.113 C 
ATOM     14  C   UNL     1      34.321 -16.690 -24.420  0.00  0.00    +0.109 C 
ATOM     15  C   UNL     1      32.668 -13.613 -22.207  0.00  0.00    +0.002 C 
ATOM     16  C   UNL     1      33.505 -15.963 -20.991  0.00  0.00    +0.085 C 
ATOM     17  C   UNL     1      32.530 -13.761 -20.829  0.00  0.00    -0.004 C 
ATOM     18  C   UNL     1      34.923 -17.830 -25.170  0.00  0.00    +0.066 C 
ATOM     19  C   UNL     1      32.949 -14.937 -20.221  0.00  0.00    -0.019 C 
ENDBRANCH   8  10
ENDBRANCH   7   8
ENDBRANCH   6   7
BRANCH   1  20
ATOM     20  C   UNL     1      33.891  -7.406 -22.724  0.00  0.00    +0.037 C 
BRANCH  20  21
ATOM     21  C   UNL     1      32.501  -6.833 -22.717  0.00  0.00    +0.102 C 
ATOM     22  C   UNL     1      31.746  -6.940 -21.423  0.00  0.00    +0.089 C 
ATOM     23  C   UNL     1      32.287  -5.613 -21.870  0.00  0.00    +0.021 C 
BRANCH  22  26
ATOM     24  O   UNL     1      33.082  -6.953 -19.505  0.00  0.00    -0.273 OA
ATOM     25  N   UNL     1      32.010  -8.914 -20.116  0.00  0.00    -0.197 N 
ATOM     26  C   UNL     1      32.351  -7.595 -20.251  0.00  0.00    +0.244 C 
ATOM     27  H   UNL     1      31.416  -9.369 -20.755  0.00  0.00    +0.182 HD
BRANCH  25  28
ATOM     28  O   UNL     1      32.561  -9.575 -19.011  0.00  0.00    -0.295 OA
ATOM     29  H   UNL     1      32.043  -9.366 -18.217  0.00  0.00    +0.241 HD
ENDBRANCH  25  28
ENDBRANCH  22  26
BRANCH  21  31
ATOM     30  O   UNL     1      30.760  -7.621 -24.105  0.00  0.00    -0.250 OA
ATOM     31  C   UNL     1      31.751  -6.914 -23.990  0.00  0.00    +0.317 C 
BRANCH  31  32
ATOM     32  O   UNL     1      32.309  -6.125 -24.947  0.00  0.00    -0.444 OA
ATOM     33  C   UNL     1      31.650  -4.875 -25.176  0.00  0.00    +0.256 C 
ENDBRANCH  31  32
ENDBRANCH  21  31
ENDBRANCH  20  21
ENDBRANCH   1  20
TORSDOF 9
ENDMDL
MODEL 2
REMARK VINA RESULT:     -10.7      7.311     11.265
REMARK  Name = 24800833
REMARK  9 active torsions:
REMARK  status: ('A' for Active; 'I' for Inactive)
REMARK    1  A    between atoms: C_1  and  C_20
REMARK    2  A    between atoms: C_6  and  O_7
REMARK    3  A    between atoms: O_7  and  C_8
REMARK    4  A    between atoms: C_8  and  C_10
REMARK    5  A    between atoms: C_20  and  C_21
REMARK    6  A    between atoms: C_21  and  C_31
REMARK    7  A    between atoms: C_22  and  C_26
REMARK    8  A    between atoms: N_25  and  O_28
REMARK    9  A    between atoms: C_31  and  O_32
REMARK                            x       y       z     vdW  Elec       q    Type
REMARK                         _______ _______ _______ _____ _____    ______ ____
ROOT
ATOM      1  C   UNL     1      33.941 -19.609 -20.986  0.00  0.00    -0.021 C 
ATOM      2  C   UNL     1      32.914 -20.282 -20.324  0.00  0.00    -0.001 C 
ATOM      3  C   UNL     1      35.269 -19.978 -20.773  0.00  0.00    -0.001 C 
ATOM      4  C   UNL     1      33.216 -21.325 -19.448  0.00  0.00    +0.037 C 
ATOM      5  C   UNL     1      35.571 -21.021 -19.898  0.00  0.00    +0.037 C 
ATOM      6  C   UNL     1      34.545 -21.694 -19.235  0.00  0.00    +0.139 C 
ENDROOT
BRANCH   6   7
ATOM      7  O   UNL     1      34.841 -22.719 -18.374  0.00  0.00    -0.471 OA
BRANCH   7   8
ATOM      8  C   UNL     1      33.772 -23.578 -18.007  0.00  0.00    +0.232 C 
BRANCH   8  10
ATOM      9  N   UNL     1      33.586 -23.745 -13.736  0.00  0.00    -0.410 NA
ATOM     10  C   UNL     1      33.670 -23.628 -16.515  0.00  0.00    +0.026 C 
ATOM     11  C   UNL     1      32.461 -23.413 -15.841  0.00  0.00    +0.025 C 
ATOM     12  C   UNL     1      34.828 -23.901 -15.800  0.00  0.00    +0.027 C 
ATOM     13  C   UNL     1      32.464 -23.481 -14.432  0.00  0.00    +0.113 C 
ATOM     14  C   UNL     1      34.732 -23.947 -14.425  0.00  0.00    +0.109 C 
ATOM     15  C   UNL     1      31.270 -23.136 -16.535  0.00  0.00    +0.002 C 
ATOM     16  C   UNL     1      31.261 -23.267 -13.763  0.00  0.00    +0.085 C 
ATOM     17  C   UNL     1      30.082 -22.926 -15.840  0.00  0.00    -0.004 C 
ATOM     18  C   UNL     1      35.952 -24.236 -13.615  0.00  0.00    +0.066 C 
ATOM     19  C   UNL     1      30.078 -22.992 -14.453  0.00  0.00    -0.019 C 
ENDBRANCH   8  10
ENDBRANCH   7   8
ENDBRANCH   6   7
BRANCH   1  20
ATOM     20  C   UNL     1      33.618 -18.494 -21.923  0.00  0.00    +0.037 C 
BRANCH  20  21
ATOM     21  C   UNL     1      34.834 -18.016 -22.666  0.00  0.00    +0.102 C 
ATOM     22  C   UNL     1      35.359 -16.663 -22.282  0.00  0.00    +0.089 C 
ATOM     23  C   UNL     1      36.100 -17.901 -21.869  0.00  0.00    +0.021 C 
BRANCH  22  26
ATOM     24  O   UNL     1      34.988 -16.008 -20.069  0.00  0.00    -0.273 OA
ATOM     25  N   UNL     1      33.748 -14.993 -21.742  0.00  0.00    -0.197 N 
ATOM     26  C   UNL     1      34.684 -15.861 -21.247  0.00  0.00    +0.244 C 
ATOM     27  H   UNL     1      33.554 -14.925 -22.704  0.00  0.00    +0.182 HD
BRANCH  25  28
ATOM     28  O   UNL     1      33.085 -14.206 -20.791  0.00  0.00    -0.295 OA
ATOM     29  H   UNL     1      33.415 -13.296 -20.838  0.00  0.00    +0.241 HD
ENDBRANCH  25  28
ENDBRANCH  22  26
BRANCH  21  31
ATOM     30  O   UNL     1      34.926 -19.641 -24.377  0.00  0.00    -0.250 OA
ATOM     31  C   UNL     1      34.958 -18.458 -24.073  0.00  0.00    +0.317 C 
BRANCH  31  32
ATOM     32  O   UNL     1      35.106 -17.400 -24.916  0.00  0.00    -0.444 OA
ATOM     33  C   UNL     1      33.888 -16.806 -25.378  0.00  0.00    +0.256 C 
ENDBRANCH  31  32
ENDBRANCH  21  31
ENDBRANCH  20  21
ENDBRANCH   1  20
TORSDOF 9
ENDMDL
MODEL 3
REMARK VINA RESULT:     -10.5      8.156     13.055
REMARK  Name = 24800833
REMARK  9 active torsions:
REMARK  status: ('A' for Active; 'I' for Inactive)
REMARK    1  A    between atoms: C_1  and  C_20
REMARK    2  A    between atoms: C_6  and  O_7
REMARK    3  A    between atoms: O_7  and  C_8
REMARK    4  A    between atoms: C_8  and  C_10
REMARK    5  A    between atoms: C_20  and  C_21
REMARK    6  A    between atoms: C_21  and  C_31
REMARK    7  A    between atoms: C_22  and  C_26
REMARK    8  A    between atoms: N_25  and  O_28
REMARK    9  A    between atoms: C_31  and  O_32
REMARK                            x       y       z     vdW  Elec       q    Type
REMARK                         _______ _______ _______ _____ _____    ______ ____
ROOT
ATOM      1  C   UNL     1      34.359 -22.690 -18.177  0.00  0.00    -0.021 C 
ATOM      2  C   UNL     1      33.469 -21.984 -18.986  0.00  0.00    -0.001 C 
ATOM      3  C   UNL     1      35.715 -22.365 -18.181  0.00  0.00    -0.001 C 
ATOM      4  C   UNL     1      33.936 -20.952 -19.801  0.00  0.00    +0.037 C 
ATOM      5  C   UNL     1      36.182 -21.333 -18.996  0.00  0.00    +0.037 C 
ATOM      6  C   UNL     1      35.293 -20.627 -19.805  0.00  0.00    +0.139 C 
ENDROOT
BRANCH   6   7
ATOM      7  O   UNL     1      35.752 -19.614 -20.606  0.00  0.00    -0.471 OA
BRANCH   7   8
ATOM      8  C   UNL     1      34.920 -18.470 -20.734  0.00  0.00    +0.232 C 
BRANCH   8  10
ATOM      9  N   UNL     1      34.439 -17.646 -24.904  0.00  0.00    -0.410 NA
ATOM     10  C   UNL     1      34.747 -18.145 -22.184  0.00  0.00    +0.026 C 
ATOM     11  C   UNL     1      34.545 -16.835 -22.638  0.00  0.00    +0.025 C 
ATOM     12  C   UNL     1      34.795 -19.197 -23.088  0.00  0.00    +0.027 C 
ATOM     13  C   UNL     1      34.394 -16.628 -24.024  0.00  0.00    +0.113 C 
ATOM     14  C   UNL     1      34.637 -18.896 -24.425  0.00  0.00    +0.109 C 
ATOM     15  C   UNL     1      34.492 -15.748 -21.749  0.00  0.00    +0.002 C 
ATOM     16  C   UNL     1      34.193 -15.325 -24.475  0.00  0.00    +0.085 C 
ATOM     17  C   UNL     1      34.290 -14.456 -22.226  0.00  0.00    -0.004 C 
ATOM     18  C   UNL     1      34.680 -19.994 -25.434  0.00  0.00    +0.066 C 
ATOM     19  C   UNL     1      34.140 -14.245 -23.590  0.00  0.00    -0.019 C 
ENDBRANCH   8  10
ENDBRANCH   7   8
ENDBRANCH   6   7
BRANCH   1  20
ATOM     20  C   UNL     1      33.859 -23.793 -17.306  0.00  0.00    +0.037 C 
BRANCH  20  21
ATOM     21  C   UNL     1      33.662 -23.340 -15.886  0.00  0.00    +0.102 C 
ATOM     22  C   UNL     1      34.650 -23.859 -14.881  0.00  0.00    +0.089 C 
ATOM     23  C   UNL     1      34.713 -22.427 -15.326  0.00  0.00    +0.021 C 
BRANCH  22  26
ATOM     24  O   UNL     1      36.809 -24.327 -15.644  0.00  0.00    -0.273 OA
ATOM     25  N   UNL     1      35.380 -26.101 -15.220  0.00  0.00    -0.197 N 
ATOM     26  C   UNL     1      35.726 -24.778 -15.289  0.00  0.00    +0.244 C 
ATOM     27  H   UNL     1      34.489 -26.394 -14.925  0.00  0.00    +0.182 HD
BRANCH  25  28
ATOM     28  O   UNL     1      36.378 -27.011 -15.596  0.00  0.00    -0.295 OA
ATOM     29  H   UNL     1      37.173 -26.858 -15.063  0.00  0.00    +0.241 HD
ENDBRANCH  25  28
ENDBRANCH  22  26
BRANCH  21  31
ATOM     30  O   UNL     1      32.004 -22.587 -14.383  0.00  0.00    -0.250 OA
ATOM     31  C   UNL     1      32.265 -23.106 -15.459  0.00  0.00    +0.317 C 
BRANCH  31  32
ATOM     32  O   UNL     1      31.379 -23.534 -16.398  0.00  0.00    -0.444 OA
ATOM     33  C   UNL     1      30.103 -22.884 -16.381  0.00  0.00    +0.256 C 
ENDBRANCH  31  32
ENDBRANCH  21  31
ENDBRANCH  20  21
ENDBRANCH   1  20
TORSDOF 9
ENDMDL
MODEL 4
REMARK VINA RESULT:     -10.5      7.888     11.850
REMARK  Name = 24800833
REMARK  9 active torsions:
REMARK  status: ('A' for Active; 'I' for Inactive)
REMARK    1  A    between atoms: C_1  and  C_20
REMARK    2  A    between atoms: C_6  and  O_7
REMARK    3  A    between atoms: O_7  and  C_8
REMARK    4  A    between atoms: C_8  and  C_10
REMARK    5  A    between atoms: C_20  and  C_21
REMARK    6  A    between atoms: C_21  and  C_31
REMARK    7  A    between atoms: C_22  and  C_26
REMARK    8  A    between atoms: N_25  and  O_28
REMARK    9  A    between atoms: C_31  and  O_32
REMARK                            x       y       z     vdW  Elec       q    Type
REMARK                         _______ _______ _______ _____ _____    ______ ____
ROOT
ATOM      1  C   UNL     1      34.061 -19.841 -20.798  0.00  0.00    -0.021 C 
ATOM      2  C   UNL     1      33.074 -20.554 -20.117  0.00  0.00    -0.001 C 
ATOM      3  C   UNL     1      35.407 -20.144 -20.592  0.00  0.00    -0.001 C 
ATOM      4  C   UNL     1      33.434 -21.569 -19.230  0.00  0.00    +0.037 C 
ATOM      5  C   UNL     1      35.767 -21.159 -19.705  0.00  0.00    +0.037 C 
ATOM      6  C   UNL     1      34.780 -21.871 -19.024  0.00  0.00    +0.139 C 
ENDROOT
BRANCH   6   7
ATOM      7  O   UNL     1      35.133 -22.868 -18.152  0.00  0.00    -0.471 OA
BRANCH   7   8
ATOM      8  C   UNL     1      35.916 -22.490 -17.029  0.00  0.00    +0.232 C 
BRANCH   8  10
ATOM      9  N   UNL     1      34.272 -24.365 -13.552  0.00  0.00    -0.410 NA
ATOM     10  C   UNL     1      35.376 -23.159 -15.804  0.00  0.00    +0.026 C 
ATOM     11  C   UNL     1      36.196 -23.864 -14.914  0.00  0.00    +0.025 C 
ATOM     12  C   UNL     1      34.012 -23.059 -15.566  0.00  0.00    +0.027 C 
ATOM     13  C   UNL     1      35.595 -24.460 -13.786  0.00  0.00    +0.113 C 
ATOM     14  C   UNL     1      33.515 -23.675 -14.436  0.00  0.00    +0.109 C 
ATOM     15  C   UNL     1      37.580 -23.983 -15.126  0.00  0.00    +0.002 C 
ATOM     16  C   UNL     1      36.411 -25.161 -12.902  0.00  0.00    +0.085 C 
ATOM     17  C   UNL     1      38.373 -24.690 -14.226  0.00  0.00    -0.004 C 
ATOM     18  C   UNL     1      32.055 -23.595 -14.140  0.00  0.00    +0.066 C 
ATOM     19  C   UNL     1      37.787 -25.280 -13.113  0.00  0.00    -0.019 C 
ENDBRANCH   8  10
ENDBRANCH   7   8
ENDBRANCH   6   7
BRANCH   1  20
ATOM     20  C   UNL     1      33.676 -18.756 -21.746  0.00  0.00    +0.037 C 
BRANCH  20  21
ATOM     21  C   UNL     1      34.860 -18.243 -22.519  0.00  0.00    +0.102 C 
ATOM     22  C   UNL     1      35.329 -16.860 -22.175  0.00  0.00    +0.089 C 
ATOM     23  C   UNL     1      36.131 -18.053 -21.746  0.00  0.00    +0.021 C 
BRANCH  22  26
ATOM     24  O   UNL     1      35.003 -16.122 -19.981  0.00  0.00    -0.273 OA
ATOM     25  N   UNL     1      33.604 -15.306 -21.638  0.00  0.00    -0.197 N 
ATOM     26  C   UNL     1      34.634 -16.064 -21.148  0.00  0.00    +0.244 C 
ATOM     27  H   UNL     1      33.361 -15.307 -22.591  0.00  0.00    +0.182 HD
BRANCH  25  28
ATOM     28  O   UNL     1      32.919 -14.530 -20.694  0.00  0.00    -0.295 OA
ATOM     29  H   UNL     1      32.111 -14.171 -21.095  0.00  0.00    +0.241 HD
ENDBRANCH  25  28
ENDBRANCH  22  26
BRANCH  21  31
ATOM     30  O   UNL     1      34.934 -19.900 -24.201  0.00  0.00    -0.250 OA
ATOM     31  C   UNL     1      34.983 -18.712 -23.918  0.00  0.00    +0.317 C 
BRANCH  31  32
ATOM     32  O   UNL     1      35.149 -17.672 -24.778  0.00  0.00    -0.444 OA
ATOM     33  C   UNL     1      33.958 -17.215 -25.429  0.00  0.00    +0.256 C 
ENDBRANCH  31  32
ENDBRANCH  21  31
ENDBRANCH  20  21
ENDBRANCH   1  20
TORSDOF 9
ENDMDL
MODEL 5
REMARK VINA RESULT:     -10.5      0.645      2.495
REMARK  Name = 24800833
REMARK  9 active torsions:
REMARK  status: ('A' for Active; 'I' for Inactive)
REMARK    1  A    between atoms: C_1  and  C_20
REMARK    2  A    between atoms: C_6  and  O_7
REMARK    3  A    between atoms: O_7  and  C_8
REMARK    4  A    between atoms: C_8  and  C_10
REMARK    5  A    between atoms: C_20  and  C_21
REMARK    6  A    between atoms: C_21  and  C_31
REMARK    7  A    between atoms: C_22  and  C_26
REMARK    8  A    between atoms: N_25  and  O_28
REMARK    9  A    between atoms: C_31  and  O_32
REMARK                            x       y       z     vdW  Elec       q    Type
REMARK                         _______ _______ _______ _____ _____    ______ ____
ROOT
ATOM      1  C   UNL     1      33.843  -8.769 -23.329  0.00  0.00    -0.021 C 
ATOM      2  C   UNL     1      32.903  -9.726 -22.947  0.00  0.00    -0.001 C 
ATOM      3  C   UNL     1      34.830  -9.093 -24.259  0.00  0.00    -0.001 C 
ATOM      4  C   UNL     1      32.950 -11.008 -23.497  0.00  0.00    +0.037 C 
ATOM      5  C   UNL     1      34.877 -10.374 -24.809  0.00  0.00    +0.037 C 
ATOM      6  C   UNL     1      33.937 -11.331 -24.427  0.00  0.00    +0.139 C 
ENDROOT
BRANCH   6   7
ATOM      7  O   UNL     1      33.984 -12.591 -24.967  0.00  0.00    -0.471 OA
BRANCH   7   8
ATOM      8  C   UNL     1      32.854 -13.423 -24.751  0.00  0.00    +0.232 C 
BRANCH   8  10
ATOM      9  N   UNL     1      33.682 -16.131 -21.544  0.00  0.00    -0.410 NA
ATOM     10  C   UNL     1      33.159 -14.394 -23.655  0.00  0.00    +0.026 C 
ATOM     11  C   UNL     1      33.807 -15.613 -23.894  0.00  0.00    +0.025 C 
ATOM     12  C   UNL     1      32.776 -14.049 -22.366  0.00  0.00    +0.027 C 
ATOM     13  C   UNL     1      34.052 -16.463 -22.796  0.00  0.00    +0.113 C 
ATOM     14  C   UNL     1      33.059 -14.945 -21.355  0.00  0.00    +0.109 C 
ATOM     15  C   UNL     1      34.208 -15.992 -25.187  0.00  0.00    +0.002 C 
ATOM     16  C   UNL     1      34.697 -17.674 -23.035  0.00  0.00    +0.085 C 
ATOM     17  C   UNL     1      34.851 -17.209 -25.397  0.00  0.00    -0.004 C 
ATOM     18  C   UNL     1      32.666 -14.617 -19.954  0.00  0.00    +0.066 C 
ATOM     19  C   UNL     1      35.095 -18.050 -24.320  0.00  0.00    -0.019 C 
ENDBRANCH   8  10
ENDBRANCH   7   8
ENDBRANCH   6   7
BRANCH   1  20
ATOM     20  C   UNL     1      33.792  -7.399 -22.741  0.00  0.00    +0.037 C 
BRANCH  20  21
ATOM     21  C   UNL     1      32.390  -6.857 -22.705  0.00  0.00    +0.102 C 
ATOM     22  C   UNL     1      31.672  -6.961 -21.390  0.00  0.00    +0.089 C 
ATOM     23  C   UNL     1      32.171  -5.629 -21.871  0.00  0.00    +0.021 C 
BRANCH  22  26
ATOM     24  O   UNL     1      33.058  -6.916 -19.509  0.00  0.00    -0.273 OA
ATOM     25  N   UNL     1      32.013  -8.908 -20.061  0.00  0.00    -0.197 N 
ATOM     26  C   UNL     1      32.322  -7.585 -20.225  0.00  0.00    +0.244 C 
ATOM     27  H   UNL     1      31.412  -9.386 -20.677  0.00  0.00    +0.182 HD
BRANCH  25  28
ATOM     28  O   UNL     1      32.608  -9.540 -18.961  0.00  0.00    -0.295 OA
ATOM     29  H   UNL     1      33.187 -10.253 -19.272  0.00  0.00    +0.241 HD
ENDBRANCH  25  28
ENDBRANCH  22  26
BRANCH  21  31
ATOM     30  O   UNL     1      30.598  -7.658 -24.018  0.00  0.00    -0.250 OA
ATOM     31  C   UNL     1      31.609  -6.974 -23.956  0.00  0.00    +0.317 C 
BRANCH  31  32
ATOM     32  O   UNL     1      32.165  -6.243 -24.960  0.00  0.00    -0.444 OA
ATOM     33  C   UNL     1      31.604  -4.940 -25.156  0.00  0.00    +0.256 C 
ENDBRANCH  31  32
ENDBRANCH  21  31
ENDBRANCH  20  21
ENDBRANCH   1  20
TORSDOF 9
ENDMDL
MODEL 6
REMARK VINA RESULT:     -10.4      3.752      9.269
REMARK  Name = 24800833
REMARK  9 active torsions:
REMARK  status: ('A' for Active; 'I' for Inactive)
REMARK    1  A    between atoms: C_1  and  C_20
REMARK    2  A    between atoms: C_6  and  O_7
REMARK    3  A    between atoms: O_7  and  C_8
REMARK    4  A    between atoms: C_8  and  C_10
REMARK    5  A    between atoms: C_20  and  C_21
REMARK    6  A    between atoms: C_21  and  C_31
REMARK    7  A    between atoms: C_22  and  C_26
REMARK    8  A    between atoms: N_25  and  O_28
REMARK    9  A    between atoms: C_31  and  O_32
REMARK                            x       y       z     vdW  Elec       q    Type
REMARK                         _______ _______ _______ _____ _____    ______ ____
ROOT
ATOM      1  C   UNL     1      34.471 -16.266 -21.358  0.00  0.00    -0.021 C 
ATOM      2  C   UNL     1      34.855 -15.089 -22.000  0.00  0.00    -0.001 C 
ATOM      3  C   UNL     1      33.230 -16.343 -20.726  0.00  0.00    -0.001 C 
ATOM      4  C   UNL     1      33.998 -13.988 -22.010  0.00  0.00    +0.037 C 
ATOM      5  C   UNL     1      32.372 -15.242 -20.737  0.00  0.00    +0.037 C 
ATOM      6  C   UNL     1      32.756 -14.065 -21.378  0.00  0.00    +0.139 C 
ENDROOT
BRANCH   6   7
ATOM      7  O   UNL     1      31.914 -12.984 -21.388  0.00  0.00    -0.471 OA
BRANCH   7   8
ATOM      8  C   UNL     1      31.686 -12.359 -22.643  0.00  0.00    +0.232 C 
BRANCH   8  10
ATOM      9  N   UNL     1      33.400  -8.441 -22.542  0.00  0.00    -0.410 NA
ATOM     10  C   UNL     1      32.307 -10.998 -22.637  0.00  0.00    +0.026 C 
ATOM     11  C   UNL     1      33.293 -10.623 -23.559  0.00  0.00    +0.025 C 
ATOM     12  C   UNL     1      31.872 -10.097 -21.675  0.00  0.00    +0.027 C 
ATOM     13  C   UNL     1      33.820  -9.317 -23.474  0.00  0.00    +0.113 C 
ATOM     14  C   UNL     1      32.445  -8.843 -21.671  0.00  0.00    +0.109 C 
ATOM     15  C   UNL     1      33.756 -11.511 -24.545  0.00  0.00    +0.002 C 
ATOM     16  C   UNL     1      34.800  -8.945 -24.391  0.00  0.00    +0.085 C 
ATOM     17  C   UNL     1      34.737 -11.113 -25.449  0.00  0.00    -0.004 C 
ATOM     18  C   UNL     1      32.010  -7.841 -20.655  0.00  0.00    +0.066 C 
ATOM     19  C   UNL     1      35.259  -9.829 -25.371  0.00  0.00    -0.019 C 
ENDBRANCH   8  10
ENDBRANCH   7   8
ENDBRANCH   6   7
BRANCH   1  20
ATOM     20  C   UNL     1      35.388 -17.442 -21.348  0.00  0.00    +0.037 C 
BRANCH  20  21
ATOM     21  C   UNL     1      34.804 -18.613 -22.088  0.00  0.00    +0.102 C 
ATOM     22  C   UNL     1      35.200 -19.975 -21.595  0.00  0.00    +0.089 C 
ATOM     23  C   UNL     1      33.817 -19.455 -21.334  0.00  0.00    +0.021 C 
BRANCH  22  26
ATOM     24  O   UNL     1      37.235 -19.598 -20.508  0.00  0.00    -0.273 OA
ATOM     25  N   UNL     1      35.626 -20.867 -19.428  0.00  0.00    -0.197 N 
ATOM     26  C   UNL     1      36.129 -20.123 -20.462  0.00  0.00    +0.244 C 
ATOM     27  H   UNL     1      34.725 -21.262 -19.457  0.00  0.00    +0.182 HD
BRANCH  25  28
ATOM     28  O   UNL     1      36.476 -21.031 -18.326  0.00  0.00    -0.295 OA
ATOM     29  H   UNL     1      37.360 -21.286 -18.635  0.00  0.00    +0.241 HD
ENDBRANCH  25  28
ENDBRANCH  22  26
BRANCH  21  31
ATOM     30  O   UNL     1      33.734 -19.087 -24.140  0.00  0.00    -0.250 OA
ATOM     31  C   UNL     1      34.562 -18.420 -23.535  0.00  0.00    +0.317 C 
BRANCH  31  32
ATOM     32  O   UNL     1      35.359 -17.445 -24.048  0.00  0.00    -0.444 OA
ATOM     33  C   UNL     1      34.841 -16.769 -25.199  0.00  0.00    +0.256 C 
ENDBRANCH  31  32
ENDBRANCH  21  31
ENDBRANCH  20  21
ENDBRANCH   1  20
TORSDOF 9
ENDMDL
MODEL 7
REMARK VINA RESULT:     -10.3      8.333     13.445
REMARK  Name = 24800833
REMARK  9 active torsions:
REMARK  status: ('A' for Active; 'I' for Inactive)
REMARK    1  A    between atoms: C_1  and  C_20
REMARK    2  A    between atoms: C_6  and  O_7
REMARK    3  A    between atoms: O_7  and  C_8
REMARK    4  A    between atoms: C_8  and  C_10
REMARK    5  A    between atoms: C_20  and  C_21
REMARK    6  A    between atoms: C_21  and  C_31
REMARK    7  A    between atoms: C_22  and  C_26
REMARK    8  A    between atoms: N_25  and  O_28
REMARK    9  A    between atoms: C_31  and  O_32
REMARK                            x       y       z     vdW  Elec       q    Type
REMARK                         _______ _______ _______ _____ _____    ______ ____
ROOT
ATOM      1  C   UNL     1      33.907 -22.894 -18.018  0.00  0.00    -0.021 C 
ATOM      2  C   UNL     1      32.716 -22.283 -18.411  0.00  0.00    -0.001 C 
ATOM      3  C   UNL     1      35.122 -22.458 -18.546  0.00  0.00    -0.001 C 
ATOM      4  C   UNL     1      32.741 -21.236 -19.333  0.00  0.00    +0.037 C 
ATOM      5  C   UNL     1      35.147 -21.411 -19.468  0.00  0.00    +0.037 C 
ATOM      6  C   UNL     1      33.956 -20.800 -19.861  0.00  0.00    +0.139 C 
ENDROOT
BRANCH   6   7
ATOM      7  O   UNL     1      33.980 -19.772 -20.767  0.00  0.00    -0.471 OA
BRANCH   7   8
ATOM      8  C   UNL     1      35.191 -19.036 -20.871  0.00  0.00    +0.232 C 
BRANCH   8  10
ATOM      9  N   UNL     1      34.414 -15.256 -22.716  0.00  0.00    -0.410 NA
ATOM     10  C   UNL     1      34.918 -17.731 -21.550  0.00  0.00    +0.026 C 
ATOM     11  C   UNL     1      34.733 -17.634 -22.935  0.00  0.00    +0.025 C 
ATOM     12  C   UNL     1      34.850 -16.595 -20.755  0.00  0.00    +0.027 C 
ATOM     13  C   UNL     1      34.480 -16.360 -23.484  0.00  0.00    +0.113 C 
ATOM     14  C   UNL     1      34.598 -15.393 -21.383  0.00  0.00    +0.109 C 
ATOM     15  C   UNL     1      34.795 -18.765 -23.767  0.00  0.00    +0.002 C 
ATOM     16  C   UNL     1      34.297 -16.264 -24.861  0.00  0.00    +0.085 C 
ATOM     17  C   UNL     1      34.608 -18.640 -25.141  0.00  0.00    -0.004 C 
ATOM     18  C   UNL     1      34.516 -14.144 -20.570  0.00  0.00    +0.066 C 
ATOM     19  C   UNL     1      34.359 -17.389 -25.688  0.00  0.00    -0.019 C 
ENDBRANCH   8  10
ENDBRANCH   7   8
ENDBRANCH   6   7
BRANCH   1  20
ATOM     20  C   UNL     1      33.880 -24.013 -17.032  0.00  0.00    +0.037 C 
BRANCH  20  21
ATOM     21  C   UNL     1      33.765 -23.512 -15.619  0.00  0.00    +0.102 C 
ATOM     22  C   UNL     1      34.819 -23.984 -14.659  0.00  0.00    +0.089 C 
ATOM     23  C   UNL     1      34.837 -22.568 -15.157  0.00  0.00    +0.021 C 
BRANCH  22  26
ATOM     24  O   UNL     1      36.951 -24.457 -15.492  0.00  0.00    -0.273 OA
ATOM     25  N   UNL     1      35.535 -26.228 -15.017  0.00  0.00    -0.197 N 
ATOM     26  C   UNL     1      35.880 -24.905 -15.101  0.00  0.00    +0.244 C 
ATOM     27  H   UNL     1      34.653 -26.519 -14.692  0.00  0.00    +0.182 HD
BRANCH  25  28
ATOM     28  O   UNL     1      36.518 -27.140 -15.424  0.00  0.00    -0.295 OA
ATOM     29  H   UNL     1      37.028 -27.432 -14.652  0.00  0.00    +0.241 HD
ENDBRANCH  25  28
ENDBRANCH  22  26
BRANCH  21  31
ATOM     30  O   UNL     1      32.147 -22.374 -14.329  0.00  0.00    -0.250 OA
ATOM     31  C   UNL     1      32.394 -23.277 -15.116  0.00  0.00    +0.317 C 
BRANCH  31  32
ATOM     32  O   UNL     1      31.512 -24.172 -15.636  0.00  0.00    -0.444 OA
ATOM     33  C   UNL     1      30.145 -23.748 -15.657  0.00  0.00    +0.256 C 
ENDBRANCH  31  32
ENDBRANCH  21  31
ENDBRANCH  20  21
ENDBRANCH   1  20
TORSDOF 9
ENDMDL
MODEL 8
REMARK VINA RESULT:     -10.2      3.877      9.111
REMARK  Name = 24800833
REMARK  9 active torsions:
REMARK  status: ('A' for Active; 'I' for Inactive)
REMARK    1  A    between atoms: C_1  and  C_20
REMARK    2  A    between atoms: C_6  and  O_7
REMARK    3  A    between atoms: O_7  and  C_8
REMARK    4  A    between atoms: C_8  and  C_10
REMARK    5  A    between atoms: C_20  and  C_21
REMARK    6  A    between atoms: C_21  and  C_31
REMARK    7  A    between atoms: C_22  and  C_26
REMARK    8  A    between atoms: N_25  and  O_28
REMARK    9  A    between atoms: C_31  and  O_32
REMARK                            x       y       z     vdW  Elec       q    Type
REMARK                         _______ _______ _______ _____ _____    ______ ____
ROOT
ATOM      1  C   UNL     1      34.346 -16.430 -21.198  0.00  0.00    -0.021 C 
ATOM      2  C   UNL     1      34.934 -15.493 -22.047  0.00  0.00    -0.001 C 
ATOM      3  C   UNL     1      33.123 -16.149 -20.589  0.00  0.00    -0.001 C 
ATOM      4  C   UNL     1      34.298 -14.274 -22.287  0.00  0.00    +0.037 C 
ATOM      5  C   UNL     1      32.487 -14.931 -20.829  0.00  0.00    +0.037 C 
ATOM      6  C   UNL     1      33.075 -13.994 -21.678  0.00  0.00    +0.139 C 
ENDROOT
BRANCH   6   7
ATOM      7  O   UNL     1      32.451 -12.796 -21.914  0.00  0.00    -0.471 OA
BRANCH   7   8
ATOM      8  C   UNL     1      32.225 -12.446 -23.272  0.00  0.00    +0.232 C 
BRANCH   8  10
ATOM      9  N   UNL     1      34.671  -9.103 -24.344  0.00  0.00    -0.410 NA
ATOM     10  C   UNL     1      33.063 -11.257 -23.620  0.00  0.00    +0.026 C 
ATOM     11  C   UNL     1      32.943 -10.034 -22.946  0.00  0.00    +0.025 C 
ATOM     12  C   UNL     1      33.983 -11.398 -24.650  0.00  0.00    +0.027 C 
ATOM     13  C   UNL     1      33.777  -8.970 -23.346  0.00  0.00    +0.113 C 
ATOM     14  C   UNL     1      34.756 -10.300 -24.970  0.00  0.00    +0.109 C 
ATOM     15  C   UNL     1      32.022  -9.859 -21.900  0.00  0.00    +0.002 C 
ATOM     16  C   UNL     1      33.657  -7.755 -22.675  0.00  0.00    +0.085 C 
ATOM     17  C   UNL     1      31.923  -8.634 -21.246  0.00  0.00    -0.004 C 
ATOM     18  C   UNL     1      35.758 -10.405 -26.070  0.00  0.00    +0.066 C 
ATOM     19  C   UNL     1      32.741  -7.581 -21.634  0.00  0.00    -0.019 C 
ENDBRANCH   8  10
ENDBRANCH   7   8
ENDBRANCH   6   7
BRANCH   1  20
ATOM     20  C   UNL     1      35.026 -17.732 -20.942  0.00  0.00    +0.037 C 
BRANCH  20  21
ATOM     21  C   UNL     1      34.708 -18.748 -22.004  0.00  0.00    +0.102 C 
ATOM     22  C   UNL     1      34.672 -20.182 -21.561  0.00  0.00    +0.089 C 
ATOM     23  C   UNL     1      33.393 -19.460 -21.873  0.00  0.00    +0.021 C 
BRANCH  22  26
ATOM     24  O   UNL     1      34.037 -20.826 -19.405  0.00  0.00    -0.273 OA
ATOM     25  N   UNL     1      36.291 -20.532 -19.850  0.00  0.00    -0.197 N 
ATOM     26  C   UNL     1      34.959 -20.545 -20.162  0.00  0.00    +0.244 C 
ATOM     27  H   UNL     1      36.982 -20.296 -20.510  0.00  0.00    +0.182 HD
BRANCH  25  28
ATOM     28  O   UNL     1      36.610 -20.876 -18.529  0.00  0.00    -0.295 OA
ATOM     29  H   UNL     1      37.445 -21.370 -18.516  0.00  0.00    +0.241 HD
ENDBRANCH  25  28
ENDBRANCH  22  26
BRANCH  21  31
ATOM     30  O   UNL     1      36.364 -18.326 -23.633  0.00  0.00    -0.250 OA
ATOM     31  C   UNL     1      35.174 -18.435 -23.372  0.00  0.00    +0.317 C 
BRANCH  31  32
ATOM     32  O   UNL     1      34.132 -18.296 -24.234  0.00  0.00    -0.444 OA
ATOM     33  C   UNL     1      34.258 -17.234 -25.186  0.00  0.00    +0.256 C 
ENDBRANCH  31  32
ENDBRANCH  21  31
ENDBRANCH  20  21
ENDBRANCH   1  20
TORSDOF 9
ENDMDL
MODEL 9
REMARK VINA RESULT:     -10.1      1.513      3.029
REMARK  Name = 24800833
REMARK  9 active torsions:
REMARK  status: ('A' for Active; 'I' for Inactive)
REMARK    1  A    between atoms: C_1  and  C_20
REMARK    2  A    between atoms: C_6  and  O_7
REMARK    3  A    between atoms: O_7  and  C_8
REMARK    4  A    between atoms: C_8  and  C_10
REMARK    5  A    between atoms: C_20  and  C_21
REMARK    6  A    between atoms: C_21  and  C_31
REMARK    7  A    between atoms: C_22  and  C_26
REMARK    8  A    between atoms: N_25  and  O_28
REMARK    9  A    between atoms: C_31  and  O_32
REMARK                            x       y       z     vdW  Elec       q    Type
REMARK                         _______ _______ _______ _____ _____    ______ ____
ROOT
ATOM      1  C   UNL     1      33.533  -8.343 -23.409  0.00  0.00    -0.021 C 
ATOM      2  C   UNL     1      34.772  -8.648 -23.972  0.00  0.00    -0.001 C 
ATOM      3  C   UNL     1      32.526  -9.308 -23.372  0.00  0.00    -0.001 C 
ATOM      4  C   UNL     1      35.005  -9.919 -24.498  0.00  0.00    +0.037 C 
ATOM      5  C   UNL     1      32.759 -10.579 -23.898  0.00  0.00    +0.037 C 
ATOM      6  C   UNL     1      33.998 -10.884 -24.461  0.00  0.00    +0.139 C 
ENDROOT
BRANCH   6   7
ATOM      7  O   UNL     1      34.227 -12.133 -24.979  0.00  0.00    -0.471 OA
BRANCH   7   8
ATOM      8  C   UNL     1      33.114 -13.014 -25.044  0.00  0.00    +0.232 C 
BRANCH   8  10
ATOM      9  N   UNL     1      34.101 -16.686 -23.084  0.00  0.00    -0.410 NA
ATOM     10  C   UNL     1      33.448 -14.283 -24.326  0.00  0.00    +0.026 C 
ATOM     11  C   UNL     1      33.229 -14.444 -22.951  0.00  0.00    +0.025 C 
ATOM     12  C   UNL     1      33.989 -15.321 -25.072  0.00  0.00    +0.027 C 
ATOM     13  C   UNL     1      33.575 -15.678 -22.363  0.00  0.00    +0.113 C 
ATOM     14  C   UNL     1      34.295 -16.491 -24.409  0.00  0.00    +0.109 C 
ATOM     15  C   UNL     1      32.683 -13.413 -22.168  0.00  0.00    +0.002 C 
ATOM     16  C   UNL     1      33.358 -15.837 -20.997  0.00  0.00    +0.085 C 
ATOM     17  C   UNL     1      32.476 -13.599 -20.804  0.00  0.00    -0.004 C 
ATOM     18  C   UNL     1      34.880 -17.633 -25.170  0.00  0.00    +0.066 C 
ATOM     19  C   UNL     1      32.814 -14.812 -20.218  0.00  0.00    -0.019 C 
ENDBRANCH   8  10
ENDBRANCH   7   8
ENDBRANCH   6   7
BRANCH   1  20
ATOM     20  C   UNL     1      33.284  -6.984 -22.846  0.00  0.00    +0.037 C 
BRANCH  20  21
ATOM     21  C   UNL     1      32.087  -6.965 -21.937  0.00  0.00    +0.102 C 
ATOM     22  C   UNL     1      31.110  -5.846 -22.149  0.00  0.00    +0.089 C 
ATOM     23  C   UNL     1      30.758  -7.240 -22.578  0.00  0.00    +0.021 C 
BRANCH  22  26
ATOM     24  O   UNL     1      31.228  -5.117 -24.367  0.00  0.00    -0.273 OA
ATOM     25  N   UNL     1      31.695  -3.598 -22.681  0.00  0.00    -0.197 N 
ATOM     26  C   UNL     1      31.349  -4.824 -23.183  0.00  0.00    +0.244 C 
ATOM     27  H   UNL     1      31.775  -3.432 -21.714  0.00  0.00    +0.182 HD
BRANCH  25  28
ATOM     28  O   UNL     1      31.928  -2.595 -23.631  0.00  0.00    -0.295 OA
ATOM     29  H   UNL     1      31.248  -2.639 -24.321  0.00  0.00    +0.241 HD
ENDBRANCH  25  28
ENDBRANCH  22  26
BRANCH  21  31
ATOM     30  O   UNL     1      33.031  -6.909 -19.773  0.00  0.00    -0.250 OA
ATOM     31  C   UNL     1      32.296  -7.480 -20.566  0.00  0.00    +0.317 C 
BRANCH  31  32
ATOM     32  O   UNL     1      31.585  -8.619 -20.347  0.00  0.00    -0.444 OA
ATOM     33  C   UNL     1      32.199  -9.569 -19.470  0.00  0.00    +0.256 C 
ENDBRANCH  31  32
ENDBRANCH  21  31
ENDBRANCH  20  21
ENDBRANCH   1  20
TORSDOF 9
ENDMDL
