MODEL 1
REMARK VINA RESULT:      -8.8      0.000      0.000
REMARK  Name = 11186829
REMARK  6 active torsions:
REMARK  status: ('A' for Active; 'I' for Inactive)
REMARK    1  A    between atoms: C_1  and  C_4
REMARK    2  A    between atoms: C_1  and  C_11
REMARK    3  A    between atoms: C_1  and  O_16
REMARK    4  A    between atoms: C_1  and  C_18
REMARK    5  A    between atoms: C_18  and  C_20
REMARK    6  A    between atoms: C_21  and  O_26
REMARK                            x       y       z     vdW  Elec       q    Type
REMARK                         _______ _______ _______ _____ _____    ______ ____
ROOT
ATOM      1  C   UNL     1      33.946 -23.433 -15.364  0.00  0.00    +0.115 C 
ENDROOT
BRANCH   1   4
ATOM      2  O   UNL     1      35.569 -25.178 -15.526  0.00  0.00    -0.358 OA
ATOM      3  N   UNL     1      36.752 -24.508 -13.026  0.00  0.00    +0.387 N 
ATOM      4  C   UNL     1      34.853 -24.373 -14.581  0.00  0.00    +0.119 C 
ATOM      5  C   UNL     1      35.842 -23.588 -13.715  0.00  0.00    -0.049 C 
ATOM      6  C   UNL     1      36.431 -26.103 -14.860  0.00  0.00    +0.119 C 
ATOM      7  C   UNL     1      37.441 -25.357 -13.997  0.00  0.00    -0.049 C 
ATOM      8  H   UNL     1      36.215 -25.095 -12.385  0.00  0.00    -0.084 HD
ATOM      9  H   UNL     1      37.441 -23.967 -12.505  0.00  0.00    -0.084 HD
ENDBRANCH   1   4
BRANCH   1  11
ATOM     10  O   UNL     1      29.898 -24.478 -14.515  0.00  0.00    -0.354 OA
ATOM     11  C   UNL     1      32.561 -23.392 -14.725  0.00  0.00    +0.032 C 
ATOM     12  C   UNL     1      32.257 -24.696 -13.979  0.00  0.00    +0.035 C 
ATOM     13  C   UNL     1      31.476 -23.128 -15.774  0.00  0.00    +0.035 C 
ATOM     14  C   UNL     1      30.827 -24.694 -13.453  0.00  0.00    +0.142 C 
ATOM     15  C   UNL     1      30.089 -23.213 -15.148  0.00  0.00    +0.142 C 
ENDBRANCH   1  11
BRANCH   1  16
ATOM     16  O   UNL     1      34.496 -22.113 -15.297  0.00  0.00    -0.384 OA
ATOM     17  H   UNL     1      34.211 -21.604 -16.073  0.00  0.00    +0.210 HD
ENDBRANCH   1  16
BRANCH   1  18
ATOM     18  C   UNL     1      33.815 -23.832 -16.854  0.00  0.00    +0.059 C 
BRANCH  18  20
ATOM     19  F   UNL     1      32.764 -20.759 -20.470  0.00  0.00    -0.204 F 
ATOM     20  C   UNL     1      34.246 -22.781 -17.852  0.00  0.00    +0.016 C 
ATOM     21  C   UNL     1      35.567 -22.369 -17.900  0.00  0.00    +0.135 C 
ATOM     22  C   UNL     1      33.293 -22.251 -18.709  0.00  0.00    +0.028 C 
ATOM     23  C   UNL     1      35.947 -21.399 -18.828  0.00  0.00    +0.039 C 
ATOM     24  C   UNL     1      33.673 -21.281 -19.636  0.00  0.00    +0.140 C 
ATOM     25  C   UNL     1      35.000 -20.855 -19.696  0.00  0.00    +0.033 C 
BRANCH  21  26
ATOM     26  O   UNL     1      36.505 -22.889 -17.061  0.00  0.00    -0.472 OA
ATOM     27  C   UNL     1      37.512 -21.999 -16.582  0.00  0.00    +0.252 C 
ENDBRANCH  21  26
ENDBRANCH  18  20
ENDBRANCH   1  18
TORSDOF 6
ENDMDL
MODEL 2
REMARK VINA RESULT:      -8.6      2.809      5.284
REMARK  Name = 11186829
REMARK  6 active torsions:
REMARK  status: ('A' for Active; 'I' for Inactive)
REMARK    1  A    between atoms: C_1  and  C_4
REMARK    2  A    between atoms: C_1  and  C_11
REMARK    3  A    between atoms: C_1  and  O_16
REMARK    4  A    between atoms: C_1  and  C_18
REMARK    5  A    between atoms: C_18  and  C_20
REMARK    6  A    between atoms: C_21  and  O_26
REMARK                            x       y       z     vdW  Elec       q    Type
REMARK                         _______ _______ _______ _____ _____    ______ ____
ROOT
ATOM      1  C   UNL     1      34.515 -23.741 -15.531  0.00  0.00    +0.115 C 
ENDROOT
BRANCH   1   4
ATOM      2  O   UNL     1      35.944 -22.729 -17.155  0.00  0.00    -0.358 OA
ATOM      3  N   UNL     1      33.786 -22.185 -18.929  0.00  0.00    +0.387 N 
ATOM      4  C   UNL     1      34.594 -22.738 -16.674  0.00  0.00    +0.119 C 
ATOM      5  C   UNL     1      33.642 -23.122 -17.810  0.00  0.00    -0.049 C 
ATOM      6  C   UNL     1      36.100 -21.792 -18.222  0.00  0.00    +0.119 C 
ATOM      7  C   UNL     1      35.177 -22.149 -19.381  0.00  0.00    -0.049 C 
ATOM      8  H   UNL     1      33.506 -21.252 -18.625  0.00  0.00    -0.084 HD
ATOM      9  H   UNL     1      33.193 -22.493 -19.699  0.00  0.00    -0.084 HD
ENDBRANCH   1   4
BRANCH   1  11
ATOM     10  O   UNL     1      31.001 -23.862 -13.115  0.00  0.00    -0.354 OA
ATOM     11  C   UNL     1      33.059 -23.964 -15.133  0.00  0.00    +0.032 C 
ATOM     12  C   UNL     1      32.400 -22.652 -14.690  0.00  0.00    +0.035 C 
ATOM     13  C   UNL     1      32.945 -25.006 -14.015  0.00  0.00    +0.035 C 
ATOM     14  C   UNL     1      30.988 -22.906 -14.175  0.00  0.00    +0.142 C 
ATOM     15  C   UNL     1      31.503 -25.129 -13.538  0.00  0.00    +0.142 C 
ENDBRANCH   1  11
BRANCH   1  16
ATOM     16  O   UNL     1      35.037 -24.993 -15.991  0.00  0.00    -0.384 OA
ATOM     17  H   UNL     1      34.329 -25.500 -16.419  0.00  0.00    +0.210 HD
ENDBRANCH   1  16
BRANCH   1  18
ATOM     18  C   UNL     1      35.328 -23.300 -14.291  0.00  0.00    +0.059 C 
BRANCH  18  20
ATOM     19  F   UNL     1      39.821 -24.790 -15.392  0.00  0.00    -0.204 F 
ATOM     20  C   UNL     1      36.549 -24.135 -13.978  0.00  0.00    +0.016 C 
ATOM     21  C   UNL     1      36.570 -24.940 -12.851  0.00  0.00    +0.135 C 
ATOM     22  C   UNL     1      37.632 -24.074 -14.841  0.00  0.00    +0.028 C 
ATOM     23  C   UNL     1      37.704 -25.704 -12.579  0.00  0.00    +0.039 C 
ATOM     24  C   UNL     1      38.767 -24.838 -14.568  0.00  0.00    +0.140 C 
ATOM     25  C   UNL     1      38.802 -25.654 -13.437  0.00  0.00    +0.033 C 
BRANCH  21  26
ATOM     26  O   UNL     1      35.506 -25.002 -12.002  0.00  0.00    -0.472 OA
ATOM     27  C   UNL     1      35.671 -24.414 -10.713  0.00  0.00    +0.252 C 
ENDBRANCH  21  26
ENDBRANCH  18  20
ENDBRANCH   1  18
TORSDOF 6
ENDMDL
MODEL 3
REMARK VINA RESULT:      -8.5      2.847      5.789
REMARK  Name = 11186829
REMARK  6 active torsions:
REMARK  status: ('A' for Active; 'I' for Inactive)
REMARK    1  A    between atoms: C_1  and  C_4
REMARK    2  A    between atoms: C_1  and  C_11
REMARK    3  A    between atoms: C_1  and  O_16
REMARK    4  A    between atoms: C_1  and  C_18
REMARK    5  A    between atoms: C_18  and  C_20
REMARK    6  A    between atoms: C_21  and  O_26
REMARK                            x       y       z     vdW  Elec       q    Type
REMARK                         _______ _______ _______ _____ _____    ______ ____
ROOT
ATOM      1  C   UNL     1      34.435 -23.897 -15.202  0.00  0.00    +0.115 C 
ENDROOT
BRANCH   1   4
ATOM      2  O   UNL     1      32.554 -25.064 -14.305  0.00  0.00    -0.358 OA
ATOM      3  N   UNL     1      30.974 -22.702 -14.156  0.00  0.00    +0.387 N 
ATOM      4  C   UNL     1      32.919 -23.903 -15.062  0.00  0.00    +0.119 C 
ATOM      5  C   UNL     1      32.427 -22.643 -14.345  0.00  0.00    -0.049 C 
ATOM      6  C   UNL     1      31.137 -25.148 -14.149  0.00  0.00    +0.119 C 
ATOM      7  C   UNL     1      30.610 -23.915 -13.424  0.00  0.00    -0.049 C 
ATOM      8  H   UNL     1      30.516 -22.708 -15.069  0.00  0.00    -0.084 HD
ATOM      9  H   UNL     1      30.675 -21.886 -13.623  0.00  0.00    -0.084 HD
ENDBRANCH   1   4
BRANCH   1  11
ATOM     10  O   UNL     1      34.888 -21.592 -18.764  0.00  0.00    -0.354 OA
ATOM     11  C   UNL     1      34.825 -23.534 -16.632  0.00  0.00    +0.032 C 
ATOM     12  C   UNL     1      35.815 -22.363 -16.656  0.00  0.00    +0.035 C 
ATOM     13  C   UNL     1      33.589 -23.186 -17.471  0.00  0.00    +0.035 C 
ATOM     14  C   UNL     1      36.099 -21.927 -18.088  0.00  0.00    +0.142 C 
ATOM     15  C   UNL     1      33.998 -22.704 -18.857  0.00  0.00    +0.142 C 
ENDBRANCH   1  11
BRANCH   1  16
ATOM     16  O   UNL     1      34.965 -22.887 -14.337  0.00  0.00    -0.384 OA
ATOM     17  H   UNL     1      35.724 -22.460 -14.766  0.00  0.00    +0.210 HD
ENDBRANCH   1  16
BRANCH   1  18
ATOM     18  C   UNL     1      35.076 -25.252 -14.821  0.00  0.00    +0.059 C 
BRANCH  18  20
ATOM     19  F   UNL     1      39.909 -25.188 -15.338  0.00  0.00    -0.204 F 
ATOM     20  C   UNL     1      36.461 -25.174 -14.219  0.00  0.00    +0.016 C 
ATOM     21  C   UNL     1      36.618 -25.063 -12.847  0.00  0.00    +0.135 C 
ATOM     22  C   UNL     1      37.556 -25.218 -15.068  0.00  0.00    +0.028 C 
ATOM     23  C   UNL     1      37.902 -24.993 -12.309  0.00  0.00    +0.039 C 
ATOM     24  C   UNL     1      38.841 -25.146 -14.530  0.00  0.00    +0.140 C 
ATOM     25  C   UNL     1      39.014 -25.035 -13.150  0.00  0.00    +0.033 C 
BRANCH  21  26
ATOM     26  O   UNL     1      35.543 -25.020 -12.011  0.00  0.00    -0.472 OA
ATOM     27  C   UNL     1      35.697 -24.293 -10.794  0.00  0.00    +0.252 C 
ENDBRANCH  21  26
ENDBRANCH  18  20
ENDBRANCH   1  18
TORSDOF 6
ENDMDL
MODEL 4
REMARK VINA RESULT:      -8.4     10.412     13.451
REMARK  Name = 11186829
REMARK  6 active torsions:
REMARK  status: ('A' for Active; 'I' for Inactive)
REMARK    1  A    between atoms: C_1  and  C_4
REMARK    2  A    between atoms: C_1  and  C_11
REMARK    3  A    between atoms: C_1  and  O_16
REMARK    4  A    between atoms: C_1  and  C_18
REMARK    5  A    between atoms: C_18  and  C_20
REMARK    6  A    between atoms: C_21  and  O_26
REMARK                            x       y       z     vdW  Elec       q    Type
REMARK                         _______ _______ _______ _____ _____    ______ ____
ROOT
ATOM      1  C   UNL     1      33.370 -13.378 -23.137  0.00  0.00    +0.115 C 
ENDROOT
BRANCH   1   4
ATOM      2  O   UNL     1      32.513 -14.279 -25.177  0.00  0.00    -0.358 OA
ATOM      3  N   UNL     1      33.997 -12.453 -26.777  0.00  0.00    +0.387 N 
ATOM      4  C   UNL     1      33.635 -13.581 -24.623  0.00  0.00    +0.119 C 
ATOM      5  C   UNL     1      33.815 -12.239 -25.338  0.00  0.00    -0.049 C 
ATOM      6  C   UNL     1      32.700 -14.523 -26.572  0.00  0.00    +0.119 C 
ATOM      7  C   UNL     1      32.868 -13.208 -27.322  0.00  0.00    -0.049 C 
ATOM      8  H   UNL     1      34.859 -12.977 -26.933  0.00  0.00    -0.084 HD
ATOM      9  H   UNL     1      34.051 -11.548 -27.243  0.00  0.00    -0.084 HD
ENDBRANCH   1   4
BRANCH   1  11
ATOM     10  O   UNL     1      35.263 -16.664 -21.183  0.00  0.00    -0.354 OA
ATOM     11  C   UNL     1      33.532 -14.701 -22.393  0.00  0.00    +0.032 C 
ATOM     12  C   UNL     1      34.193 -14.489 -21.027  0.00  0.00    +0.035 C 
ATOM     13  C   UNL     1      34.350 -15.702 -23.217  0.00  0.00    +0.035 C 
ATOM     14  C   UNL     1      34.466 -15.826 -20.348  0.00  0.00    +0.142 C 
ATOM     15  C   UNL     1      34.613 -16.971 -22.416  0.00  0.00    +0.142 C 
ENDBRANCH   1  11
BRANCH   1  16
ATOM     16  O   UNL     1      34.347 -12.467 -22.623  0.00  0.00    -0.384 OA
ATOM     17  H   UNL     1      34.119 -11.563 -22.892  0.00  0.00    +0.210 HD
ENDBRANCH   1  16
BRANCH   1  18
ATOM     18  C   UNL     1      31.964 -12.796 -22.855  0.00  0.00    +0.059 C 
BRANCH  18  20
ATOM     19  F   UNL     1      31.301 -11.356 -18.261  0.00  0.00    -0.204 F 
ATOM     20  C   UNL     1      31.907 -11.698 -21.818  0.00  0.00    +0.016 C 
ATOM     21  C   UNL     1      32.130 -10.381 -22.187  0.00  0.00    +0.135 C 
ATOM     22  C   UNL     1      31.627 -12.040 -20.504  0.00  0.00    +0.028 C 
ATOM     23  C   UNL     1      32.073  -9.381 -21.217  0.00  0.00    +0.039 C 
ATOM     24  C   UNL     1      31.571 -11.040 -19.534  0.00  0.00    +0.140 C 
ATOM     25  C   UNL     1      31.793  -9.709 -19.891  0.00  0.00    +0.033 C 
BRANCH  21  26
ATOM     26  O   UNL     1      32.405 -10.042 -23.477  0.00  0.00    -0.472 OA
ATOM     27  C   UNL     1      33.328  -8.975 -23.685  0.00  0.00    +0.252 C 
ENDBRANCH  21  26
ENDBRANCH  18  20
ENDBRANCH   1  18
TORSDOF 6
ENDMDL
MODEL 5
REMARK VINA RESULT:      -8.4      1.695      2.342
REMARK  Name = 11186829
REMARK  6 active torsions:
REMARK  status: ('A' for Active; 'I' for Inactive)
REMARK    1  A    between atoms: C_1  and  C_4
REMARK    2  A    between atoms: C_1  and  C_11
REMARK    3  A    between atoms: C_1  and  O_16
REMARK    4  A    between atoms: C_1  and  C_18
REMARK    5  A    between atoms: C_18  and  C_20
REMARK    6  A    between atoms: C_21  and  O_26
REMARK                            x       y       z     vdW  Elec       q    Type
REMARK                         _______ _______ _______ _____ _____    ______ ____
ROOT
ATOM      1  C   UNL     1      33.917 -23.568 -15.139  0.00  0.00    +0.115 C 
ENDROOT
BRANCH   1   4
ATOM      2  O   UNL     1      35.527 -25.271 -15.599  0.00  0.00    -0.358 OA
ATOM      3  N   UNL     1      36.242 -25.539 -12.857  0.00  0.00    +0.387 N 
ATOM      4  C   UNL     1      34.658 -24.772 -14.574  0.00  0.00    +0.119 C 
ATOM      5  C   UNL     1      35.480 -24.384 -13.342  0.00  0.00    -0.049 C 
ATOM      6  C   UNL     1      36.246 -26.419 -15.145  0.00  0.00    +0.119 C 
ATOM      7  C   UNL     1      37.089 -26.068 -13.926  0.00  0.00    -0.049 C 
ATOM      8  H   UNL     1      35.593 -26.265 -12.550  0.00  0.00    -0.084 HD
ATOM      9  H   UNL     1      36.830 -25.246 -12.078  0.00  0.00    -0.084 HD
ENDBRANCH   1   4
BRANCH   1  11
ATOM     10  O   UNL     1      29.778 -24.489 -14.669  0.00  0.00    -0.354 OA
ATOM     11  C   UNL     1      32.495 -23.525 -14.588  0.00  0.00    +0.032 C 
ATOM     12  C   UNL     1      32.083 -24.885 -14.014  0.00  0.00    +0.035 C 
ATOM     13  C   UNL     1      31.496 -23.092 -15.667  0.00  0.00    +0.035 C 
ATOM     14  C   UNL     1      30.622 -24.867 -13.582  0.00  0.00    +0.142 C 
ATOM     15  C   UNL     1      30.068 -23.174 -15.143  0.00  0.00    +0.142 C 
ENDBRANCH   1  11
BRANCH   1  16
ATOM     16  O   UNL     1      34.588 -22.379 -14.706  0.00  0.00    -0.384 OA
ATOM     17  H   UNL     1      34.083 -21.968 -13.987  0.00  0.00    +0.210 HD
ENDBRANCH   1  16
BRANCH   1  18
ATOM     18  C   UNL     1      33.871 -23.566 -16.686  0.00  0.00    +0.059 C 
BRANCH  18  20
ATOM     19  F   UNL     1      38.195 -21.345 -16.691  0.00  0.00    -0.204 F 
ATOM     20  C   UNL     1      34.899 -22.692 -17.370  0.00  0.00    +0.016 C 
ATOM     21  C   UNL     1      34.647 -22.181 -18.632  0.00  0.00    +0.135 C 
ATOM     22  C   UNL     1      36.085 -22.420 -16.705  0.00  0.00    +0.028 C 
ATOM     23  C   UNL     1      35.606 -21.377 -19.248  0.00  0.00    +0.039 C 
ATOM     24  C   UNL     1      37.044 -21.617 -17.321  0.00  0.00    +0.140 C 
ATOM     25  C   UNL     1      36.804 -21.094 -18.592  0.00  0.00    +0.033 C 
BRANCH  21  26
ATOM     26  O   UNL     1      33.482 -22.447 -19.287  0.00  0.00    -0.472 OA
ATOM     27  C   UNL     1      32.870 -21.364 -19.985  0.00  0.00    +0.252 C 
ENDBRANCH  21  26
ENDBRANCH  18  20
ENDBRANCH   1  18
TORSDOF 6
ENDMDL
MODEL 6
REMARK VINA RESULT:      -8.4      3.087      5.820
REMARK  Name = 11186829
REMARK  6 active torsions:
REMARK  status: ('A' for Active; 'I' for Inactive)
REMARK    1  A    between atoms: C_1  and  C_4
REMARK    2  A    between atoms: C_1  and  C_11
REMARK    3  A    between atoms: C_1  and  O_16
REMARK    4  A    between atoms: C_1  and  C_18
REMARK    5  A    between atoms: C_18  and  C_20
REMARK    6  A    between atoms: C_21  and  O_26
REMARK                            x       y       z     vdW  Elec       q    Type
REMARK                         _______ _______ _______ _____ _____    ______ ____
ROOT
ATOM      1  C   UNL     1      34.256 -23.592 -15.400  0.00  0.00    +0.115 C 
ENDROOT
BRANCH   1   4
ATOM      2  O   UNL     1      32.536 -24.954 -14.455  0.00  0.00    -0.358 OA
ATOM      3  N   UNL     1      30.657 -22.817 -14.428  0.00  0.00    +0.387 N 
ATOM      4  C   UNL     1      32.752 -23.792 -15.266  0.00  0.00    +0.119 C 
ATOM      5  C   UNL     1      32.091 -22.575 -14.614  0.00  0.00    -0.049 C 
ATOM      6  C   UNL     1      31.141 -25.217 -14.300  0.00  0.00    +0.119 C 
ATOM      7  C   UNL     1      30.448 -24.031 -13.639  0.00  0.00    -0.049 C 
ATOM      8  H   UNL     1      30.213 -22.928 -15.341  0.00  0.00    -0.084 HD
ATOM      9  H   UNL     1      30.246 -22.024 -13.937  0.00  0.00    -0.084 HD
ENDBRANCH   1   4
BRANCH   1  11
ATOM     10  O   UNL     1      34.756 -21.555 -19.115  0.00  0.00    -0.354 OA
ATOM     11  C   UNL     1      34.621 -23.350 -16.862  0.00  0.00    +0.032 C 
ATOM     12  C   UNL     1      35.696 -22.264 -16.991  0.00  0.00    +0.035 C 
ATOM     13  C   UNL     1      33.387 -22.959 -17.683  0.00  0.00    +0.035 C 
ATOM     14  C   UNL     1      35.961 -21.941 -18.456  0.00  0.00    +0.142 C 
ATOM     15  C   UNL     1      33.781 -22.598 -19.109  0.00  0.00    +0.142 C 
ENDBRANCH   1  11
BRANCH   1  16
ATOM     16  O   UNL     1      34.624 -22.423 -14.660  0.00  0.00    -0.384 OA
ATOM     17  H   UNL     1      35.577 -22.445 -14.476  0.00  0.00    +0.210 HD
ENDBRANCH   1  16
BRANCH   1  18
ATOM     18  C   UNL     1      35.069 -24.791 -14.856  0.00  0.00    +0.059 C 
BRANCH  18  20
ATOM     19  F   UNL     1      35.395 -24.283 -10.033  0.00  0.00    -0.204 F 
ATOM     20  C   UNL     1      35.890 -24.515 -13.616  0.00  0.00    +0.016 C 
ATOM     21  C   UNL     1      37.246 -24.256 -13.724  0.00  0.00    +0.135 C 
ATOM     22  C   UNL     1      35.254 -24.527 -12.385  0.00  0.00    +0.028 C 
ATOM     23  C   UNL     1      37.987 -24.004 -12.570  0.00  0.00    +0.039 C 
ATOM     24  C   UNL     1      35.995 -24.275 -11.231  0.00  0.00    +0.140 C 
ATOM     25  C   UNL     1      37.362 -24.013 -11.324  0.00  0.00    +0.033 C 
BRANCH  21  26
ATOM     26  O   UNL     1      37.873 -24.243 -14.934  0.00  0.00    -0.472 OA
ATOM     27  C   UNL     1      39.072 -25.008 -15.051  0.00  0.00    +0.252 C 
ENDBRANCH  21  26
ENDBRANCH  18  20
ENDBRANCH   1  18
TORSDOF 6
ENDMDL
MODEL 7
REMARK VINA RESULT:      -8.0     14.828     17.622
REMARK  Name = 11186829
REMARK  6 active torsions:
REMARK  status: ('A' for Active; 'I' for Inactive)
REMARK    1  A    between atoms: C_1  and  C_4
REMARK    2  A    between atoms: C_1  and  C_11
REMARK    3  A    between atoms: C_1  and  O_16
REMARK    4  A    between atoms: C_1  and  C_18
REMARK    5  A    between atoms: C_18  and  C_20
REMARK    6  A    between atoms: C_21  and  O_26
REMARK                            x       y       z     vdW  Elec       q    Type
REMARK                         _______ _______ _______ _____ _____    ______ ____
ROOT
ATOM      1  C   UNL     1      32.582  -8.416 -23.091  0.00  0.00    +0.115 C 
ENDROOT
BRANCH   1   4
ATOM      2  O   UNL     1      31.944 -10.178 -21.610  0.00  0.00    -0.358 OA
ATOM      3  N   UNL     1      32.106  -8.504 -19.314  0.00  0.00    +0.387 N 
ATOM      4  C   UNL     1      31.935  -8.752 -21.754  0.00  0.00    +0.119 C 
ATOM      5  C   UNL     1      32.701  -8.110 -20.594  0.00  0.00    -0.049 C 
ATOM      6  C   UNL     1      31.332 -10.571 -20.380  0.00  0.00    +0.119 C 
ATOM      7  C   UNL     1      32.077  -9.962 -19.199  0.00  0.00    -0.049 C 
ATOM      8  H   UNL     1      31.153  -8.143 -19.261  0.00  0.00    -0.084 HD
ATOM      9  H   UNL     1      32.666  -8.119 -18.554  0.00  0.00    -0.084 HD
ENDBRANCH   1   4
BRANCH   1  11
ATOM     10  O   UNL     1      34.851 -11.015 -25.600  0.00  0.00    -0.354 OA
ATOM     11  C   UNL     1      33.535  -9.534 -23.505  0.00  0.00    +0.032 C 
ATOM     12  C   UNL     1      34.734  -8.978 -24.282  0.00  0.00    +0.035 C 
ATOM     13  C   UNL     1      32.813 -10.591 -24.348  0.00  0.00    +0.035 C 
ATOM     14  C   UNL     1      35.611 -10.112 -24.799  0.00  0.00    +0.142 C 
ATOM     15  C   UNL     1      33.798 -11.634 -24.861  0.00  0.00    +0.142 C 
ENDBRANCH   1  11
BRANCH   1  16
ATOM     16  O   UNL     1      31.553  -8.332 -24.083  0.00  0.00    -0.384 OA
ATOM     17  H   UNL     1      31.009  -7.545 -23.918  0.00  0.00    +0.210 HD
ENDBRANCH   1  16
BRANCH   1  18
ATOM     18  C   UNL     1      33.345  -7.070 -23.064  0.00  0.00    +0.059 C 
BRANCH  18  20
ATOM     19  F   UNL     1      32.923  -4.817 -27.350  0.00  0.00    -0.204 F 
ATOM     20  C   UNL     1      32.758  -5.968 -23.917  0.00  0.00    +0.016 C 
ATOM     21  C   UNL     1      31.883  -5.050 -23.360  0.00  0.00    +0.135 C 
ATOM     22  C   UNL     1      33.117  -5.903 -25.254  0.00  0.00    +0.028 C 
ATOM     23  C   UNL     1      31.352  -4.039 -24.161  0.00  0.00    +0.039 C 
ATOM     24  C   UNL     1      32.585  -4.893 -26.055  0.00  0.00    +0.140 C 
ATOM     25  C   UNL     1      31.703  -3.961 -25.509  0.00  0.00    +0.033 C 
BRANCH  21  26
ATOM     26  O   UNL     1      31.530  -5.111 -22.046  0.00  0.00    -0.472 OA
ATOM     27  C   UNL     1      30.172  -5.436 -21.755  0.00  0.00    +0.252 C 
ENDBRANCH  21  26
ENDBRANCH  18  20
ENDBRANCH   1  18
TORSDOF 6
ENDMDL
MODEL 8
REMARK VINA RESULT:      -7.9      1.964      4.091
REMARK  Name = 11186829
REMARK  6 active torsions:
REMARK  status: ('A' for Active; 'I' for Inactive)
REMARK    1  A    between atoms: C_1  and  C_4
REMARK    2  A    between atoms: C_1  and  C_11
REMARK    3  A    between atoms: C_1  and  O_16
REMARK    4  A    between atoms: C_1  and  C_18
REMARK    5  A    between atoms: C_18  and  C_20
REMARK    6  A    between atoms: C_21  and  O_26
REMARK                            x       y       z     vdW  Elec       q    Type
REMARK                         _______ _______ _______ _____ _____    ______ ____
ROOT
ATOM      1  C   UNL     1      34.624 -24.117 -14.979  0.00  0.00    +0.115 C 
ENDROOT
BRANCH   1   4
ATOM      2  O   UNL     1      32.847 -25.040 -13.676  0.00  0.00    -0.358 OA
ATOM      3  N   UNL     1      30.990 -23.066 -14.545  0.00  0.00    +0.387 N 
ATOM      4  C   UNL     1      33.114 -24.266 -14.853  0.00  0.00    +0.119 C 
ATOM      5  C   UNL     1      32.433 -22.899 -14.738  0.00  0.00    -0.049 C 
ATOM      6  C   UNL     1      31.443 -25.238 -13.502  0.00  0.00    +0.119 C 
ATOM      7  C   UNL     1      30.731 -23.897 -13.369  0.00  0.00    -0.049 C 
ATOM      8  H   UNL     1      30.590 -23.516 -15.370  0.00  0.00    -0.084 HD
ATOM      9  H   UNL     1      30.564 -22.150 -14.407  0.00  0.00    -0.084 HD
ENDBRANCH   1   4
BRANCH   1  11
ATOM     10  O   UNL     1      37.697 -24.795 -12.099  0.00  0.00    -0.354 OA
ATOM     11  C   UNL     1      35.302 -24.571 -13.690  0.00  0.00    +0.032 C 
ATOM     12  C   UNL     1      35.906 -23.382 -12.934  0.00  0.00    +0.035 C 
ATOM     13  C   UNL     1      36.390 -25.613 -13.975  0.00  0.00    +0.035 C 
ATOM     14  C   UNL     1      36.689 -23.860 -11.717  0.00  0.00    +0.142 C 
ATOM     15  C   UNL     1      37.145 -25.966 -12.700  0.00  0.00    +0.142 C 
ENDBRANCH   1  11
BRANCH   1  16
ATOM     16  O   UNL     1      35.076 -24.973 -16.034  0.00  0.00    -0.384 OA
ATOM     17  H   UNL     1      34.885 -24.559 -16.890  0.00  0.00    +0.210 HD
ENDBRANCH   1  16
BRANCH   1  18
ATOM     18  C   UNL     1      35.056 -22.668 -15.307  0.00  0.00    +0.059 C 
BRANCH  18  20
ATOM     19  F   UNL     1      33.437 -22.334 -19.878  0.00  0.00    -0.204 F 
ATOM     20  C   UNL     1      35.302 -22.374 -16.770  0.00  0.00    +0.016 C 
ATOM     21  C   UNL     1      36.563 -21.999 -17.201  0.00  0.00    +0.135 C 
ATOM     22  C   UNL     1      34.243 -22.492 -17.656  0.00  0.00    +0.028 C 
ATOM     23  C   UNL     1      36.772 -21.732 -18.554  0.00  0.00    +0.039 C 
ATOM     24  C   UNL     1      34.451 -22.224 -19.009  0.00  0.00    +0.140 C 
ATOM     25  C   UNL     1      35.717 -21.845 -19.458  0.00  0.00    +0.033 C 
BRANCH  21  26
ATOM     26  O   UNL     1      37.606 -21.884 -16.332  0.00  0.00    -0.472 OA
ATOM     27  C   UNL     1      38.241 -23.092 -15.918  0.00  0.00    +0.252 C 
ENDBRANCH  21  26
ENDBRANCH  18  20
ENDBRANCH   1  18
TORSDOF 6
ENDMDL
MODEL 9
REMARK VINA RESULT:      -7.8     14.533     17.080
REMARK  Name = 11186829
REMARK  6 active torsions:
REMARK  status: ('A' for Active; 'I' for Inactive)
REMARK    1  A    between atoms: C_1  and  C_4
REMARK    2  A    between atoms: C_1  and  C_11
REMARK    3  A    between atoms: C_1  and  O_16
REMARK    4  A    between atoms: C_1  and  C_18
REMARK    5  A    between atoms: C_18  and  C_20
REMARK    6  A    between atoms: C_21  and  O_26
REMARK                            x       y       z     vdW  Elec       q    Type
REMARK                         _______ _______ _______ _____ _____    ______ ____
ROOT
ATOM      1  C   UNL     1      32.722  -8.814 -22.868  0.00  0.00    +0.115 C 
ENDROOT
BRANCH   1   4
ATOM      2  O   UNL     1      32.922 -10.488 -24.560  0.00  0.00    -0.358 OA
ATOM      3  N   UNL     1      35.737 -10.136 -24.782  0.00  0.00    +0.387 N 
ATOM      4  C   UNL     1      33.651  -9.832 -23.516  0.00  0.00    +0.119 C 
ATOM      5  C   UNL     1      34.892  -9.150 -24.101  0.00  0.00    -0.049 C 
ATOM      6  C   UNL     1      33.728 -11.476 -25.204  0.00  0.00    +0.119 C 
ATOM      7  C   UNL     1      34.968 -10.832 -25.814  0.00  0.00    -0.049 C 
ATOM      8  H   UNL     1      36.079 -10.814 -24.101  0.00  0.00    -0.084 HD
ATOM      9  H   UNL     1      36.523  -9.655 -25.219  0.00  0.00    -0.084 HD
ENDBRANCH   1   4
BRANCH   1  11
ATOM     10  O   UNL     1      31.685 -11.263 -19.533  0.00  0.00    -0.354 OA
ATOM     11  C   UNL     1      31.867  -9.493 -21.802  0.00  0.00    +0.032 C 
ATOM     12  C   UNL     1      32.307  -9.079 -20.394  0.00  0.00    +0.035 C 
ATOM     13  C   UNL     1      31.925 -11.019 -21.937  0.00  0.00    +0.035 C 
ATOM     14  C   UNL     1      31.533  -9.857 -19.337  0.00  0.00    +0.142 C 
ATOM     15  C   UNL     1      31.172 -11.689 -20.795  0.00  0.00    +0.142 C 
ENDBRANCH   1  11
BRANCH   1  16
ATOM     16  O   UNL     1      33.522  -7.821 -22.217  0.00  0.00    -0.384 OA
ATOM     17  H   UNL     1      33.641  -8.063 -21.285  0.00  0.00    +0.210 HD
ENDBRANCH   1  16
BRANCH   1  18
ATOM     18  C   UNL     1      31.804  -8.106 -23.893  0.00  0.00    +0.059 C 
BRANCH  18  20
ATOM     19  F   UNL     1      29.879  -4.464 -21.313  0.00  0.00    -0.204 F 
ATOM     20  C   UNL     1      31.590  -6.626 -23.666  0.00  0.00    +0.016 C 
ATOM     21  C   UNL     1      32.151  -5.702 -24.532  0.00  0.00    +0.135 C 
ATOM     22  C   UNL     1      30.824  -6.226 -22.582  0.00  0.00    +0.028 C 
ATOM     23  C   UNL     1      31.942  -4.341 -24.308  0.00  0.00    +0.039 C 
ATOM     24  C   UNL     1      30.617  -4.866 -22.357  0.00  0.00    +0.140 C 
ATOM     25  C   UNL     1      31.175  -3.923 -23.221  0.00  0.00    +0.033 C 
BRANCH  21  26
ATOM     26  O   UNL     1      32.902  -6.093 -25.598  0.00  0.00    -0.472 OA
ATOM     27  C   UNL     1      33.448  -5.062 -26.419  0.00  0.00    +0.252 C 
ENDBRANCH  21  26
ENDBRANCH  18  20
ENDBRANCH   1  18
TORSDOF 6
ENDMDL
