MODEL 1
REMARK VINA RESULT:      -9.8      0.000      0.000
REMARK  Name = 6917864
REMARK  6 active torsions:
REMARK  status: ('A' for Active; 'I' for Inactive)
REMARK    1  A    between atoms: C_16  and  O_20
REMARK    2  A    between atoms: O_20  and  C_22
REMARK    3  A    between atoms: C_22  and  C_23
REMARK    4  A    between atoms: C_23  and  C_24
REMARK    5  A    between atoms: C_24  and  C_26
REMARK    6  A    between atoms: C_26  and  O_27
REMARK                            x       y       z     vdW  Elec       q    Type
REMARK                         _______ _______ _______ _____ _____    ______ ____
ROOT
ATOM      1  O   UNL     1      36.557 -25.930 -14.988  0.00  0.00    -0.218 OA
ATOM      2  O   UNL     1      38.547 -23.891 -14.419  0.00  0.00    -0.306 OA
ATOM      3  O   UNL     1      37.062 -23.226 -16.089  0.00  0.00    -0.293 OA
ATOM      4  O   UNL     1      37.877 -25.822 -15.600  0.00  0.00    -0.197 OA
ATOM      5  C   UNL     1      36.224 -24.698 -14.297  0.00  0.00    +0.178 C 
ATOM      6  C   UNL     1      36.297 -25.074 -12.783  0.00  0.00    +0.033 C 
ATOM      7  C   UNL     1      34.770 -24.365 -14.729  0.00  0.00    +0.039 C 
ATOM      8  C   UNL     1      35.597 -24.031 -11.872  0.00  0.00    +0.003 C 
ATOM      9  C   UNL     1      37.183 -23.548 -14.699  0.00  0.00    +0.268 C 
ATOM     10  C   UNL     1      34.113 -23.334 -13.796  0.00  0.00    +0.003 C 
ATOM     11  C   UNL     1      34.746 -23.928 -16.218  0.00  0.00    +0.073 C 
ATOM     12  C   UNL     1      37.732 -25.362 -12.281  0.00  0.00    +0.008 C 
ATOM     13  C   UNL     1      34.162 -23.780 -12.343  0.00  0.00    +0.000 C 
ATOM     14  C   UNL     1      38.775 -25.287 -14.623  0.00  0.00    +0.221 C 
ATOM     15  C   UNL     1      38.673 -26.039 -13.282  0.00  0.00    +0.059 C 
ATOM     16  C   UNL     1      35.760 -22.803 -16.475  0.00  0.00    +0.292 C 
ATOM     17  C   UNL     1      35.569 -24.454 -10.398  0.00  0.00    +0.000 C 
ATOM     18  C   UNL     1      33.345 -23.558 -16.713  0.00  0.00    +0.007 C 
ATOM     19  C   UNL     1      40.179 -25.437 -15.207  0.00  0.00    +0.064 C 
ENDROOT
BRANCH  16  20
ATOM     20  O   UNL     1      35.758 -22.492 -17.868  0.00  0.00    -0.424 OA
BRANCH  20  22
ATOM     21  O   UNL     1      37.178 -20.717 -17.478  0.00  0.00    -0.250 OA
ATOM     22  C   UNL     1      36.519 -21.416 -18.235  0.00  0.00    +0.319 C 
BRANCH  22  23
ATOM     23  C   UNL     1      36.411 -21.227 -19.734  0.00  0.00    +0.121 C 
BRANCH  23  24
ATOM     24  C   UNL     1      35.016 -20.810 -20.185  0.00  0.00    +0.121 C 
BRANCH  24  26
ATOM     25  O   UNL     1      34.398 -19.418 -22.062  0.00  0.00    -0.250 OA
ATOM     26  C   UNL     1      35.067 -19.573 -21.048  0.00  0.00    +0.314 C 
BRANCH  26  27
ATOM     27  O   UNL     1      35.919 -18.635 -20.566  0.00  0.00    -0.480 OA
ATOM     28  H   UNL     1      35.627 -18.024 -19.919  0.00  0.00    +0.295 HD
ENDBRANCH  26  27
ENDBRANCH  24  26
ENDBRANCH  23  24
ENDBRANCH  22  23
ENDBRANCH  20  22
ENDBRANCH  16  20
TORSDOF 6
ENDMDL
MODEL 2
REMARK VINA RESULT:      -9.0      1.555      2.830
REMARK  Name = 6917864
REMARK  6 active torsions:
REMARK  status: ('A' for Active; 'I' for Inactive)
REMARK    1  A    between atoms: C_16  and  O_20
REMARK    2  A    between atoms: O_20  and  C_22
REMARK    3  A    between atoms: C_22  and  C_23
REMARK    4  A    between atoms: C_23  and  C_24
REMARK    5  A    between atoms: C_24  and  C_26
REMARK    6  A    between atoms: C_26  and  O_27
REMARK                            x       y       z     vdW  Elec       q    Type
REMARK                         _______ _______ _______ _____ _____    ______ ____
ROOT
ATOM      1  O   UNL     1      34.995 -25.071 -16.001  0.00  0.00    -0.218 OA
ATOM      2  O   UNL     1      36.076 -22.776 -14.584  0.00  0.00    -0.306 OA
ATOM      3  O   UNL     1      36.037 -22.445 -16.891  0.00  0.00    -0.293 OA
ATOM      4  O   UNL     1      36.389 -24.874 -15.621  0.00  0.00    -0.197 OA
ATOM      5  C   UNL     1      34.262 -23.824 -15.878  0.00  0.00    +0.178 C 
ATOM      6  C   UNL     1      33.332 -24.044 -14.642  0.00  0.00    +0.033 C 
ATOM      7  C   UNL     1      33.441 -23.699 -17.190  0.00  0.00    +0.039 C 
ATOM      8  C   UNL     1      32.183 -23.004 -14.565  0.00  0.00    +0.003 C 
ATOM      9  C   UNL     1      35.223 -22.617 -15.726  0.00  0.00    +0.268 C 
ATOM     10  C   UNL     1      32.311 -22.664 -17.066  0.00  0.00    +0.003 C 
ATOM     11  C   UNL     1      34.390 -23.412 -18.384  0.00  0.00    +0.073 C 
ATOM     12  C   UNL     1      34.092 -24.119 -13.296  0.00  0.00    +0.008 C 
ATOM     13  C   UNL     1      31.404 -22.961 -15.882  0.00  0.00    +0.000 C 
ATOM     14  C   UNL     1      36.414 -24.151 -14.385  0.00  0.00    +0.221 C 
ATOM     15  C   UNL     1      35.474 -24.779 -13.339  0.00  0.00    +0.059 C 
ATOM     16  C   UNL     1      35.298 -22.210 -18.084  0.00  0.00    +0.292 C 
ATOM     17  C   UNL     1      31.205 -23.285 -13.417  0.00  0.00    +0.000 C 
ATOM     18  C   UNL     1      33.649 -23.250 -19.715  0.00  0.00    +0.007 C 
ATOM     19  C   UNL     1      37.859 -24.198 -13.893  0.00  0.00    +0.064 C 
ENDROOT
BRANCH  16  20
ATOM     20  O   UNL     1      36.203 -22.034 -19.173  0.00  0.00    -0.424 OA
BRANCH  20  22
ATOM     21  O   UNL     1      36.968 -19.860 -19.258  0.00  0.00    -0.250 OA
ATOM     22  C   UNL     1      36.272 -20.769 -19.689  0.00  0.00    +0.319 C 
BRANCH  22  23
ATOM     23  C   UNL     1      35.342 -20.672 -20.880  0.00  0.00    +0.121 C 
BRANCH  23  24
ATOM     24  C   UNL     1      34.309 -19.559 -20.744  0.00  0.00    +0.121 C 
BRANCH  24  26
ATOM     25  O   UNL     1      34.559 -18.056 -22.621  0.00  0.00    -0.250 OA
ATOM     26  C   UNL     1      34.768 -18.300 -21.439  0.00  0.00    +0.314 C 
BRANCH  26  27
ATOM     27  O   UNL     1      35.420 -17.453 -20.606  0.00  0.00    -0.480 OA
ATOM     28  H   UNL     1      35.323 -17.539 -19.678  0.00  0.00    +0.295 HD
ENDBRANCH  26  27
ENDBRANCH  24  26
ENDBRANCH  23  24
ENDBRANCH  22  23
ENDBRANCH  20  22
ENDBRANCH  16  20
TORSDOF 6
ENDMDL
MODEL 3
REMARK VINA RESULT:      -9.0     10.850     14.326
REMARK  Name = 6917864
REMARK  6 active torsions:
REMARK  status: ('A' for Active; 'I' for Inactive)
REMARK    1  A    between atoms: C_16  and  O_20
REMARK    2  A    between atoms: O_20  and  C_22
REMARK    3  A    between atoms: C_22  and  C_23
REMARK    4  A    between atoms: C_23  and  C_24
REMARK    5  A    between atoms: C_24  and  C_26
REMARK    6  A    between atoms: C_26  and  O_27
REMARK                            x       y       z     vdW  Elec       q    Type
REMARK                         _______ _______ _______ _____ _____    ______ ____
ROOT
ATOM      1  O   UNL     1      31.749 -14.084 -24.173  0.00  0.00    -0.218 OA
ATOM      2  O   UNL     1      34.397 -13.264 -25.043  0.00  0.00    -0.306 OA
ATOM      3  O   UNL     1      33.281 -11.562 -23.906  0.00  0.00    -0.293 OA
ATOM      4  O   UNL     1      32.088 -13.505 -25.468  0.00  0.00    -0.197 OA
ATOM      5  C   UNL     1      32.846 -13.896 -23.239  0.00  0.00    +0.178 C 
ATOM      6  C   UNL     1      33.441 -15.328 -23.051  0.00  0.00    +0.033 C 
ATOM      7  C   UNL     1      32.187 -13.380 -21.931  0.00  0.00    +0.039 C 
ATOM      8  C   UNL     1      34.358 -15.436 -21.805  0.00  0.00    +0.003 C 
ATOM      9  C   UNL     1      33.870 -12.861 -23.772  0.00  0.00    +0.268 C 
ATOM     10  C   UNL     1      33.127 -13.513 -20.721  0.00  0.00    +0.003 C 
ATOM     11  C   UNL     1      31.669 -11.931 -22.133  0.00  0.00    +0.073 C 
ATOM     12  C   UNL     1      34.162 -15.872 -24.308  0.00  0.00    +0.008 C 
ATOM     13  C   UNL     1      33.629 -14.938 -20.553  0.00  0.00    +0.000 C 
ATOM     14  C   UNL     1      33.405 -13.942 -25.818  0.00  0.00    +0.221 C 
ATOM     15  C   UNL     1      33.562 -15.465 -25.658  0.00  0.00    +0.059 C 
ATOM     16  C   UNL     1      32.779 -11.026 -22.687  0.00  0.00    +0.292 C 
ATOM     17  C   UNL     1      34.853 -16.866 -21.555  0.00  0.00    +0.000 C 
ATOM     18  C   UNL     1      31.026 -11.341 -20.875  0.00  0.00    +0.007 C 
ATOM     19  C   UNL     1      33.615 -13.539 -27.276  0.00  0.00    +0.064 C 
ENDROOT
BRANCH  16  20
ATOM     20  O   UNL     1      32.237  -9.729 -22.930  0.00  0.00    -0.424 OA
BRANCH  20  22
ATOM     21  O   UNL     1      34.257  -8.837 -23.595  0.00  0.00    -0.250 OA
ATOM     22  C   UNL     1      33.152  -8.723 -23.085  0.00  0.00    +0.319 C 
BRANCH  22  23
ATOM     23  C   UNL     1      32.575  -7.443 -22.518  0.00  0.00    +0.121 C 
BRANCH  23  24
ATOM     24  C   UNL     1      31.719  -7.670 -21.277  0.00  0.00    +0.121 C 
BRANCH  24  26
ATOM     25  O   UNL     1      33.001  -6.652 -19.499  0.00  0.00    -0.250 OA
ATOM     26  C   UNL     1      32.560  -7.667 -20.024  0.00  0.00    +0.314 C 
BRANCH  26  27
ATOM     27  O   UNL     1      32.757  -8.911 -19.525  0.00  0.00    -0.480 OA
ATOM     28  H   UNL     1      32.886  -9.033 -18.605  0.00  0.00    +0.295 HD
ENDBRANCH  26  27
ENDBRANCH  24  26
ENDBRANCH  23  24
ENDBRANCH  22  23
ENDBRANCH  20  22
ENDBRANCH  16  20
TORSDOF 6
ENDMDL
MODEL 4
REMARK VINA RESULT:      -8.8     10.860     14.616
REMARK  Name = 6917864
REMARK  6 active torsions:
REMARK  status: ('A' for Active; 'I' for Inactive)
REMARK    1  A    between atoms: C_16  and  O_20
REMARK    2  A    between atoms: O_20  and  C_22
REMARK    3  A    between atoms: C_22  and  C_23
REMARK    4  A    between atoms: C_23  and  C_24
REMARK    5  A    between atoms: C_24  and  C_26
REMARK    6  A    between atoms: C_26  and  O_27
REMARK                            x       y       z     vdW  Elec       q    Type
REMARK                         _______ _______ _______ _____ _____    ______ ____
ROOT
ATOM      1  O   UNL     1      31.725 -14.092 -24.109  0.00  0.00    -0.218 OA
ATOM      2  O   UNL     1      34.337 -13.150 -24.963  0.00  0.00    -0.306 OA
ATOM      3  O   UNL     1      33.143 -11.507 -23.820  0.00  0.00    -0.293 OA
ATOM      4  O   UNL     1      32.043 -13.490 -25.400  0.00  0.00    -0.197 OA
ATOM      5  C   UNL     1      32.808 -13.862 -23.170  0.00  0.00    +0.178 C 
ATOM      6  C   UNL     1      33.466 -15.267 -22.989  0.00  0.00    +0.033 C 
ATOM      7  C   UNL     1      32.122 -13.384 -21.861  0.00  0.00    +0.039 C 
ATOM      8  C   UNL     1      34.382 -15.342 -21.739  0.00  0.00    +0.003 C 
ATOM      9  C   UNL     1      33.787 -12.779 -23.692  0.00  0.00    +0.268 C 
ATOM     10  C   UNL     1      33.062 -13.483 -20.649  0.00  0.00    +0.003 C 
ATOM     11  C   UNL     1      31.541 -11.958 -22.057  0.00  0.00    +0.073 C 
ATOM     12  C   UNL     1      34.214 -15.771 -24.246  0.00  0.00    +0.008 C 
ATOM     13  C   UNL     1      33.626 -14.886 -20.488  0.00  0.00    +0.000 C 
ATOM     14  C   UNL     1      33.379 -13.866 -25.747  0.00  0.00    +0.221 C 
ATOM     15  C   UNL     1      33.602 -15.382 -25.596  0.00  0.00    +0.059 C 
ATOM     16  C   UNL     1      32.613 -11.001 -22.600  0.00  0.00    +0.292 C 
ATOM     17  C   UNL     1      34.938 -16.751 -21.496  0.00  0.00    +0.000 C 
ATOM     18  C   UNL     1      30.868 -11.405 -20.797  0.00  0.00    +0.007 C 
ATOM     19  C   UNL     1      33.576 -13.445 -27.201  0.00  0.00    +0.064 C 
ENDROOT
BRANCH  16  20
ATOM     20  O   UNL     1      32.014  -9.728 -22.838  0.00  0.00    -0.424 OA
BRANCH  20  22
ATOM     21  O   UNL     1      33.836  -8.321 -22.980  0.00  0.00    -0.250 OA
ATOM     22  C   UNL     1      32.767  -8.643 -22.480  0.00  0.00    +0.319 C 
BRANCH  22  23
ATOM     23  C   UNL     1      32.065  -7.905 -21.359  0.00  0.00    +0.121 C 
BRANCH  23  24
ATOM     24  C   UNL     1      32.272  -6.396 -21.415  0.00  0.00    +0.121 C 
BRANCH  24  26
ATOM     25  O   UNL     1      30.810  -5.876 -23.268  0.00  0.00    -0.250 OA
ATOM     26  C   UNL     1      31.112  -5.709 -22.093  0.00  0.00    +0.314 C 
BRANCH  26  27
ATOM     27  O   UNL     1      30.421  -4.901 -21.253  0.00  0.00    -0.480 OA
ATOM     28  H   UNL     1      30.529  -3.971 -21.301  0.00  0.00    +0.295 HD
ENDBRANCH  26  27
ENDBRANCH  24  26
ENDBRANCH  23  24
ENDBRANCH  22  23
ENDBRANCH  20  22
ENDBRANCH  16  20
TORSDOF 6
ENDMDL
MODEL 5
REMARK VINA RESULT:      -8.8     10.875     14.196
REMARK  Name = 6917864
REMARK  6 active torsions:
REMARK  status: ('A' for Active; 'I' for Inactive)
REMARK    1  A    between atoms: C_16  and  O_20
REMARK    2  A    between atoms: O_20  and  C_22
REMARK    3  A    between atoms: C_22  and  C_23
REMARK    4  A    between atoms: C_23  and  C_24
REMARK    5  A    between atoms: C_24  and  C_26
REMARK    6  A    between atoms: C_26  and  O_27
REMARK                            x       y       z     vdW  Elec       q    Type
REMARK                         _______ _______ _______ _____ _____    ______ ____
ROOT
ATOM      1  O   UNL     1      31.713 -14.054 -24.035  0.00  0.00    -0.218 OA
ATOM      2  O   UNL     1      34.301 -13.025 -24.863  0.00  0.00    -0.306 OA
ATOM      3  O   UNL     1      33.092 -11.464 -23.624  0.00  0.00    -0.293 OA
ATOM      4  O   UNL     1      32.008 -13.380 -25.295  0.00  0.00    -0.197 OA
ATOM      5  C   UNL     1      32.802 -13.855 -23.095  0.00  0.00    +0.178 C 
ATOM      6  C   UNL     1      33.484 -15.257 -22.994  0.00  0.00    +0.033 C 
ATOM      7  C   UNL     1      32.122 -13.457 -21.757  0.00  0.00    +0.039 C 
ATOM      8  C   UNL     1      34.413 -15.382 -21.758  0.00  0.00    +0.003 C 
ATOM      9  C   UNL     1      33.758 -12.730 -23.569  0.00  0.00    +0.268 C 
ATOM     10  C   UNL     1      33.076 -13.604 -20.560  0.00  0.00    +0.003 C 
ATOM     11  C   UNL     1      31.516 -12.033 -21.872  0.00  0.00    +0.073 C 
ATOM     12  C   UNL     1      34.227 -15.682 -24.283  0.00  0.00    +0.008 C 
ATOM     13  C   UNL     1      33.664 -15.004 -20.478  0.00  0.00    +0.000 C 
ATOM     14  C   UNL     1      33.346 -13.715 -25.674  0.00  0.00    +0.221 C 
ATOM     15  C   UNL     1      33.595 -15.234 -25.604  0.00  0.00    +0.059 C 
ATOM     16  C   UNL     1      32.567 -11.031 -22.374  0.00  0.00    +0.292 C 
ATOM     17  C   UNL     1      34.995 -16.792 -21.595  0.00  0.00    +0.000 C 
ATOM     18  C   UNL     1      30.848 -11.558 -20.578  0.00  0.00    +0.007 C 
ATOM     19  C   UNL     1      33.521 -13.216 -27.106  0.00  0.00    +0.064 C 
ENDROOT
BRANCH  16  20
ATOM     20  O   UNL     1      31.946  -9.757 -22.539  0.00  0.00    -0.424 OA
BRANCH  20  22
ATOM     21  O   UNL     1      32.523  -8.706 -20.569  0.00  0.00    -0.250 OA
ATOM     22  C   UNL     1      32.472  -8.740 -21.791  0.00  0.00    +0.319 C 
BRANCH  22  23
ATOM     23  C   UNL     1      32.981  -7.658 -22.721  0.00  0.00    +0.121 C 
BRANCH  23  24
ATOM     24  C   UNL     1      34.490  -7.709 -22.928  0.00  0.00    +0.121 C 
BRANCH  24  26
ATOM     25  O   UNL     1      34.685  -7.958 -25.325  0.00  0.00    -0.250 OA
ATOM     26  C   UNL     1      34.843  -8.431 -24.206  0.00  0.00    +0.314 C 
BRANCH  26  27
ATOM     27  O   UNL     1      35.377  -9.656 -23.982  0.00  0.00    -0.480 OA
ATOM     28  H   UNL     1      35.166 -10.124 -23.199  0.00  0.00    +0.295 HD
ENDBRANCH  26  27
ENDBRANCH  24  26
ENDBRANCH  23  24
ENDBRANCH  22  23
ENDBRANCH  20  22
ENDBRANCH  16  20
TORSDOF 6
ENDMDL
MODEL 6
REMARK VINA RESULT:      -8.4     12.708     17.445
REMARK  Name = 6917864
REMARK  6 active torsions:
REMARK  status: ('A' for Active; 'I' for Inactive)
REMARK    1  A    between atoms: C_16  and  O_20
REMARK    2  A    between atoms: O_20  and  C_22
REMARK    3  A    between atoms: C_22  and  C_23
REMARK    4  A    between atoms: C_23  and  C_24
REMARK    5  A    between atoms: C_24  and  C_26
REMARK    6  A    between atoms: C_26  and  O_27
REMARK                            x       y       z     vdW  Elec       q    Type
REMARK                         _______ _______ _______ _____ _____    ______ ____
ROOT
ATOM      1  O   UNL     1      34.573  -7.410 -22.647  0.00  0.00    -0.218 OA
ATOM      2  O   UNL     1      33.198  -9.012 -24.643  0.00  0.00    -0.306 OA
ATOM      3  O   UNL     1      32.588  -9.603 -22.472  0.00  0.00    -0.293 OA
ATOM      4  O   UNL     1      35.064  -8.647 -23.245  0.00  0.00    -0.197 OA
ATOM      5  C   UNL     1      33.158  -7.247 -22.927  0.00  0.00    +0.178 C 
ATOM      6  C   UNL     1      33.101  -6.070 -23.953  0.00  0.00    +0.033 C 
ATOM      7  C   UNL     1      32.514  -6.848 -21.571  0.00  0.00    +0.039 C 
ATOM      8  C   UNL     1      31.680  -5.463 -24.090  0.00  0.00    +0.003 C 
ATOM      9  C   UNL     1      32.532  -8.563 -23.455  0.00  0.00    +0.268 C 
ATOM     10  C   UNL     1      31.112  -6.245 -21.754  0.00  0.00    +0.003 C 
ATOM     11  C   UNL     1      32.525  -8.061 -20.602  0.00  0.00    +0.073 C 
ATOM     12  C   UNL     1      33.678  -6.428 -25.344  0.00  0.00    +0.008 C 
ATOM     13  C   UNL     1      31.128  -5.068 -22.717  0.00  0.00    +0.000 C 
ATOM     14  C   UNL     1      34.593  -8.704 -24.595  0.00  0.00    +0.221 C 
ATOM     15  C   UNL     1      34.869  -7.391 -25.351  0.00  0.00    +0.059 C 
ATOM     16  C   UNL     1      31.899  -9.297 -21.265  0.00  0.00    +0.292 C 
ATOM     17  C   UNL     1      31.645  -4.236 -25.010  0.00  0.00    +0.000 C 
ATOM     18  C   UNL     1      31.882  -7.753 -19.247  0.00  0.00    +0.007 C 
ATOM     19  C   UNL     1      35.337  -9.862 -25.257  0.00  0.00    +0.064 C 
ENDROOT
BRANCH  16  20
ATOM     20  O   UNL     1      32.003 -10.402 -20.369  0.00  0.00    -0.424 OA
BRANCH  20  22
ATOM     21  O   UNL     1      30.115 -11.570 -20.994  0.00  0.00    -0.250 OA
ATOM     22  C   UNL     1      31.308 -11.524 -20.729  0.00  0.00    +0.319 C 
BRANCH  22  23
ATOM     23  C   UNL     1      32.257 -12.705 -20.744  0.00  0.00    +0.121 C 
BRANCH  23  24
ATOM     24  C   UNL     1      32.184 -13.514 -22.034  0.00  0.00    +0.121 C 
BRANCH  24  26
ATOM     25  O   UNL     1      34.310 -13.941 -23.101  0.00  0.00    -0.250 OA
ATOM     26  C   UNL     1      33.347 -13.201 -22.942  0.00  0.00    +0.314 C 
BRANCH  26  27
ATOM     27  O   UNL     1      33.202 -12.018 -23.587  0.00  0.00    -0.480 OA
ATOM     28  H   UNL     1      33.847 -11.739 -24.207  0.00  0.00    +0.295 HD
ENDBRANCH  26  27
ENDBRANCH  24  26
ENDBRANCH  23  24
ENDBRANCH  22  23
ENDBRANCH  20  22
ENDBRANCH  16  20
TORSDOF 6
ENDMDL
MODEL 7
REMARK VINA RESULT:      -8.2      2.316      6.628
REMARK  Name = 6917864
REMARK  6 active torsions:
REMARK  status: ('A' for Active; 'I' for Inactive)
REMARK    1  A    between atoms: C_16  and  O_20
REMARK    2  A    between atoms: O_20  and  C_22
REMARK    3  A    between atoms: C_22  and  C_23
REMARK    4  A    between atoms: C_23  and  C_24
REMARK    5  A    between atoms: C_24  and  C_26
REMARK    6  A    between atoms: C_26  and  O_27
REMARK                            x       y       z     vdW  Elec       q    Type
REMARK                         _______ _______ _______ _____ _____    ______ ____
ROOT
ATOM      1  O   UNL     1      33.779 -22.205 -15.537  0.00  0.00    -0.218 OA
ATOM      2  O   UNL     1      33.815 -24.249 -17.602  0.00  0.00    -0.306 OA
ATOM      3  O   UNL     1      35.395 -24.656 -15.937  0.00  0.00    -0.293 OA
ATOM      4  O   UNL     1      34.547 -22.163 -16.776  0.00  0.00    -0.197 OA
ATOM      5  C   UNL     1      33.285 -23.550 -15.301  0.00  0.00    +0.178 C 
ATOM      6  C   UNL     1      31.746 -23.444 -15.549  0.00  0.00    +0.033 C 
ATOM      7  C   UNL     1      33.600 -23.848 -13.810  0.00  0.00    +0.039 C 
ATOM      8  C   UNL     1      30.963 -24.653 -14.973  0.00  0.00    +0.003 C 
ATOM      9  C   UNL     1      33.993 -24.580 -16.218  0.00  0.00    +0.268 C 
ATOM     10  C   UNL     1      32.797 -25.047 -13.280  0.00  0.00    +0.003 C 
ATOM     11  C   UNL     1      35.131 -24.016 -13.614  0.00  0.00    +0.073 C 
ATOM     12  C   UNL     1      31.369 -23.204 -17.030  0.00  0.00    +0.008 C 
ATOM     13  C   UNL     1      31.303 -24.863 -13.495  0.00  0.00    +0.000 C 
ATOM     14  C   UNL     1      33.790 -22.832 -17.790  0.00  0.00    +0.221 C 
ATOM     15  C   UNL     1      32.335 -22.331 -17.838  0.00  0.00    +0.059 C 
ATOM     16  C   UNL     1      35.699 -25.045 -14.603  0.00  0.00    +0.292 C 
ATOM     17  C   UNL     1      29.443 -24.497 -15.116  0.00  0.00    +0.000 C 
ATOM     18  C   UNL     1      35.520 -24.338 -12.168  0.00  0.00    +0.007 C 
ATOM     19  C   UNL     1      34.495 -22.537 -19.112  0.00  0.00    +0.064 C 
ENDROOT
BRANCH  16  20
ATOM     20  O   UNL     1      37.115 -25.106 -14.439  0.00  0.00    -0.424 OA
BRANCH  20  22
ATOM     21  O   UNL     1      37.131 -27.351 -13.910  0.00  0.00    -0.250 OA
ATOM     22  C   UNL     1      37.590 -26.222 -13.806  0.00  0.00    +0.319 C 
BRANCH  22  23
ATOM     23  C   UNL     1      38.778 -25.833 -12.950  0.00  0.00    +0.121 C 
BRANCH  23  24
ATOM     24  C   UNL     1      39.877 -25.129 -13.737  0.00  0.00    +0.121 C 
BRANCH  24  26
ATOM     25  O   UNL     1      41.365 -26.984 -14.172  0.00  0.00    -0.250 OA
ATOM     26  C   UNL     1      40.635 -26.102 -14.607  0.00  0.00    +0.314 C 
BRANCH  26  27
ATOM     27  O   UNL     1      40.402 -25.911 -15.928  0.00  0.00    -0.480 OA
ATOM     28  H   UNL     1      39.714 -26.382 -16.356  0.00  0.00    +0.295 HD
ENDBRANCH  26  27
ENDBRANCH  24  26
ENDBRANCH  23  24
ENDBRANCH  22  23
ENDBRANCH  20  22
ENDBRANCH  16  20
TORSDOF 6
ENDMDL
MODEL 8
REMARK VINA RESULT:      -8.1      3.344      5.042
REMARK  Name = 6917864
REMARK  6 active torsions:
REMARK  status: ('A' for Active; 'I' for Inactive)
REMARK    1  A    between atoms: C_16  and  O_20
REMARK    2  A    between atoms: O_20  and  C_22
REMARK    3  A    between atoms: C_22  and  C_23
REMARK    4  A    between atoms: C_23  and  C_24
REMARK    5  A    between atoms: C_24  and  C_26
REMARK    6  A    between atoms: C_26  and  O_27
REMARK                            x       y       z     vdW  Elec       q    Type
REMARK                         _______ _______ _______ _____ _____    ______ ____
ROOT
ATOM      1  O   UNL     1      35.315 -24.641 -15.804  0.00  0.00    -0.218 OA
ATOM      2  O   UNL     1      35.723 -21.775 -15.549  0.00  0.00    -0.306 OA
ATOM      3  O   UNL     1      33.503 -22.382 -15.174  0.00  0.00    -0.293 OA
ATOM      4  O   UNL     1      35.255 -23.664 -16.885  0.00  0.00    -0.197 OA
ATOM      5  C   UNL     1      35.276 -23.966 -14.519  0.00  0.00    +0.178 C 
ATOM      6  C   UNL     1      36.720 -24.139 -13.949  0.00  0.00    +0.033 C 
ATOM      7  C   UNL     1      34.236 -24.752 -13.674  0.00  0.00    +0.039 C 
ATOM      8  C   UNL     1      36.803 -23.849 -12.428  0.00  0.00    +0.003 C 
ATOM      9  C   UNL     1      34.840 -22.486 -14.671  0.00  0.00    +0.268 C 
ATOM     10  C   UNL     1      34.358 -24.439 -12.174  0.00  0.00    +0.003 C 
ATOM     11  C   UNL     1      32.806 -24.501 -14.225  0.00  0.00    +0.073 C 
ATOM     12  C   UNL     1      37.793 -23.332 -14.719  0.00  0.00    +0.008 C 
ATOM     13  C   UNL     1      35.770 -24.681 -11.662  0.00  0.00    +0.000 C 
ATOM     14  C   UNL     1      36.196 -22.625 -16.597  0.00  0.00    +0.221 C 
ATOM     15  C   UNL     1      37.579 -23.195 -16.229  0.00  0.00    +0.059 C 
ATOM     16  C   UNL     1      32.523 -22.996 -14.346  0.00  0.00    +0.292 C 
ATOM     17  C   UNL     1      38.194 -24.127 -11.846  0.00  0.00    +0.000 C 
ATOM     18  C   UNL     1      31.719 -25.225 -13.426  0.00  0.00    +0.007 C 
ATOM     19  C   UNL     1      36.294 -21.775 -17.862  0.00  0.00    +0.064 C 
ENDROOT
BRANCH  16  20
ATOM     20  O   UNL     1      31.233 -22.817 -14.929  0.00  0.00    -0.424 OA
BRANCH  20  22
ATOM     21  O   UNL     1      31.791 -22.804 -17.167  0.00  0.00    -0.250 OA
ATOM     22  C   UNL     1      31.113 -23.211 -16.234  0.00  0.00    +0.319 C 
BRANCH  22  23
ATOM     23  C   UNL     1      29.998 -24.232 -16.338  0.00  0.00    +0.121 C 
BRANCH  23  24
ATOM     24  C   UNL     1      28.673 -23.729 -15.778  0.00  0.00    +0.121 C 
BRANCH  24  26
ATOM     25  O   UNL     1      27.826 -21.664 -16.705  0.00  0.00    -0.250 OA
ATOM     26  C   UNL     1      27.939 -22.881 -16.788  0.00  0.00    +0.314 C 
BRANCH  26  27
ATOM     27  O   UNL     1      27.437 -23.608 -17.814  0.00  0.00    -0.480 OA
ATOM     28  H   UNL     1      27.888 -23.635 -18.635  0.00  0.00    +0.295 HD
ENDBRANCH  26  27
ENDBRANCH  24  26
ENDBRANCH  23  24
ENDBRANCH  22  23
ENDBRANCH  20  22
ENDBRANCH  16  20
TORSDOF 6
ENDMDL
MODEL 9
REMARK VINA RESULT:      -8.1      2.864      6.660
REMARK  Name = 6917864
REMARK  6 active torsions:
REMARK  status: ('A' for Active; 'I' for Inactive)
REMARK    1  A    between atoms: C_16  and  O_20
REMARK    2  A    between atoms: O_20  and  C_22
REMARK    3  A    between atoms: C_22  and  C_23
REMARK    4  A    between atoms: C_23  and  C_24
REMARK    5  A    between atoms: C_24  and  C_26
REMARK    6  A    between atoms: C_26  and  O_27
REMARK                            x       y       z     vdW  Elec       q    Type
REMARK                         _______ _______ _______ _____ _____    ______ ____
ROOT
ATOM      1  O   UNL     1      34.701 -24.838 -15.988  0.00  0.00    -0.218 OA
ATOM      2  O   UNL     1      33.372 -22.722 -14.506  0.00  0.00    -0.306 OA
ATOM      3  O   UNL     1      35.626 -22.907 -13.941  0.00  0.00    -0.293 OA
ATOM      4  O   UNL     1      33.988 -24.990 -14.725  0.00  0.00    -0.197 OA
ATOM      5  C   UNL     1      34.953 -23.433 -16.254  0.00  0.00    +0.178 C 
ATOM      6  C   UNL     1      33.998 -23.088 -17.441  0.00  0.00    +0.033 C 
ATOM      7  C   UNL     1      36.443 -23.358 -16.685  0.00  0.00    +0.039 C 
ATOM      8  C   UNL     1      34.378 -21.761 -18.149  0.00  0.00    +0.003 C 
ATOM      9  C   UNL     1      34.713 -22.567 -14.990  0.00  0.00    +0.268 C 
ATOM     10  C   UNL     1      36.773 -22.031 -17.388  0.00  0.00    +0.003 C 
ATOM     11  C   UNL     1      37.363 -23.637 -15.466  0.00  0.00    +0.073 C 
ATOM     12  C   UNL     1      32.499 -23.093 -17.055  0.00  0.00    +0.008 C 
ATOM     13  C   UNL     1      35.850 -21.776 -18.569  0.00  0.00    +0.000 C 
ATOM     14  C   UNL     1      32.903 -24.056 -14.713  0.00  0.00    +0.221 C 
ATOM     15  C   UNL     1      32.075 -24.129 -16.010  0.00  0.00    +0.059 C 
ATOM     16  C   UNL     1      36.995 -22.727 -14.284  0.00  0.00    +0.292 C 
ATOM     17  C   UNL     1      33.512 -21.479 -19.383  0.00  0.00    +0.000 C 
ATOM     18  C   UNL     1      38.854 -23.555 -15.807  0.00  0.00    +0.007 C 
ATOM     19  C   UNL     1      32.036 -24.425 -13.512  0.00  0.00    +0.064 C 
ENDROOT
BRANCH  16  20
ATOM     20  O   UNL     1      37.811 -23.074 -13.166  0.00  0.00    -0.424 OA
BRANCH  20  22
ATOM     21  O   UNL     1      36.961 -22.753 -11.047  0.00  0.00    -0.250 OA
ATOM     22  C   UNL     1      37.139 -23.450 -12.036  0.00  0.00    +0.319 C 
BRANCH  22  23
ATOM     23  C   UNL     1      36.652 -24.874 -12.205  0.00  0.00    +0.121 C 
BRANCH  23  24
ATOM     24  C   UNL     1      37.774 -25.856 -12.521  0.00  0.00    +0.121 C 
BRANCH  24  26
ATOM     25  O   UNL     1      38.419 -27.076 -14.505  0.00  0.00    -0.250 OA
ATOM     26  C   UNL     1      37.535 -26.554 -13.838  0.00  0.00    +0.314 C 
BRANCH  26  27
ATOM     27  O   UNL     1      36.228 -26.562 -14.194  0.00  0.00    -0.480 OA
ATOM     28  H   UNL     1      35.745 -25.760 -14.225  0.00  0.00    +0.295 HD
ENDBRANCH  26  27
ENDBRANCH  24  26
ENDBRANCH  23  24
ENDBRANCH  22  23
ENDBRANCH  20  22
ENDBRANCH  16  20
TORSDOF 6
ENDMDL
