MODEL 1
REMARK VINA RESULT:      -9.1      0.000      0.000
REMARK  Name = 3332
REMARK  4 active torsions:
REMARK  status: ('A' for Active; 'I' for Inactive)
REMARK    1  A    between atoms: C_1  and  C_7
REMARK    2  A    between atoms: C_2  and  C_13
REMARK    3  A    between atoms: C_13  and  C_15
REMARK    4  A    between atoms: C_15  and  O_16
REMARK                            x       y       z     vdW  Elec       q    Type
REMARK                         _______ _______ _______ _____ _____    ______ ____
ROOT
ATOM      1  C   UNL     1      34.796 -19.124 -21.725  0.00  0.00    -0.000 C 
ATOM      2  C   UNL     1      34.836 -21.029 -19.687  0.00  0.00    -0.011 C 
ATOM      3  C   UNL     1      33.598 -19.630 -21.220  0.00  0.00    -0.000 C 
ATOM      4  C   UNL     1      36.014 -19.571 -21.213  0.00  0.00    -0.000 C 
ATOM      5  C   UNL     1      33.619 -20.582 -20.200  0.00  0.00    -0.004 C 
ATOM      6  C   UNL     1      36.035 -20.523 -20.193  0.00  0.00    -0.004 C 
ENDROOT
BRANCH   1   7
ATOM      7  C   UNL     1      34.775 -18.136 -22.782  0.00  0.00    -0.000 C 
ATOM      8  C   UNL     1      34.670 -18.540 -24.113  0.00  0.00    -0.000 C 
ATOM      9  C   UNL     1      34.860 -16.779 -22.470  0.00  0.00    -0.000 C 
ATOM     10  C   UNL     1      34.650 -17.587 -25.132  0.00  0.00    +0.000 C 
ATOM     11  C   UNL     1      34.839 -15.826 -23.489  0.00  0.00    +0.000 C 
ATOM     12  C   UNL     1      34.734 -16.230 -24.820  0.00  0.00    +0.000 C 
ENDBRANCH   1   7
BRANCH   2  13
ATOM     13  C   UNL     1      34.859 -22.047 -18.598  0.00  0.00    +0.136 C 
BRANCH  13  15
ATOM     14  O   UNL     1      32.612 -22.791 -18.024  0.00  0.00    -0.250 OA
ATOM     15  C   UNL     1      33.663 -22.980 -18.619  0.00  0.00    +0.318 C 
BRANCH  15  16
ATOM     16  O   UNL     1      33.890 -24.077 -19.389  0.00  0.00    -0.480 OA
ATOM     17  H   UNL     1      34.763 -24.401 -19.497  0.00  0.00    +0.295 HD
ENDBRANCH  15  16
ENDBRANCH  13  15
ENDBRANCH   2  13
TORSDOF 4
ENDMDL
MODEL 2
REMARK VINA RESULT:      -9.1      3.826      6.673
REMARK  Name = 3332
REMARK  4 active torsions:
REMARK  status: ('A' for Active; 'I' for Inactive)
REMARK    1  A    between atoms: C_1  and  C_7
REMARK    2  A    between atoms: C_2  and  C_13
REMARK    3  A    between atoms: C_13  and  C_15
REMARK    4  A    between atoms: C_15  and  O_16
REMARK                            x       y       z     vdW  Elec       q    Type
REMARK                         _______ _______ _______ _____ _____    ______ ____
ROOT
ATOM      1  C   UNL     1      34.731 -19.046 -21.734  0.00  0.00    -0.000 C 
ATOM      2  C   UNL     1      34.880 -17.025 -23.651  0.00  0.00    -0.011 C 
ATOM      3  C   UNL     1      34.730 -17.708 -21.339  0.00  0.00    -0.000 C 
ATOM      4  C   UNL     1      34.807 -19.374 -23.087  0.00  0.00    -0.000 C 
ATOM      5  C   UNL     1      34.804 -16.698 -22.298  0.00  0.00    -0.004 C 
ATOM      6  C   UNL     1      34.881 -18.364 -24.047  0.00  0.00    -0.004 C 
ENDROOT
BRANCH   1   7
ATOM      7  C   UNL     1      34.653 -20.094 -20.739  0.00  0.00    -0.000 C 
ATOM      8  C   UNL     1      35.822 -20.662 -20.231  0.00  0.00    -0.000 C 
ATOM      9  C   UNL     1      33.409 -20.538 -20.289  0.00  0.00    -0.000 C 
ATOM     10  C   UNL     1      35.747 -21.673 -19.272  0.00  0.00    +0.000 C 
ATOM     11  C   UNL     1      33.335 -21.548 -19.329  0.00  0.00    +0.000 C 
ATOM     12  C   UNL     1      34.503 -22.115 -18.821  0.00  0.00    +0.000 C 
ENDBRANCH   1   7
BRANCH   2  13
ATOM     13  C   UNL     1      34.960 -15.946 -24.676  0.00  0.00    +0.136 C 
BRANCH  13  15
ATOM     14  O   UNL     1      33.138 -16.108 -26.286  0.00  0.00    -0.250 OA
ATOM     15  C   UNL     1      33.618 -15.590 -25.286  0.00  0.00    +0.318 C 
BRANCH  15  16
ATOM     16  O   UNL     1      32.988 -14.610 -24.587  0.00  0.00    -0.480 OA
ATOM     17  H   UNL     1      32.948 -13.739 -24.932  0.00  0.00    +0.295 HD
ENDBRANCH  15  16
ENDBRANCH  13  15
ENDBRANCH   2  13
TORSDOF 4
ENDMDL
MODEL 3
REMARK VINA RESULT:      -9.1      3.828      6.666
REMARK  Name = 3332
REMARK  4 active torsions:
REMARK  status: ('A' for Active; 'I' for Inactive)
REMARK    1  A    between atoms: C_1  and  C_7
REMARK    2  A    between atoms: C_2  and  C_13
REMARK    3  A    between atoms: C_13  and  C_15
REMARK    4  A    between atoms: C_15  and  O_16
REMARK                            x       y       z     vdW  Elec       q    Type
REMARK                         _______ _______ _______ _____ _____    ______ ____
ROOT
ATOM      1  C   UNL     1      34.734 -19.046 -21.736  0.00  0.00    -0.000 C 
ATOM      2  C   UNL     1      34.891 -17.017 -23.644  0.00  0.00    -0.011 C 
ATOM      3  C   UNL     1      34.709 -17.710 -21.337  0.00  0.00    -0.000 C 
ATOM      4  C   UNL     1      34.838 -19.369 -23.090  0.00  0.00    -0.000 C 
ATOM      5  C   UNL     1      34.787 -16.696 -22.292  0.00  0.00    -0.004 C 
ATOM      6  C   UNL     1      34.916 -18.354 -24.044  0.00  0.00    -0.004 C 
ENDROOT
BRANCH   1   7
ATOM      7  C   UNL     1      34.652 -20.099 -20.747  0.00  0.00    -0.000 C 
ATOM      8  C   UNL     1      33.406 -20.560 -20.321  0.00  0.00    -0.000 C 
ATOM      9  C   UNL     1      35.818 -20.654 -20.219  0.00  0.00    -0.000 C 
ATOM     10  C   UNL     1      33.326 -21.576 -19.368  0.00  0.00    +0.000 C 
ATOM     11  C   UNL     1      35.738 -21.670 -19.266  0.00  0.00    +0.000 C 
ATOM     12  C   UNL     1      34.493 -22.131 -18.841  0.00  0.00    +0.000 C 
ENDBRANCH   1   7
BRANCH   2  13
ATOM     13  C   UNL     1      34.975 -15.933 -24.664  0.00  0.00    +0.136 C 
BRANCH  13  15
ATOM     14  O   UNL     1      33.181 -16.154 -26.297  0.00  0.00    -0.250 OA
ATOM     15  C   UNL     1      33.642 -15.602 -25.307  0.00  0.00    +0.318 C 
BRANCH  15  16
ATOM     16  O   UNL     1      32.997 -14.603 -24.650  0.00  0.00    -0.480 OA
ATOM     17  H   UNL     1      32.391 -14.055 -25.109  0.00  0.00    +0.295 HD
ENDBRANCH  15  16
ENDBRANCH  13  15
ENDBRANCH   2  13
TORSDOF 4
ENDMDL
MODEL 4
REMARK VINA RESULT:      -8.9      1.381      1.856
REMARK  Name = 3332
REMARK  4 active torsions:
REMARK  status: ('A' for Active; 'I' for Inactive)
REMARK    1  A    between atoms: C_1  and  C_7
REMARK    2  A    between atoms: C_2  and  C_13
REMARK    3  A    between atoms: C_13  and  C_15
REMARK    4  A    between atoms: C_15  and  O_16
REMARK                            x       y       z     vdW  Elec       q    Type
REMARK                         _______ _______ _______ _____ _____    ______ ____
ROOT
ATOM      1  C   UNL     1      34.385 -19.891 -20.786  0.00  0.00    -0.000 C 
ATOM      2  C   UNL     1      33.904 -22.041 -19.075  0.00  0.00    -0.011 C 
ATOM      3  C   UNL     1      33.088 -20.158 -20.350  0.00  0.00    -0.000 C 
ATOM      4  C   UNL     1      35.442 -20.700 -20.367  0.00  0.00    -0.000 C 
ATOM      5  C   UNL     1      32.847 -21.233 -19.493  0.00  0.00    -0.004 C 
ATOM      6  C   UNL     1      35.202 -21.774 -19.511  0.00  0.00    -0.004 C 
ENDROOT
BRANCH   1   7
ATOM      7  C   UNL     1      34.636 -18.776 -21.673  0.00  0.00    -0.000 C 
ATOM      8  C   UNL     1      34.862 -19.002 -23.031  0.00  0.00    -0.000 C 
ATOM      9  C   UNL     1      34.652 -17.475 -21.170  0.00  0.00    -0.000 C 
ATOM     10  C   UNL     1      35.104 -17.926 -23.886  0.00  0.00    +0.000 C 
ATOM     11  C   UNL     1      34.892 -16.399 -22.026  0.00  0.00    +0.000 C 
ATOM     12  C   UNL     1      35.118 -16.625 -23.384  0.00  0.00    +0.000 C 
ENDBRANCH   1   7
BRANCH   2  13
ATOM     13  C   UNL     1      33.646 -23.191 -18.160  0.00  0.00    +0.136 C 
BRANCH  13  15
ATOM     14  O   UNL     1      35.582 -22.975 -16.697  0.00  0.00    -0.250 OA
ATOM     15  C   UNL     1      34.370 -23.081 -16.833  0.00  0.00    +0.318 C 
BRANCH  15  16
ATOM     16  O   UNL     1      33.509 -23.114 -15.782  0.00  0.00    -0.480 OA
ATOM     17  H   UNL     1      32.590 -23.226 -15.932  0.00  0.00    +0.295 HD
ENDBRANCH  15  16
ENDBRANCH  13  15
ENDBRANCH   2  13
TORSDOF 4
ENDMDL
MODEL 5
REMARK VINA RESULT:      -8.5      1.653      2.034
REMARK  Name = 3332
REMARK  4 active torsions:
REMARK  status: ('A' for Active; 'I' for Inactive)
REMARK    1  A    between atoms: C_1  and  C_7
REMARK    2  A    between atoms: C_2  and  C_13
REMARK    3  A    between atoms: C_13  and  C_15
REMARK    4  A    between atoms: C_15  and  O_16
REMARK                            x       y       z     vdW  Elec       q    Type
REMARK                         _______ _______ _______ _____ _____    ______ ____
ROOT
ATOM      1  C   UNL     1      34.908 -18.196 -21.311  0.00  0.00    -0.000 C 
ATOM      2  C   UNL     1      35.316 -20.725 -20.206  0.00  0.00    -0.011 C 
ATOM      3  C   UNL     1      33.815 -18.997 -20.979  0.00  0.00    -0.000 C 
ATOM      4  C   UNL     1      36.205 -18.660 -21.090  0.00  0.00    -0.000 C 
ATOM      5  C   UNL     1      34.020 -20.261 -20.426  0.00  0.00    -0.004 C 
ATOM      6  C   UNL     1      36.410 -19.924 -20.538  0.00  0.00    -0.004 C 
ENDROOT
BRANCH   1   7
ATOM      7  C   UNL     1      34.697 -16.884 -21.882  0.00  0.00    -0.000 C 
ATOM      8  C   UNL     1      34.721 -16.715 -23.267  0.00  0.00    -0.000 C 
ATOM      9  C   UNL     1      34.470 -15.788 -21.050  0.00  0.00    -0.000 C 
ATOM     10  C   UNL     1      34.518 -15.449 -23.819  0.00  0.00    +0.000 C 
ATOM     11  C   UNL     1      34.266 -14.523 -21.602  0.00  0.00    +0.000 C 
ATOM     12  C   UNL     1      34.290 -14.354 -22.986  0.00  0.00    +0.000 C 
ENDBRANCH   1   7
BRANCH   2  13
ATOM     13  C   UNL     1      35.534 -22.077 -19.617  0.00  0.00    +0.136 C 
BRANCH  13  15
ATOM     14  O   UNL     1      36.803 -21.464 -17.630  0.00  0.00    -0.250 OA
ATOM     15  C   UNL     1      35.852 -22.046 -18.134  0.00  0.00    +0.318 C 
BRANCH  15  16
ATOM     16  O   UNL     1      34.947 -22.752 -17.407  0.00  0.00    -0.480 OA
ATOM     17  H   UNL     1      35.069 -22.859 -16.484  0.00  0.00    +0.295 HD
ENDBRANCH  15  16
ENDBRANCH  13  15
ENDBRANCH   2  13
TORSDOF 4
ENDMDL
MODEL 6
REMARK VINA RESULT:      -8.4      4.328      7.016
REMARK  Name = 3332
REMARK  4 active torsions:
REMARK  status: ('A' for Active; 'I' for Inactive)
REMARK    1  A    between atoms: C_1  and  C_7
REMARK    2  A    between atoms: C_2  and  C_13
REMARK    3  A    between atoms: C_13  and  C_15
REMARK    4  A    between atoms: C_15  and  O_16
REMARK                            x       y       z     vdW  Elec       q    Type
REMARK                         _______ _______ _______ _____ _____    ______ ____
ROOT
ATOM      1  C   UNL     1      34.664 -17.726 -22.325  0.00  0.00    -0.000 C 
ATOM      2  C   UNL     1      33.947 -15.631 -24.021  0.00  0.00    -0.011 C 
ATOM      3  C   UNL     1      34.867 -17.841 -23.700  0.00  0.00    -0.000 C 
ATOM      4  C   UNL     1      34.103 -16.563 -21.798  0.00  0.00    -0.000 C 
ATOM      5  C   UNL     1      34.508 -16.793 -24.548  0.00  0.00    -0.004 C 
ATOM      6  C   UNL     1      33.744 -15.515 -22.645  0.00  0.00    -0.004 C 
ENDROOT
BRANCH   1   7
ATOM      7  C   UNL     1      35.037 -18.812 -21.445  0.00  0.00    -0.000 C 
ATOM      8  C   UNL     1      34.063 -19.690 -20.970  0.00  0.00    -0.000 C 
ATOM      9  C   UNL     1      36.371 -18.982 -21.072  0.00  0.00    -0.000 C 
ATOM     10  C   UNL     1      34.422 -20.738 -20.121  0.00  0.00    +0.000 C 
ATOM     11  C   UNL     1      36.730 -20.030 -20.224  0.00  0.00    +0.000 C 
ATOM     12  C   UNL     1      35.756 -20.908 -19.748  0.00  0.00    +0.000 C 
ENDBRANCH   1   7
BRANCH   2  13
ATOM     13  C   UNL     1      33.562 -14.511 -24.927  0.00  0.00    +0.136 C 
BRANCH  13  15
ATOM     14  O   UNL     1      32.484 -15.914 -26.601  0.00  0.00    -0.250 OA
ATOM     15  C   UNL     1      33.205 -14.963 -26.330  0.00  0.00    +0.318 C 
BRANCH  15  16
ATOM     16  O   UNL     1      33.785 -14.181 -27.278  0.00  0.00    -0.480 OA
ATOM     17  H   UNL     1      33.507 -13.293 -27.387  0.00  0.00    +0.295 HD
ENDBRANCH  15  16
ENDBRANCH  13  15
ENDBRANCH   2  13
TORSDOF 4
ENDMDL
MODEL 7
REMARK VINA RESULT:      -8.4      3.139      6.734
REMARK  Name = 3332
REMARK  4 active torsions:
REMARK  status: ('A' for Active; 'I' for Inactive)
REMARK    1  A    between atoms: C_1  and  C_7
REMARK    2  A    between atoms: C_2  and  C_13
REMARK    3  A    between atoms: C_13  and  C_15
REMARK    4  A    between atoms: C_15  and  O_16
REMARK                            x       y       z     vdW  Elec       q    Type
REMARK                         _______ _______ _______ _____ _____    ______ ____
ROOT
ATOM      1  C   UNL     1      34.659 -21.028 -19.627  0.00  0.00    -0.000 C 
ATOM      2  C   UNL     1      34.861 -19.311 -21.816  0.00  0.00    -0.011 C 
ATOM      3  C   UNL     1      33.505 -20.539 -20.238  0.00  0.00    -0.000 C 
ATOM      4  C   UNL     1      35.915 -20.658 -20.110  0.00  0.00    -0.000 C 
ATOM      5  C   UNL     1      33.607 -19.680 -21.334  0.00  0.00    -0.004 C 
ATOM      6  C   UNL     1      36.016 -19.800 -21.205  0.00  0.00    -0.004 C 
ENDROOT
BRANCH   1   7
ATOM      7  C   UNL     1      34.555 -21.919 -18.492  0.00  0.00    -0.000 C 
ATOM      8  C   UNL     1      35.644 -22.089 -17.637  0.00  0.00    -0.000 C 
ATOM      9  C   UNL     1      33.366 -22.608 -18.252  0.00  0.00    -0.000 C 
ATOM     10  C   UNL     1      35.543 -22.948 -16.542  0.00  0.00    +0.000 C 
ATOM     11  C   UNL     1      33.265 -23.466 -17.157  0.00  0.00    +0.000 C 
ATOM     12  C   UNL     1      34.354 -23.637 -16.302  0.00  0.00    +0.000 C 
ENDBRANCH   1   7
BRANCH   2  13
ATOM     13  C   UNL     1      34.970 -18.393 -22.986  0.00  0.00    +0.136 C 
BRANCH  13  15
ATOM     14  O   UNL     1      34.985 -16.463 -21.500  0.00  0.00    -0.250 OA
ATOM     15  C   UNL     1      35.216 -16.947 -22.600  0.00  0.00    +0.318 C 
BRANCH  15  16
ATOM     16  O   UNL     1      35.734 -16.229 -23.630  0.00  0.00    -0.480 OA
ATOM     17  H   UNL     1      35.270 -15.486 -23.964  0.00  0.00    +0.295 HD
ENDBRANCH  15  16
ENDBRANCH  13  15
ENDBRANCH   2  13
TORSDOF 4
ENDMDL
MODEL 8
REMARK VINA RESULT:      -8.3      4.495      7.194
REMARK  Name = 3332
REMARK  4 active torsions:
REMARK  status: ('A' for Active; 'I' for Inactive)
REMARK    1  A    between atoms: C_1  and  C_7
REMARK    2  A    between atoms: C_2  and  C_13
REMARK    3  A    between atoms: C_13  and  C_15
REMARK    4  A    between atoms: C_15  and  O_16
REMARK                            x       y       z     vdW  Elec       q    Type
REMARK                         _______ _______ _______ _____ _____    ______ ____
ROOT
ATOM      1  C   UNL     1      34.508 -17.345 -22.542  0.00  0.00    -0.000 C 
ATOM      2  C   UNL     1      33.760 -15.195 -24.154  0.00  0.00    -0.011 C 
ATOM      3  C   UNL     1      33.893 -16.230 -21.975  0.00  0.00    -0.000 C 
ATOM      4  C   UNL     1      34.750 -17.386 -23.916  0.00  0.00    -0.000 C 
ATOM      5  C   UNL     1      33.519 -15.155 -22.781  0.00  0.00    -0.004 C 
ATOM      6  C   UNL     1      34.376 -16.311 -24.722  0.00  0.00    -0.004 C 
ENDROOT
BRANCH   1   7
ATOM      7  C   UNL     1      34.895 -18.462 -21.707  0.00  0.00    -0.000 C 
ATOM      8  C   UNL     1      36.235 -18.646 -21.366  0.00  0.00    -0.000 C 
ATOM      9  C   UNL     1      33.928 -19.354 -21.243  0.00  0.00    -0.000 C 
ATOM     10  C   UNL     1      36.609 -19.722 -20.561  0.00  0.00    +0.000 C 
ATOM     11  C   UNL     1      34.302 -20.430 -20.437  0.00  0.00    +0.000 C 
ATOM     12  C   UNL     1      35.642 -20.614 -20.096  0.00  0.00    +0.000 C 
ENDBRANCH   1   7
BRANCH   2  13
ATOM     13  C   UNL     1      33.362 -14.044 -25.015  0.00  0.00    +0.136 C 
BRANCH  13  15
ATOM     14  O   UNL     1      33.921 -14.048 -27.386  0.00  0.00    -0.250 OA
ATOM     15  C   UNL     1      33.190 -14.414 -26.476  0.00  0.00    +0.318 C 
BRANCH  15  16
ATOM     16  O   UNL     1      32.111 -15.216 -26.672  0.00  0.00    -0.480 OA
ATOM     17  H   UNL     1      31.459 -15.297 -26.003  0.00  0.00    +0.295 HD
ENDBRANCH  15  16
ENDBRANCH  13  15
ENDBRANCH   2  13
TORSDOF 4
ENDMDL
MODEL 9
REMARK VINA RESULT:      -8.3      2.005      2.202
REMARK  Name = 3332
REMARK  4 active torsions:
REMARK  status: ('A' for Active; 'I' for Inactive)
REMARK    1  A    between atoms: C_1  and  C_7
REMARK    2  A    between atoms: C_2  and  C_13
REMARK    3  A    between atoms: C_13  and  C_15
REMARK    4  A    between atoms: C_15  and  O_16
REMARK                            x       y       z     vdW  Elec       q    Type
REMARK                         _______ _______ _______ _____ _____    ______ ____
ROOT
ATOM      1  C   UNL     1      35.247 -19.511 -21.394  0.00  0.00    -0.000 C 
ATOM      2  C   UNL     1      35.598 -21.252 -19.243  0.00  0.00    -0.011 C 
ATOM      3  C   UNL     1      34.137 -20.076 -20.767  0.00  0.00    -0.000 C 
ATOM      4  C   UNL     1      36.533 -19.816 -20.946  0.00  0.00    -0.000 C 
ATOM      5  C   UNL     1      34.313 -20.946 -19.690  0.00  0.00    -0.004 C 
ATOM      6  C   UNL     1      36.709 -20.686 -19.870  0.00  0.00    -0.004 C 
ENDROOT
BRANCH   1   7
ATOM      7  C   UNL     1      35.066 -18.607 -22.509  0.00  0.00    -0.000 C 
ATOM      8  C   UNL     1      34.760 -19.111 -23.773  0.00  0.00    -0.000 C 
ATOM      9  C   UNL     1      35.198 -17.231 -22.321  0.00  0.00    -0.000 C 
ATOM     10  C   UNL     1      34.585 -18.240 -24.849  0.00  0.00    +0.000 C 
ATOM     11  C   UNL     1      35.022 -16.359 -23.396  0.00  0.00    +0.000 C 
ATOM     12  C   UNL     1      34.716 -16.864 -24.660  0.00  0.00    +0.000 C 
ENDBRANCH   1   7
BRANCH   2  13
ATOM     13  C   UNL     1      35.785 -22.183 -18.093  0.00  0.00    +0.136 C 
BRANCH  13  15
ATOM     14  O   UNL     1      37.624 -22.604 -16.552  0.00  0.00    -0.250 OA
ATOM     15  C   UNL     1      36.952 -21.812 -17.199  0.00  0.00    +0.318 C 
BRANCH  15  16
ATOM     16  O   UNL     1      37.178 -20.472 -17.191  0.00  0.00    -0.480 OA
ATOM     17  H   UNL     1      37.996 -20.136 -16.879  0.00  0.00    +0.295 HD
ENDBRANCH  15  16
ENDBRANCH  13  15
ENDBRANCH   2  13
TORSDOF 4
ENDMDL
