MODEL 1
REMARK VINA RESULT:      -9.1      0.000      0.000
REMARK  Name = 4097
REMARK  7 active torsions:
REMARK  status: ('A' for Active; 'I' for Inactive)
REMARK    1  A    between atoms: C_2  and  C_16
REMARK    2  A    between atoms: C_16  and  O_17
REMARK    3  A    between atoms: O_17  and  C_18
REMARK    4  A    between atoms: C_18  and  C_19
REMARK    5  A    between atoms: C_19  and  N_20
REMARK    6  A    between atoms: N_20  and  C_22
REMARK    7  A    between atoms: N_20  and  C_24
REMARK                            x       y       z     vdW  Elec       q    Type
REMARK                         _______ _______ _______ _____ _____    ______ ____
ROOT
ATOM      1  O   UNL     1      32.390 -22.913 -17.918  0.00  0.00    -0.454 OA
ATOM      2  C   UNL     1      34.229 -22.937 -15.645  0.00  0.00    +0.078 C 
ATOM      3  C   UNL     1      34.636 -22.533 -17.038  0.00  0.00    +0.023 C 
ATOM      4  C   UNL     1      32.734 -23.074 -15.506  0.00  0.00    +0.041 C 
ATOM      5  C   UNL     1      33.708 -22.558 -18.084  0.00  0.00    +0.142 C 
ATOM      6  C   UNL     1      31.913 -23.068 -16.637  0.00  0.00    +0.145 C 
ATOM      7  C   UNL     1      35.955 -22.139 -17.308  0.00  0.00    +0.056 C 
ATOM      8  C   UNL     1      32.147 -23.224 -14.241  0.00  0.00    +0.003 C 
ATOM      9  C   UNL     1      34.094 -22.211 -19.382  0.00  0.00    +0.037 C 
ATOM     10  C   UNL     1      30.530 -23.226 -16.510  0.00  0.00    +0.037 C 
ATOM     11  C   UNL     1      36.338 -21.786 -18.604  0.00  0.00    -0.021 C 
ATOM     12  C   UNL     1      30.766 -23.373 -14.114  0.00  0.00    +0.000 C 
ATOM     13  C   UNL     1      35.408 -21.825 -19.640  0.00  0.00    -0.001 C 
ATOM     14  C   UNL     1      29.957 -23.377 -15.248  0.00  0.00    +0.003 C 
ENDROOT
BRANCH   2  16
ATOM     15  O   UNL     1      34.928 -25.222 -15.964  0.00  0.00    -0.245 OA
ATOM     16  C   UNL     1      34.903 -24.221 -15.260  0.00  0.00    +0.341 C 
BRANCH  16  17
ATOM     17  O   UNL     1      35.469 -24.087 -14.026  0.00  0.00    -0.448 OA
BRANCH  17  18
ATOM     18  C   UNL     1      36.726 -23.406 -13.996  0.00  0.00    +0.187 C 
BRANCH  18  19
ATOM     19  C   UNL     1      37.815 -24.326 -14.508  0.00  0.00    -0.025 C 
BRANCH  19  20
ATOM     20  N   UNL     1      38.377 -25.102 -13.373  0.00  0.00    +0.391 N 
ATOM     21  C   UNL     1      38.384 -24.260 -12.089  0.00  0.00    -0.096 C 
BRANCH  20  22
ATOM     22  C   UNL     1      37.542 -26.364 -13.111  0.00  0.00    -0.073 C 
ATOM     23  C   UNL     1      37.232 -27.038 -14.430  0.00  0.00    -0.024 C 
ENDBRANCH  20  22
BRANCH  20  24
ATOM     24  C   UNL     1      39.818 -25.536 -13.668  0.00  0.00    -0.073 C 
ATOM     25  C   UNL     1      40.150 -25.214 -15.108  0.00  0.00    -0.024 C 
ENDBRANCH  20  24
ENDBRANCH  19  20
ENDBRANCH  18  19
ENDBRANCH  17  18
ENDBRANCH  16  17
ENDBRANCH   2  16
TORSDOF 7
ENDMDL
MODEL 2
REMARK VINA RESULT:      -8.9      9.606     12.671
REMARK  Name = 4097
REMARK  7 active torsions:
REMARK  status: ('A' for Active; 'I' for Inactive)
REMARK    1  A    between atoms: C_2  and  C_16
REMARK    2  A    between atoms: C_16  and  O_17
REMARK    3  A    between atoms: O_17  and  C_18
REMARK    4  A    between atoms: C_18  and  C_19
REMARK    5  A    between atoms: C_19  and  N_20
REMARK    6  A    between atoms: N_20  and  C_22
REMARK    7  A    between atoms: N_20  and  C_24
REMARK                            x       y       z     vdW  Elec       q    Type
REMARK                         _______ _______ _______ _____ _____    ______ ____
ROOT
ATOM      1  O   UNL     1      33.232 -11.028 -24.239  0.00  0.00    -0.454 OA
ATOM      2  C   UNL     1      32.453 -13.553 -22.989  0.00  0.00    +0.078 C 
ATOM      3  C   UNL     1      32.221 -12.207 -22.355  0.00  0.00    +0.023 C 
ATOM      4  C   UNL     1      32.886 -13.437 -24.429  0.00  0.00    +0.041 C 
ATOM      5  C   UNL     1      32.633 -11.037 -23.001  0.00  0.00    +0.142 C 
ATOM      6  C   UNL     1      33.260 -12.199 -24.960  0.00  0.00    +0.145 C 
ATOM      7  C   UNL     1      31.602 -12.108 -21.100  0.00  0.00    +0.056 C 
ATOM      8  C   UNL     1      32.936 -14.572 -25.251  0.00  0.00    +0.003 C 
ATOM      9  C   UNL     1      32.444  -9.790 -22.399  0.00  0.00    +0.037 C 
ATOM     10  C   UNL     1      33.691 -12.097 -26.285  0.00  0.00    +0.037 C 
ATOM     11  C   UNL     1      31.409 -10.862 -20.501  0.00  0.00    -0.021 C 
ATOM     12  C   UNL     1      33.358 -14.469 -26.577  0.00  0.00    +0.000 C 
ATOM     13  C   UNL     1      31.832  -9.704 -21.149  0.00  0.00    -0.001 C 
ATOM     14  C   UNL     1      33.738 -13.232 -27.093  0.00  0.00    +0.003 C 
ENDROOT
BRANCH   2  16
ATOM     15  O   UNL     1      34.604 -13.934 -21.972  0.00  0.00    -0.245 OA
ATOM     16  C   UNL     1      33.469 -14.329 -22.204  0.00  0.00    +0.341 C 
BRANCH  16  17
ATOM     17  O   UNL     1      32.929 -15.515 -21.804  0.00  0.00    -0.448 OA
BRANCH  17  18
ATOM     18  C   UNL     1      33.863 -16.483 -21.316  0.00  0.00    +0.187 C 
BRANCH  18  19
ATOM     19  C   UNL     1      34.598 -17.112 -22.482  0.00  0.00    -0.025 C 
BRANCH  19  20
ATOM     20  N   UNL     1      34.887 -18.535 -22.172  0.00  0.00    +0.391 N 
ATOM     21  C   UNL     1      36.235 -18.671 -21.450  0.00  0.00    -0.096 C 
BRANCH  20  22
ATOM     22  C   UNL     1      33.799 -19.126 -21.264  0.00  0.00    -0.073 C 
ATOM     23  C   UNL     1      34.386 -20.266 -20.461  0.00  0.00    -0.024 C 
ENDBRANCH  20  22
BRANCH  20  24
ATOM     24  C   UNL     1      34.946 -19.373 -23.455  0.00  0.00    -0.073 C 
ATOM     25  C   UNL     1      34.504 -18.523 -24.626  0.00  0.00    -0.024 C 
ENDBRANCH  20  24
ENDBRANCH  19  20
ENDBRANCH  18  19
ENDBRANCH  17  18
ENDBRANCH  16  17
ENDBRANCH   2  16
TORSDOF 7
ENDMDL
MODEL 3
REMARK VINA RESULT:      -8.9      0.540      1.477
REMARK  Name = 4097
REMARK  7 active torsions:
REMARK  status: ('A' for Active; 'I' for Inactive)
REMARK    1  A    between atoms: C_2  and  C_16
REMARK    2  A    between atoms: C_16  and  O_17
REMARK    3  A    between atoms: O_17  and  C_18
REMARK    4  A    between atoms: C_18  and  C_19
REMARK    5  A    between atoms: C_19  and  N_20
REMARK    6  A    between atoms: N_20  and  C_22
REMARK    7  A    between atoms: N_20  and  C_24
REMARK                            x       y       z     vdW  Elec       q    Type
REMARK                         _______ _______ _______ _____ _____    ______ ____
ROOT
ATOM      1  O   UNL     1      32.314 -23.019 -17.789  0.00  0.00    -0.454 OA
ATOM      2  C   UNL     1      34.302 -23.001 -15.645  0.00  0.00    +0.078 C 
ATOM      3  C   UNL     1      34.604 -22.583 -17.061  0.00  0.00    +0.023 C 
ATOM      4  C   UNL     1      32.824 -23.177 -15.407  0.00  0.00    +0.041 C 
ATOM      5  C   UNL     1      33.609 -22.630 -18.042  0.00  0.00    +0.142 C 
ATOM      6  C   UNL     1      31.928 -23.190 -16.480  0.00  0.00    +0.145 C 
ATOM      7  C   UNL     1      35.891 -22.155 -17.417  0.00  0.00    +0.056 C 
ATOM      8  C   UNL     1      32.327 -23.346 -14.106  0.00  0.00    +0.003 C 
ATOM      9  C   UNL     1      33.897 -22.270 -19.362  0.00  0.00    +0.037 C 
ATOM     10  C   UNL     1      30.562 -23.383 -16.261  0.00  0.00    +0.037 C 
ATOM     11  C   UNL     1      36.177 -21.790 -18.734  0.00  0.00    -0.021 C 
ATOM     12  C   UNL     1      30.962 -23.530 -13.887  0.00  0.00    +0.000 C 
ATOM     13  C   UNL     1      35.181 -21.850 -19.706  0.00  0.00    -0.001 C 
ATOM     14  C   UNL     1      30.079 -23.552 -14.964  0.00  0.00    +0.003 C 
ENDROOT
BRANCH   2  16
ATOM     15  O   UNL     1      35.059 -25.257 -16.033  0.00  0.00    -0.245 OA
ATOM     16  C   UNL     1      35.034 -24.268 -15.312  0.00  0.00    +0.341 C 
BRANCH  16  17
ATOM     17  O   UNL     1      35.647 -24.135 -14.101  0.00  0.00    -0.448 OA
BRANCH  17  18
ATOM     18  C   UNL     1      36.852 -23.364 -14.103  0.00  0.00    +0.187 C 
BRANCH  18  19
ATOM     19  C   UNL     1      37.875 -24.022 -15.008  0.00  0.00    -0.025 C 
BRANCH  19  20
ATOM     20  N   UNL     1      38.612 -25.059 -14.243  0.00  0.00    +0.391 N 
ATOM     21  C   UNL     1      38.081 -26.461 -14.576  0.00  0.00    -0.096 C 
BRANCH  20  22
ATOM     22  C   UNL     1      40.109 -25.024 -14.581  0.00  0.00    -0.073 C 
ATOM     23  C   UNL     1      40.691 -26.410 -14.405  0.00  0.00    -0.024 C 
ENDBRANCH  20  22
BRANCH  20  24
ATOM     24  C   UNL     1      38.457 -24.837 -12.733  0.00  0.00    -0.073 C 
ATOM     25  C   UNL     1      37.753 -26.028 -12.123  0.00  0.00    -0.024 C 
ENDBRANCH  20  24
ENDBRANCH  19  20
ENDBRANCH  18  19
ENDBRANCH  17  18
ENDBRANCH  16  17
ENDBRANCH   2  16
TORSDOF 7
ENDMDL
MODEL 4
REMARK VINA RESULT:      -8.8     13.231     16.138
REMARK  Name = 4097
REMARK  7 active torsions:
REMARK  status: ('A' for Active; 'I' for Inactive)
REMARK    1  A    between atoms: C_2  and  C_16
REMARK    2  A    between atoms: C_16  and  O_17
REMARK    3  A    between atoms: O_17  and  C_18
REMARK    4  A    between atoms: C_18  and  C_19
REMARK    5  A    between atoms: C_19  and  N_20
REMARK    6  A    between atoms: N_20  and  C_22
REMARK    7  A    between atoms: N_20  and  C_24
REMARK                            x       y       z     vdW  Elec       q    Type
REMARK                         _______ _______ _______ _____ _____    ______ ____
ROOT
ATOM      1  O   UNL     1      31.984  -7.586 -20.679  0.00  0.00    -0.454 OA
ATOM      2  C   UNL     1      31.806  -9.282 -23.054  0.00  0.00    +0.078 C 
ATOM      3  C   UNL     1      31.730  -9.813 -21.647  0.00  0.00    +0.023 C 
ATOM      4  C   UNL     1      31.724  -7.777 -23.099  0.00  0.00    +0.041 C 
ATOM      5  C   UNL     1      31.837  -8.947 -20.553  0.00  0.00    +0.142 C 
ATOM      6  C   UNL     1      31.831  -7.025 -21.925  0.00  0.00    +0.145 C 
ATOM      7  C   UNL     1      31.565 -11.186 -21.412  0.00  0.00    +0.056 C 
ATOM      8  C   UNL     1      31.554  -7.109 -24.320  0.00  0.00    +0.003 C 
ATOM      9  C   UNL     1      31.796  -9.445 -19.248  0.00  0.00    +0.037 C 
ATOM     10  C   UNL     1      31.785  -5.629 -21.971  0.00  0.00    +0.037 C 
ATOM     11  C   UNL     1      31.518 -11.683 -20.108  0.00  0.00    -0.021 C 
ATOM     12  C   UNL     1      31.500  -5.715 -24.365  0.00  0.00    +0.000 C 
ATOM     13  C   UNL     1      31.636 -10.812 -19.027  0.00  0.00    -0.001 C 
ATOM     14  C   UNL     1      31.618  -4.975 -23.191  0.00  0.00    +0.003 C 
ENDROOT
BRANCH   2  16
ATOM     15  O   UNL     1      34.162  -9.226 -23.559  0.00  0.00    -0.245 OA
ATOM     16  C   UNL     1      33.068  -9.750 -23.718  0.00  0.00    +0.341 C 
BRANCH  16  17
ATOM     17  O   UNL     1      32.794 -10.829 -24.506  0.00  0.00    -0.448 OA
BRANCH  17  18
ATOM     18  C   UNL     1      33.905 -11.689 -24.779  0.00  0.00    +0.187 C 
BRANCH  18  19
ATOM     19  C   UNL     1      34.136 -12.610 -23.598  0.00  0.00    -0.025 C 
BRANCH  19  20
ATOM     20  N   UNL     1      33.537 -13.938 -23.886  0.00  0.00    +0.391 N 
ATOM     21  C   UNL     1      34.539 -15.062 -23.590  0.00  0.00    -0.096 C 
BRANCH  20  22
ATOM     22  C   UNL     1      32.289 -14.171 -23.023  0.00  0.00    -0.073 C 
ATOM     23  C   UNL     1      32.705 -14.786 -21.704  0.00  0.00    -0.024 C 
ENDBRANCH  20  22
BRANCH  20  24
ATOM     24  C   UNL     1      33.125 -14.042 -25.360  0.00  0.00    -0.073 C 
ATOM     25  C   UNL     1      33.427 -15.435 -25.865  0.00  0.00    -0.024 C 
ENDBRANCH  20  24
ENDBRANCH  19  20
ENDBRANCH  18  19
ENDBRANCH  17  18
ENDBRANCH  16  17
ENDBRANCH   2  16
TORSDOF 7
ENDMDL
MODEL 5
REMARK VINA RESULT:      -8.7     13.134     16.025
REMARK  Name = 4097
REMARK  7 active torsions:
REMARK  status: ('A' for Active; 'I' for Inactive)
REMARK    1  A    between atoms: C_2  and  C_16
REMARK    2  A    between atoms: C_16  and  O_17
REMARK    3  A    between atoms: O_17  and  C_18
REMARK    4  A    between atoms: C_18  and  C_19
REMARK    5  A    between atoms: C_19  and  N_20
REMARK    6  A    between atoms: N_20  and  C_22
REMARK    7  A    between atoms: N_20  and  C_24
REMARK                            x       y       z     vdW  Elec       q    Type
REMARK                         _______ _______ _______ _____ _____    ______ ____
ROOT
ATOM      1  O   UNL     1      32.035  -7.549 -20.747  0.00  0.00    -0.454 OA
ATOM      2  C   UNL     1      31.804  -9.340 -23.048  0.00  0.00    +0.078 C 
ATOM      3  C   UNL     1      31.758  -9.814 -21.619  0.00  0.00    +0.023 C 
ATOM      4  C   UNL     1      31.722  -7.838 -23.152  0.00  0.00    +0.041 C 
ATOM      5  C   UNL     1      31.889  -8.905 -20.564  0.00  0.00    +0.142 C 
ATOM      6  C   UNL     1      31.855  -7.039 -22.012  0.00  0.00    +0.145 C 
ATOM      7  C   UNL     1      31.597 -11.176 -21.326  0.00  0.00    +0.056 C 
ATOM      8  C   UNL     1      31.527  -7.220 -24.395  0.00  0.00    +0.003 C 
ATOM      9  C   UNL     1      31.876  -9.349 -19.239  0.00  0.00    +0.037 C 
ATOM     10  C   UNL     1      31.809  -5.646 -22.113  0.00  0.00    +0.037 C 
ATOM     11  C   UNL     1      31.577 -11.619 -20.002  0.00  0.00    -0.021 C 
ATOM     12  C   UNL     1      31.473  -5.829 -24.495  0.00  0.00    +0.000 C 
ATOM     13  C   UNL     1      31.720 -10.706 -18.960  0.00  0.00    -0.001 C 
ATOM     14  C   UNL     1      31.617  -5.042 -23.355  0.00  0.00    +0.003 C 
ENDROOT
BRANCH   2  16
ATOM     15  O   UNL     1      34.148  -9.304 -23.611  0.00  0.00    -0.245 OA
ATOM     16  C   UNL     1      33.051  -9.837 -23.719  0.00  0.00    +0.341 C 
BRANCH  16  17
ATOM     17  O   UNL     1      32.762 -10.951 -24.450  0.00  0.00    -0.448 OA
BRANCH  17  18
ATOM     18  C   UNL     1      33.866 -11.826 -24.701  0.00  0.00    +0.187 C 
BRANCH  18  19
ATOM     19  C   UNL     1      34.139 -12.666 -23.469  0.00  0.00    -0.025 C 
BRANCH  19  20
ATOM     20  N   UNL     1      33.568 -14.023 -23.664  0.00  0.00    +0.391 N 
ATOM     21  C   UNL     1      33.141 -14.229 -25.124  0.00  0.00    -0.096 C 
BRANCH  20  22
ATOM     22  C   UNL     1      34.601 -15.103 -23.312  0.00  0.00    -0.073 C 
ATOM     23  C   UNL     1      34.589 -16.170 -24.384  0.00  0.00    -0.024 C 
ENDBRANCH  20  22
BRANCH  20  24
ATOM     24  C   UNL     1      32.337 -14.230 -22.772  0.00  0.00    -0.073 C 
ATOM     25  C   UNL     1      32.768 -14.852 -21.463  0.00  0.00    -0.024 C 
ENDBRANCH  20  24
ENDBRANCH  19  20
ENDBRANCH  18  19
ENDBRANCH  17  18
ENDBRANCH  16  17
ENDBRANCH   2  16
TORSDOF 7
ENDMDL
MODEL 6
REMARK VINA RESULT:      -8.6      2.992      7.253
REMARK  Name = 4097
REMARK  7 active torsions:
REMARK  status: ('A' for Active; 'I' for Inactive)
REMARK    1  A    between atoms: C_2  and  C_16
REMARK    2  A    between atoms: C_16  and  O_17
REMARK    3  A    between atoms: O_17  and  C_18
REMARK    4  A    between atoms: C_18  and  C_19
REMARK    5  A    between atoms: C_19  and  N_20
REMARK    6  A    between atoms: N_20  and  C_22
REMARK    7  A    between atoms: N_20  and  C_24
REMARK                            x       y       z     vdW  Elec       q    Type
REMARK                         _______ _______ _______ _____ _____    ______ ____
ROOT
ATOM      1  O   UNL     1      34.064 -24.048 -15.184  0.00  0.00    -0.454 OA
ATOM      2  C   UNL     1      33.569 -22.408 -17.553  0.00  0.00    +0.078 C 
ATOM      3  C   UNL     1      32.473 -22.943 -16.670  0.00  0.00    +0.023 C 
ATOM      4  C   UNL     1      34.934 -22.592 -16.941  0.00  0.00    +0.041 C 
ATOM      5  C   UNL     1      32.778 -23.735 -15.559  0.00  0.00    +0.142 C 
ATOM      6  C   UNL     1      35.103 -23.403 -15.814  0.00  0.00    +0.145 C 
ATOM      7  C   UNL     1      31.128 -22.666 -16.958  0.00  0.00    +0.056 C 
ATOM      8  C   UNL     1      36.057 -21.966 -17.501  0.00  0.00    +0.003 C 
ATOM      9  C   UNL     1      31.759 -24.255 -14.757  0.00  0.00    +0.037 C 
ATOM     10  C   UNL     1      36.373 -23.598 -15.264  0.00  0.00    +0.037 C 
ATOM     11  C   UNL     1      30.110 -23.182 -16.154  0.00  0.00    -0.021 C 
ATOM     12  C   UNL     1      37.324 -22.154 -16.947  0.00  0.00    +0.000 C 
ATOM     13  C   UNL     1      30.426 -23.978 -15.055  0.00  0.00    -0.001 C 
ATOM     14  C   UNL     1      37.482 -22.972 -15.831  0.00  0.00    +0.003 C 
ENDROOT
BRANCH   2  16
ATOM     15  O   UNL     1      33.866 -24.216 -19.120  0.00  0.00    -0.245 OA
ATOM     16  C   UNL     1      33.515 -23.063 -18.902  0.00  0.00    +0.341 C 
BRANCH  16  17
ATOM     17  O   UNL     1      33.024 -22.181 -19.819  0.00  0.00    -0.448 OA
BRANCH  17  18
ATOM     18  C   UNL     1      33.437 -20.822 -19.648  0.00  0.00    +0.187 C 
BRANCH  18  19
ATOM     19  C   UNL     1      33.207 -20.056 -20.935  0.00  0.00    -0.025 C 
BRANCH  19  20
ATOM     20  N   UNL     1      34.493 -19.477 -21.400  0.00  0.00    +0.391 N 
ATOM     21  C   UNL     1      34.568 -17.981 -21.065  0.00  0.00    -0.096 C 
BRANCH  20  22
ATOM     22  C   UNL     1      35.680 -20.177 -20.724  0.00  0.00    -0.073 C 
ATOM     23  C   UNL     1      36.875 -19.249 -20.734  0.00  0.00    -0.024 C 
ENDBRANCH  20  22
BRANCH  20  24
ATOM     24  C   UNL     1      34.645 -19.636 -22.918  0.00  0.00    -0.073 C 
ATOM     25  C   UNL     1      34.834 -18.272 -23.545  0.00  0.00    -0.024 C 
ENDBRANCH  20  24
ENDBRANCH  19  20
ENDBRANCH  18  19
ENDBRANCH  17  18
ENDBRANCH  16  17
ENDBRANCH   2  16
TORSDOF 7
ENDMDL
MODEL 7
REMARK VINA RESULT:      -8.5     11.784     15.309
REMARK  Name = 4097
REMARK  7 active torsions:
REMARK  status: ('A' for Active; 'I' for Inactive)
REMARK    1  A    between atoms: C_2  and  C_16
REMARK    2  A    between atoms: C_16  and  O_17
REMARK    3  A    between atoms: O_17  and  C_18
REMARK    4  A    between atoms: C_18  and  C_19
REMARK    5  A    between atoms: C_19  and  N_20
REMARK    6  A    between atoms: N_20  and  C_22
REMARK    7  A    between atoms: N_20  and  C_24
REMARK                            x       y       z     vdW  Elec       q    Type
REMARK                         _______ _______ _______ _____ _____    ______ ____
ROOT
ATOM      1  O   UNL     1      33.512 -15.680 -24.376  0.00  0.00    -0.454 OA
ATOM      2  C   UNL     1      33.818 -13.026 -23.187  0.00  0.00    +0.078 C 
ATOM      3  C   UNL     1      34.064 -14.307 -22.433  0.00  0.00    +0.023 C 
ATOM      4  C   UNL     1      33.654 -13.259 -24.667  0.00  0.00    +0.041 C 
ATOM      5  C   UNL     1      33.884 -15.545 -23.059  0.00  0.00    +0.142 C 
ATOM      6  C   UNL     1      33.498 -14.555 -25.168  0.00  0.00    +0.145 C 
ATOM      7  C   UNL     1      34.462 -14.277 -21.088  0.00  0.00    +0.056 C 
ATOM      8  C   UNL     1      33.639 -12.179 -25.561  0.00  0.00    +0.003 C 
ATOM      9  C   UNL     1      34.084 -16.733 -22.350  0.00  0.00    +0.037 C 
ATOM     10  C   UNL     1      33.315 -14.769 -26.537  0.00  0.00    +0.037 C 
ATOM     11  C   UNL     1      34.667 -15.464 -20.383  0.00  0.00    -0.021 C 
ATOM     12  C   UNL     1      33.465 -12.393 -26.929  0.00  0.00    +0.000 C 
ATOM     13  C   UNL     1      34.475 -16.691 -21.013  0.00  0.00    -0.001 C 
ATOM     14  C   UNL     1      33.300 -13.687 -27.417  0.00  0.00    +0.003 C 
ENDROOT
BRANCH   2  16
ATOM     15  O   UNL     1      31.716 -12.882 -22.016  0.00  0.00    -0.245 OA
ATOM     16  C   UNL     1      32.611 -12.324 -22.637  0.00  0.00    +0.341 C 
BRANCH  16  17
ATOM     17  O   UNL     1      32.679 -10.996 -22.938  0.00  0.00    -0.448 OA
BRANCH  17  18
ATOM     18  C   UNL     1      31.907 -10.133 -22.097  0.00  0.00    +0.187 C 
BRANCH  18  19
ATOM     19  C   UNL     1      31.352  -8.987 -22.918  0.00  0.00    -0.025 C 
BRANCH  19  20
ATOM     20  N   UNL     1      32.128  -7.755 -22.630  0.00  0.00    +0.391 N 
ATOM     21  C   UNL     1      31.192  -6.548 -22.469  0.00  0.00    -0.096 C 
BRANCH  20  22
ATOM     22  C   UNL     1      32.933  -7.910 -21.332  0.00  0.00    -0.073 C 
ATOM     23  C   UNL     1      32.316  -7.040 -20.258  0.00  0.00    -0.024 C 
ENDBRANCH  20  22
BRANCH  20  24
ATOM     24  C   UNL     1      33.110  -7.450 -23.768  0.00  0.00    -0.073 C 
ATOM     25  C   UNL     1      34.525  -7.637 -23.269  0.00  0.00    -0.024 C 
ENDBRANCH  20  24
ENDBRANCH  19  20
ENDBRANCH  18  19
ENDBRANCH  17  18
ENDBRANCH  16  17
ENDBRANCH   2  16
TORSDOF 7
ENDMDL
MODEL 8
REMARK VINA RESULT:      -8.4      8.335     11.571
REMARK  Name = 4097
REMARK  7 active torsions:
REMARK  status: ('A' for Active; 'I' for Inactive)
REMARK    1  A    between atoms: C_2  and  C_16
REMARK    2  A    between atoms: C_16  and  O_17
REMARK    3  A    between atoms: O_17  and  C_18
REMARK    4  A    between atoms: C_18  and  C_19
REMARK    5  A    between atoms: C_19  and  N_20
REMARK    6  A    between atoms: N_20  and  C_22
REMARK    7  A    between atoms: N_20  and  C_24
REMARK                            x       y       z     vdW  Elec       q    Type
REMARK                         _______ _______ _______ _____ _____    ______ ____
ROOT
ATOM      1  O   UNL     1      33.220 -12.524 -23.476  0.00  0.00    -0.454 OA
ATOM      2  C   UNL     1      33.316 -15.422 -23.855  0.00  0.00    +0.078 C 
ATOM      3  C   UNL     1      32.971 -14.767 -22.543  0.00  0.00    +0.023 C 
ATOM      4  C   UNL     1      33.350 -14.433 -24.993  0.00  0.00    +0.041 C 
ATOM      5  C   UNL     1      32.958 -13.374 -22.426  0.00  0.00    +0.142 C 
ATOM      6  C   UNL     1      33.315 -13.058 -24.740  0.00  0.00    +0.145 C 
ATOM      7  C   UNL     1      32.672 -15.546 -21.416  0.00  0.00    +0.056 C 
ATOM      8  C   UNL     1      33.433 -14.877 -26.320  0.00  0.00    +0.003 C 
ATOM      9  C   UNL     1      32.667 -12.767 -21.201  0.00  0.00    +0.037 C 
ATOM     10  C   UNL     1      33.377 -12.141 -25.792  0.00  0.00    +0.037 C 
ATOM     11  C   UNL     1      32.375 -14.941 -20.193  0.00  0.00    -0.021 C 
ATOM     12  C   UNL     1      33.486 -13.961 -27.372  0.00  0.00    +0.000 C 
ATOM     13  C   UNL     1      32.375 -13.552 -20.086  0.00  0.00    -0.001 C 
ATOM     14  C   UNL     1      33.461 -12.594 -27.108  0.00  0.00    +0.003 C 
ENDROOT
BRANCH   2  16
ATOM     15  O   UNL     1      35.684 -15.589 -23.436  0.00  0.00    -0.245 OA
ATOM     16  C   UNL     1      34.633 -16.133 -23.749  0.00  0.00    +0.341 C 
BRANCH  16  17
ATOM     17  O   UNL     1      34.466 -17.451 -24.054  0.00  0.00    -0.448 OA
BRANCH  17  18
ATOM     18  C   UNL     1      35.433 -18.341 -23.489  0.00  0.00    +0.187 C 
BRANCH  18  19
ATOM     19  C   UNL     1      34.725 -19.510 -22.833  0.00  0.00    -0.025 C 
BRANCH  19  20
ATOM     20  N   UNL     1      34.734 -19.324 -21.359  0.00  0.00    +0.391 N 
ATOM     21  C   UNL     1      35.525 -18.066 -20.974  0.00  0.00    -0.096 C 
BRANCH  20  22
ATOM     22  C   UNL     1      33.305 -19.173 -20.821  0.00  0.00    -0.073 C 
ATOM     23  C   UNL     1      32.869 -20.479 -20.193  0.00  0.00    -0.024 C 
ENDBRANCH  20  22
BRANCH  20  24
ATOM     24  C   UNL     1      35.383 -20.527 -20.662  0.00  0.00    -0.073 C 
ATOM     25  C   UNL     1      36.765 -20.141 -20.185  0.00  0.00    -0.024 C 
ENDBRANCH  20  24
ENDBRANCH  19  20
ENDBRANCH  18  19
ENDBRANCH  17  18
ENDBRANCH  16  17
ENDBRANCH   2  16
TORSDOF 7
ENDMDL
MODEL 9
REMARK VINA RESULT:      -8.4      2.896      6.633
REMARK  Name = 4097
REMARK  7 active torsions:
REMARK  status: ('A' for Active; 'I' for Inactive)
REMARK    1  A    between atoms: C_2  and  C_16
REMARK    2  A    between atoms: C_16  and  O_17
REMARK    3  A    between atoms: O_17  and  C_18
REMARK    4  A    between atoms: C_18  and  C_19
REMARK    5  A    between atoms: C_19  and  N_20
REMARK    6  A    between atoms: N_20  and  C_22
REMARK    7  A    between atoms: N_20  and  C_24
REMARK                            x       y       z     vdW  Elec       q    Type
REMARK                         _______ _______ _______ _____ _____    ______ ____
ROOT
ATOM      1  O   UNL     1      36.678 -21.426 -18.839  0.00  0.00    -0.454 OA
ATOM      2  C   UNL     1      34.013 -22.206 -17.922  0.00  0.00    +0.078 C 
ATOM      3  C   UNL     1      35.265 -22.423 -17.114  0.00  0.00    +0.023 C 
ATOM      4  C   UNL     1      34.254 -21.323 -19.120  0.00  0.00    +0.041 C 
ATOM      5  C   UNL     1      36.512 -22.039 -17.618  0.00  0.00    +0.142 C 
ATOM      6  C   UNL     1      35.557 -21.000 -19.513  0.00  0.00    +0.145 C 
ATOM      7  C   UNL     1      35.200 -23.026 -15.849  0.00  0.00    +0.056 C 
ATOM      8  C   UNL     1      33.177 -20.825 -19.867  0.00  0.00    +0.003 C 
ATOM      9  C   UNL     1      37.676 -22.267 -16.880  0.00  0.00    +0.037 C 
ATOM     10  C   UNL     1      35.782 -20.206 -20.640  0.00  0.00    +0.037 C 
ATOM     11  C   UNL     1      36.363 -23.248 -15.109  0.00  0.00    -0.021 C 
ATOM     12  C   UNL     1      33.401 -20.026 -20.989  0.00  0.00    +0.000 C 
ATOM     13  C   UNL     1      37.601 -22.871 -15.626  0.00  0.00    -0.001 C 
ATOM     14  C   UNL     1      34.703 -19.719 -21.377  0.00  0.00    +0.003 C 
ENDROOT
BRANCH   2  16
ATOM     15  O   UNL     1      33.853 -24.166 -19.316  0.00  0.00    -0.245 OA
ATOM     16  C   UNL     1      33.443 -23.524 -18.359  0.00  0.00    +0.341 C 
BRANCH  16  17
ATOM     17  O   UNL     1      32.418 -23.874 -17.530  0.00  0.00    -0.448 OA
BRANCH  17  18
ATOM     18  C   UNL     1      31.841 -22.803 -16.777  0.00  0.00    +0.187 C 
BRANCH  18  19
ATOM     19  C   UNL     1      30.338 -22.801 -16.966  0.00  0.00    -0.025 C 
BRANCH  19  20
ATOM     20  N   UNL     1      29.684 -23.250 -15.711  0.00  0.00    +0.391 N 
ATOM     21  C   UNL     1      30.522 -22.851 -14.488  0.00  0.00    -0.096 C 
BRANCH  20  22
ATOM     22  C   UNL     1      28.294 -22.615 -15.564  0.00  0.00    -0.073 C 
ATOM     23  C   UNL     1      27.684 -22.432 -16.936  0.00  0.00    -0.024 C 
ENDBRANCH  20  22
BRANCH  20  24
ATOM     24  C   UNL     1      29.517 -24.775 -15.698  0.00  0.00    -0.073 C 
ATOM     25  C   UNL     1      30.326 -25.355 -14.560  0.00  0.00    -0.024 C 
ENDBRANCH  20  24
ENDBRANCH  19  20
ENDBRANCH  18  19
ENDBRANCH  17  18
ENDBRANCH  16  17
ENDBRANCH   2  16
TORSDOF 7
ENDMDL
