MODEL 1
REMARK VINA RESULT:      -8.9      0.000      0.000
REMARK  Name = 68713
REMARK  1 active torsions:
REMARK  status: ('A' for Active; 'I' for Inactive)
REMARK    1  A    between atoms: C_16  and  O_18
REMARK                            x       y       z     vdW  Elec       q    Type
REMARK                         _______ _______ _______ _____ _____    ______ ____
ROOT
ATOM      1  N   UNL     1      35.875 -23.048 -15.971  0.00  0.00    -0.323 N 
ATOM      2  N   UNL     1      36.510 -24.309 -13.508  0.00  0.00    -0.289 N 
ATOM      3  N   UNL     1      34.146 -24.346 -13.086  0.00  0.00    -0.255 NA
ATOM      4  C   UNL     1      34.914 -23.524 -15.141  0.00  0.00    +0.088 A 
ATOM      5  C   UNL     1      33.697 -23.440 -15.751  0.00  0.00    -0.000 A 
ATOM      6  C   UNL     1      37.262 -23.047 -15.544  0.00  0.00    +0.127 C 
ATOM      7  C   UNL     1      35.300 -22.601 -17.136  0.00  0.00    +0.060 A 
ATOM      8  C   UNL     1      33.916 -22.844 -17.024  0.00  0.00    +0.016 A 
ATOM      9  C   UNL     1      35.169 -24.083 -13.843  0.00  0.00    +0.143 C 
ATOM     10  C   UNL     1      37.553 -24.193 -14.551  0.00  0.00    +0.117 C 
ATOM     11  C   UNL     1      32.519 -23.974 -15.038  0.00  0.00    +0.054 C 
ATOM     12  C   UNL     1      32.779 -23.939 -13.517  0.00  0.00    +0.132 C 
ATOM     13  C   UNL     1      33.076 -22.493 -18.099  0.00  0.00    +0.038 C 
ATOM     14  C   UNL     1      35.862 -22.012 -18.277  0.00  0.00    +0.020 C 
ATOM     15  C   UNL     1      36.891 -24.966 -12.267  0.00  0.00    +0.114 C 
ATOM     16  C   UNL     1      33.633 -21.905 -19.241  0.00  0.00    +0.139 C 
ATOM     17  C   UNL     1      35.003 -21.669 -19.325  0.00  0.00    +0.038 C 
ENDROOT
BRANCH  16  18
ATOM     18  O   UNL     1      32.824 -21.563 -20.283  0.00  0.00    -0.471 OA
ATOM     19  C   UNL     1      32.827 -20.195 -20.683  0.00  0.00    +0.252 C 
ENDBRANCH  16  18
TORSDOF 1
ENDMDL
MODEL 2
REMARK VINA RESULT:      -8.9      2.536      4.682
REMARK  Name = 68713
REMARK  1 active torsions:
REMARK  status: ('A' for Active; 'I' for Inactive)
REMARK    1  A    between atoms: C_16  and  O_18
REMARK                            x       y       z     vdW  Elec       q    Type
REMARK                         _______ _______ _______ _____ _____    ______ ____
ROOT
ATOM      1  N   UNL     1      33.550 -23.754 -15.103  0.00  0.00    -0.323 N 
ATOM      2  N   UNL     1      36.231 -23.069 -15.740  0.00  0.00    -0.289 N 
ATOM      3  N   UNL     1      35.419 -22.545 -17.939  0.00  0.00    -0.255 NA
ATOM      4  C   UNL     1      33.885 -23.199 -16.294  0.00  0.00    +0.088 A 
ATOM      5  C   UNL     1      32.754 -22.901 -16.996  0.00  0.00    -0.000 A 
ATOM      6  C   UNL     1      34.592 -24.145 -14.171  0.00  0.00    +0.127 C 
ATOM      7  C   UNL     1      32.184 -23.870 -15.013  0.00  0.00    +0.060 A 
ATOM      8  C   UNL     1      31.653 -23.329 -16.202  0.00  0.00    +0.016 A 
ATOM      9  C   UNL     1      35.231 -22.921 -16.709  0.00  0.00    +0.143 C 
ATOM     10  C   UNL     1      35.852 -23.265 -14.323  0.00  0.00    +0.117 C 
ATOM     11  C   UNL     1      32.897 -22.221 -18.299  0.00  0.00    +0.054 C 
ATOM     12  C   UNL     1      34.281 -22.549 -18.900  0.00  0.00    +0.132 C 
ATOM     13  C   UNL     1      30.255 -23.305 -16.371  0.00  0.00    +0.038 C 
ATOM     14  C   UNL     1      31.365 -24.392 -14.003  0.00  0.00    +0.020 C 
ATOM     15  C   UNL     1      37.617 -22.718 -16.008  0.00  0.00    +0.114 C 
ATOM     16  C   UNL     1      29.433 -23.825 -15.363  0.00  0.00    +0.139 C 
ATOM     17  C   UNL     1      29.983 -24.360 -14.201  0.00  0.00    +0.038 C 
ENDROOT
BRANCH  16  18
ATOM     18  O   UNL     1      28.080 -23.804 -15.523  0.00  0.00    -0.471 OA
ATOM     19  C   UNL     1      27.497 -22.570 -15.938  0.00  0.00    +0.252 C 
ENDBRANCH  16  18
TORSDOF 1
ENDMDL
MODEL 3
REMARK VINA RESULT:      -8.8      9.319     11.903
REMARK  Name = 68713
REMARK  1 active torsions:
REMARK  status: ('A' for Active; 'I' for Inactive)
REMARK    1  A    between atoms: C_16  and  O_18
REMARK                            x       y       z     vdW  Elec       q    Type
REMARK                         _______ _______ _______ _____ _____    ______ ____
ROOT
ATOM      1  N   UNL     1      33.348 -15.220 -22.095  0.00  0.00    -0.323 N 
ATOM      2  N   UNL     1      34.645 -17.358 -23.442  0.00  0.00    -0.289 N 
ATOM      3  N   UNL     1      33.988 -16.276 -25.483  0.00  0.00    -0.255 NA
ATOM      4  C   UNL     1      33.498 -15.233 -23.444  0.00  0.00    +0.088 A 
ATOM      5  C   UNL     1      33.093 -14.039 -23.962  0.00  0.00    -0.000 A 
ATOM      6  C   UNL     1      33.729 -16.384 -21.316  0.00  0.00    +0.127 C 
ATOM      7  C   UNL     1      32.800 -14.024 -21.702  0.00  0.00    +0.060 A 
ATOM      8  C   UNL     1      32.633 -13.251 -22.870  0.00  0.00    +0.016 A 
ATOM      9  C   UNL     1      34.058 -16.327 -24.187  0.00  0.00    +0.143 C 
ATOM     10  C   UNL     1      34.872 -17.173 -21.991  0.00  0.00    +0.117 C 
ATOM     11  C   UNL     1      33.240 -13.820 -25.415  0.00  0.00    +0.054 C 
ATOM     12  C   UNL     1      33.223 -15.182 -26.144  0.00  0.00    +0.132 C 
ATOM     13  C   UNL     1      32.096 -11.954 -22.754  0.00  0.00    +0.038 C 
ATOM     14  C   UNL     1      32.440 -13.544 -20.435  0.00  0.00    +0.020 C 
ATOM     15  C   UNL     1      35.336 -18.468 -24.080  0.00  0.00    +0.114 C 
ATOM     16  C   UNL     1      31.736 -11.471 -21.490  0.00  0.00    +0.139 C 
ATOM     17  C   UNL     1      31.905 -12.256 -20.352  0.00  0.00    +0.038 C 
ENDROOT
BRANCH  16  18
ATOM     18  O   UNL     1      31.216 -10.217 -21.374  0.00  0.00    -0.471 OA
ATOM     19  C   UNL     1      31.924  -9.298 -20.545  0.00  0.00    +0.252 C 
ENDBRANCH  16  18
TORSDOF 1
ENDMDL
MODEL 4
REMARK VINA RESULT:      -8.5      9.004     12.861
REMARK  Name = 68713
REMARK  1 active torsions:
REMARK  status: ('A' for Active; 'I' for Inactive)
REMARK    1  A    between atoms: C_16  and  O_18
REMARK                            x       y       z     vdW  Elec       q    Type
REMARK                         _______ _______ _______ _____ _____    ______ ____
ROOT
ATOM      1  N   UNL     1      33.466 -12.689 -23.416  0.00  0.00    -0.323 N 
ATOM      2  N   UNL     1      32.755  -9.948 -23.628  0.00  0.00    -0.289 N 
ATOM      3  N   UNL     1      31.330 -10.322 -21.732  0.00  0.00    -0.255 NA
ATOM      4  C   UNL     1      32.680 -12.078 -22.494  0.00  0.00    +0.088 A 
ATOM      5  C   UNL     1      32.461 -12.922 -21.446  0.00  0.00    -0.000 A 
ATOM      6  C   UNL     1      33.849 -11.978 -24.622  0.00  0.00    +0.127 C 
ATOM      7  C   UNL     1      33.748 -13.970 -23.007  0.00  0.00    +0.060 A 
ATOM      8  C   UNL     1      33.125 -14.142 -21.754  0.00  0.00    +0.016 A 
ATOM      9  C   UNL     1      32.210 -10.725 -22.599  0.00  0.00    +0.143 C 
ATOM     10  C   UNL     1      33.921 -10.454 -24.387  0.00  0.00    +0.117 C 
ATOM     11  C   UNL     1      31.681 -12.422 -20.296  0.00  0.00    +0.054 C 
ATOM     12  C   UNL     1      30.741 -11.291 -20.765  0.00  0.00    +0.132 C 
ATOM     13  C   UNL     1      33.267 -15.376 -21.090  0.00  0.00    +0.038 C 
ATOM     14  C   UNL     1      34.493 -14.990 -23.614  0.00  0.00    +0.020 C 
ATOM     15  C   UNL     1      32.439  -8.535 -23.774  0.00  0.00    +0.114 C 
ATOM     16  C   UNL     1      34.011 -16.398 -21.692  0.00  0.00    +0.139 C 
ATOM     17  C   UNL     1      34.611 -16.205 -22.934  0.00  0.00    +0.038 C 
ENDROOT
BRANCH  16  18
ATOM     18  O   UNL     1      34.150 -17.593 -21.053  0.00  0.00    -0.471 OA
ATOM     19  C   UNL     1      35.372 -18.298 -21.257  0.00  0.00    +0.252 C 
ENDBRANCH  16  18
TORSDOF 1
ENDMDL
MODEL 5
REMARK VINA RESULT:      -8.5      9.135     11.990
REMARK  Name = 68713
REMARK  1 active torsions:
REMARK  status: ('A' for Active; 'I' for Inactive)
REMARK    1  A    between atoms: C_16  and  O_18
REMARK                            x       y       z     vdW  Elec       q    Type
REMARK                         _______ _______ _______ _____ _____    ______ ____
ROOT
ATOM      1  N   UNL     1      33.045 -13.839 -23.513  0.00  0.00    -0.323 N 
ATOM      2  N   UNL     1      34.170 -16.162 -24.699  0.00  0.00    -0.289 N 
ATOM      3  N   UNL     1      34.736 -16.848 -22.468  0.00  0.00    -0.255 NA
ATOM      4  C   UNL     1      33.520 -14.868 -22.767  0.00  0.00    +0.088 A 
ATOM      5  C   UNL     1      33.219 -14.659 -21.453  0.00  0.00    -0.000 A 
ATOM      6  C   UNL     1      33.234 -13.845 -24.952  0.00  0.00    +0.127 C 
ATOM      7  C   UNL     1      32.453 -12.908 -22.695  0.00  0.00    +0.060 A 
ATOM      8  C   UNL     1      32.545 -13.408 -21.379  0.00  0.00    +0.016 A 
ATOM      9  C   UNL     1      34.185 -16.021 -23.306  0.00  0.00    +0.143 C 
ATOM     10  C   UNL     1      33.300 -15.282 -25.513  0.00  0.00    +0.117 C 
ATOM     11  C   UNL     1      33.589 -15.703 -20.476  0.00  0.00    +0.054 C 
ATOM     12  C   UNL     1      34.787 -16.512 -21.017  0.00  0.00    +0.132 C 
ATOM     13  C   UNL     1      31.996 -12.651 -20.326  0.00  0.00    +0.038 C 
ATOM     14  C   UNL     1      31.843 -11.680 -22.982  0.00  0.00    +0.020 C 
ATOM     15  C   UNL     1      34.716 -17.338 -25.358  0.00  0.00    +0.114 C 
ATOM     16  C   UNL     1      31.385 -11.424 -20.610  0.00  0.00    +0.139 C 
ATOM     17  C   UNL     1      31.312 -10.949 -21.917  0.00  0.00    +0.038 C 
ENDROOT
BRANCH  16  18
ATOM     18  O   UNL     1      30.852 -10.689 -19.593  0.00  0.00    -0.471 OA
ATOM     19  C   UNL     1      31.549  -9.502 -19.219  0.00  0.00    +0.252 C 
ENDBRANCH  16  18
TORSDOF 1
ENDMDL
MODEL 6
REMARK VINA RESULT:      -8.5      1.791      3.434
REMARK  Name = 68713
REMARK  1 active torsions:
REMARK  status: ('A' for Active; 'I' for Inactive)
REMARK    1  A    between atoms: C_16  and  O_18
REMARK                            x       y       z     vdW  Elec       q    Type
REMARK                         _______ _______ _______ _____ _____    ______ ____
ROOT
ATOM      1  N   UNL     1      33.672 -22.890 -17.250  0.00  0.00    -0.323 N 
ATOM      2  N   UNL     1      32.884 -24.227 -14.872  0.00  0.00    -0.289 N 
ATOM      3  N   UNL     1      35.227 -24.461 -14.402  0.00  0.00    -0.255 NA
ATOM      4  C   UNL     1      34.571 -23.266 -16.307  0.00  0.00    +0.088 A 
ATOM      5  C   UNL     1      35.800 -22.764 -16.619  0.00  0.00    -0.000 A 
ATOM      6  C   UNL     1      32.284 -23.296 -17.126  0.00  0.00    +0.127 C 
ATOM      7  C   UNL     1      34.304 -22.162 -18.229  0.00  0.00    +0.060 A 
ATOM      8  C   UNL     1      35.658 -22.062 -17.848  0.00  0.00    +0.016 A 
ATOM      9  C   UNL     1      34.245 -24.027 -15.134  0.00  0.00    +0.143 C 
ATOM     10  C   UNL     1      31.872 -23.475 -15.648  0.00  0.00    +0.117 C 
ATOM     11  C   UNL     1      36.913 -23.002 -15.677  0.00  0.00    +0.054 C 
ATOM     12  C   UNL     1      36.633 -24.284 -14.864  0.00  0.00    +0.132 C 
ATOM     13  C   UNL     1      36.544 -21.344 -18.675  0.00  0.00    +0.038 C 
ATOM     14  C   UNL     1      33.817 -21.579 -19.406  0.00  0.00    +0.020 C 
ATOM     15  C   UNL     1      32.424 -24.891 -13.662  0.00  0.00    +0.114 C 
ATOM     16  C   UNL     1      36.061 -20.760 -19.852  0.00  0.00    +0.139 C 
ATOM     17  C   UNL     1      34.720 -20.878 -20.210  0.00  0.00    +0.038 C 
ENDROOT
BRANCH  16  18
ATOM     18  O   UNL     1      36.915 -20.064 -20.655  0.00  0.00    -0.471 OA
ATOM     19  C   UNL     1      36.420 -18.861 -21.238  0.00  0.00    +0.252 C 
ENDBRANCH  16  18
TORSDOF 1
ENDMDL
MODEL 7
REMARK VINA RESULT:      -8.4      2.176      3.902
REMARK  Name = 68713
REMARK  1 active torsions:
REMARK  status: ('A' for Active; 'I' for Inactive)
REMARK    1  A    between atoms: C_16  and  O_18
REMARK                            x       y       z     vdW  Elec       q    Type
REMARK                         _______ _______ _______ _____ _____    ______ ____
ROOT
ATOM      1  N   UNL     1      34.511 -23.951 -13.549  0.00  0.00    -0.323 N 
ATOM      2  N   UNL     1      37.140 -23.820 -12.483  0.00  0.00    -0.289 N 
ATOM      3  N   UNL     1      37.843 -23.168 -14.685  0.00  0.00    -0.255 NA
ATOM      4  C   UNL     1      35.559 -23.486 -14.276  0.00  0.00    +0.088 A 
ATOM      5  C   UNL     1      35.107 -22.977 -15.458  0.00  0.00    -0.000 A 
ATOM      6  C   UNL     1      34.744 -24.531 -12.239  0.00  0.00    +0.127 C 
ATOM      7  C   UNL     1      33.347 -23.791 -14.260  0.00  0.00    +0.060 A 
ATOM      8  C   UNL     1      33.697 -23.169 -15.476  0.00  0.00    +0.016 A 
ATOM      9  C   UNL     1      36.922 -23.486 -13.825  0.00  0.00    +0.143 C 
ATOM     10  C   UNL     1      35.988 -23.921 -11.558  0.00  0.00    +0.117 C 
ATOM     11  C   UNL     1      36.086 -22.353 -16.371  0.00  0.00    +0.054 C 
ATOM     12  C   UNL     1      37.484 -22.957 -16.115  0.00  0.00    +0.132 C 
ATOM     13  C   UNL     1      32.679 -22.869 -16.402  0.00  0.00    +0.038 C 
ATOM     14  C   UNL     1      32.022 -24.129 -13.952  0.00  0.00    +0.020 C 
ATOM     15  C   UNL     1      38.463 -23.754 -11.881  0.00  0.00    +0.114 C 
ATOM     16  C   UNL     1      31.354 -23.204 -16.097  0.00  0.00    +0.139 C 
ATOM     17  C   UNL     1      31.035 -23.825 -14.892  0.00  0.00    +0.038 C 
ENDROOT
BRANCH  16  18
ATOM     18  O   UNL     1      30.366 -22.916 -16.991  0.00  0.00    -0.471 OA
ATOM     19  C   UNL     1      29.022 -23.046 -16.534  0.00  0.00    +0.252 C 
ENDBRANCH  16  18
TORSDOF 1
ENDMDL
MODEL 8
REMARK VINA RESULT:      -8.4      2.894      5.957
REMARK  Name = 68713
REMARK  1 active torsions:
REMARK  status: ('A' for Active; 'I' for Inactive)
REMARK    1  A    between atoms: C_16  and  O_18
REMARK                            x       y       z     vdW  Elec       q    Type
REMARK                         _______ _______ _______ _____ _____    ______ ____
ROOT
ATOM      1  N   UNL     1      32.980 -23.658 -14.455  0.00  0.00    -0.323 N 
ATOM      2  N   UNL     1      30.496 -23.404 -15.807  0.00  0.00    -0.289 N 
ATOM      3  N   UNL     1      31.771 -22.660 -17.702  0.00  0.00    -0.255 NA
ATOM      4  C   UNL     1      32.909 -23.347 -15.773  0.00  0.00    +0.088 A 
ATOM      5  C   UNL     1      34.161 -23.352 -16.313  0.00  0.00    -0.000 A 
ATOM      6  C   UNL     1      31.764 -23.730 -13.665  0.00  0.00    +0.127 C 
ATOM      7  C   UNL     1      34.292 -23.835 -14.090  0.00  0.00    +0.060 A 
ATOM      8  C   UNL     1      35.065 -23.651 -15.256  0.00  0.00    +0.016 A 
ATOM      9  C   UNL     1      31.685 -23.112 -16.486  0.00  0.00    +0.143 C 
ATOM     10  C   UNL     1      30.549 -24.140 -14.524  0.00  0.00    +0.117 C 
ATOM     11  C   UNL     1      34.299 -23.104 -17.763  0.00  0.00    +0.054 C 
ATOM     12  C   UNL     1      33.097 -22.272 -18.259  0.00  0.00    +0.132 C 
ATOM     13  C   UNL     1      36.464 -23.793 -15.171  0.00  0.00    +0.038 C 
ATOM     14  C   UNL     1      34.874 -24.143 -12.853  0.00  0.00    +0.020 C 
ATOM     15  C   UNL     1      29.198 -23.307 -16.456  0.00  0.00    +0.114 C 
ATOM     16  C   UNL     1      37.049 -24.100 -13.937  0.00  0.00    +0.139 C 
ATOM     17  C   UNL     1      36.265 -24.271 -12.799  0.00  0.00    +0.038 C 
ENDROOT
BRANCH  16  18
ATOM     18  O   UNL     1      38.402 -24.237 -13.852  0.00  0.00    -0.471 OA
ATOM     19  C   UNL     1      38.898 -25.502 -13.417  0.00  0.00    +0.252 C 
ENDBRANCH  16  18
TORSDOF 1
ENDMDL
MODEL 9
REMARK VINA RESULT:      -8.4     12.416     15.142
REMARK  Name = 68713
REMARK  1 active torsions:
REMARK  status: ('A' for Active; 'I' for Inactive)
REMARK    1  A    between atoms: C_16  and  O_18
REMARK                            x       y       z     vdW  Elec       q    Type
REMARK                         _______ _______ _______ _____ _____    ______ ____
ROOT
ATOM      1  N   UNL     1      33.458 -10.506 -23.949  0.00  0.00    -0.323 N 
ATOM      2  N   UNL     1      33.413 -13.302 -24.445  0.00  0.00    -0.289 N 
ATOM      3  N   UNL     1      32.291 -13.510 -22.332  0.00  0.00    -0.255 NA
ATOM      4  C   UNL     1      32.803 -11.369 -23.134  0.00  0.00    +0.088 A 
ATOM      5  C   UNL     1      32.087 -10.670 -22.207  0.00  0.00    -0.000 A 
ATOM      6  C   UNL     1      34.281 -11.019 -25.030  0.00  0.00    +0.127 C 
ATOM      7  C   UNL     1      33.217  -9.215 -23.547  0.00  0.00    +0.060 A 
ATOM      8  C   UNL     1      32.343  -9.291 -22.443  0.00  0.00    +0.016 A 
ATOM      9  C   UNL     1      32.824 -12.798 -23.279  0.00  0.00    +0.143 C 
ATOM     10  C   UNL     1      33.760 -12.377 -25.548  0.00  0.00    +0.117 C 
ATOM     11  C   UNL     1      31.241 -11.426 -21.260  0.00  0.00    +0.054 C 
ATOM     12  C   UNL     1      31.811 -12.850 -21.086  0.00  0.00    +0.132 C 
ATOM     13  C   UNL     1      31.913  -8.095 -21.835  0.00  0.00    +0.038 C 
ATOM     14  C   UNL     1      33.678  -7.990 -24.048  0.00  0.00    +0.020 C 
ATOM     15  C   UNL     1      33.404 -14.723 -24.757  0.00  0.00    +0.114 C 
ATOM     16  C   UNL     1      32.371  -6.870 -22.333  0.00  0.00    +0.139 C 
ATOM     17  C   UNL     1      33.240  -6.821 -23.420  0.00  0.00    +0.038 C 
ENDROOT
BRANCH  16  18
ATOM     18  O   UNL     1      31.957  -5.711 -21.746  0.00  0.00    -0.471 OA
ATOM     19  C   UNL     1      30.602  -5.324 -21.963  0.00  0.00    +0.252 C 
ENDBRANCH  16  18
TORSDOF 1
ENDMDL
