MODEL 1
REMARK VINA RESULT:     -12.4      0.000      0.000
REMARK  Name = 23729147
REMARK  5 active torsions:
REMARK  status: ('A' for Active; 'I' for Inactive)
REMARK    1  A    between atoms: O_1  and  C_6
REMARK    2  A    between atoms: O_1  and  C_18
REMARK    3  A    between atoms: C_18  and  C_20
REMARK    4  A    between atoms: N_19  and  C_26
REMARK    5  A    between atoms: C_26  and  C_28
REMARK                            x       y       z     vdW  Elec       q    Type
REMARK                         _______ _______ _______ _____ _____    ______ ____
ROOT
ATOM      1  O   UNL     1      34.956 -22.824 -17.251  0.00  0.00    -0.479 OA
ENDROOT
BRANCH   1   6
ATOM      2  N   UNL     1      35.867 -24.007 -12.640  0.00  0.00    -0.332 NA
ATOM      3  N   UNL     1      37.722 -23.404 -14.055  0.00  0.00    -0.317 NA
ATOM      4  N   UNL     1      37.405 -22.817 -16.290  0.00  0.00    -0.335 N 
ATOM      5  N   UNL     1      38.061 -23.991 -11.812  0.00  0.00    -0.283 N 
ATOM      6  C   UNL     1      34.569 -23.217 -15.992  0.00  0.00    +0.130 C 
ATOM      7  C   UNL     1      35.469 -23.413 -14.930  0.00  0.00    +0.177 C 
ATOM      8  C   UNL     1      33.207 -23.423 -15.797  0.00  0.00    +0.033 C 
ATOM      9  C   UNL     1      35.015 -23.817 -13.664  0.00  0.00    +0.137 C 
ATOM     10  C   UNL     1      36.842 -23.223 -15.057  0.00  0.00    +0.181 C 
ATOM     11  C   UNL     1      32.746 -23.824 -14.549  0.00  0.00    +0.005 C 
ATOM     12  C   UNL     1      33.647 -24.015 -13.497  0.00  0.00    +0.030 C 
ATOM     13  C   UNL     1      37.174 -23.790 -12.891  0.00  0.00    +0.197 C 
ATOM     14  H   UNL     1      38.378 -22.686 -16.367  0.00  0.00    +0.144 HD
ATOM     15  H   UNL     1      36.824 -22.664 -17.070  0.00  0.00    +0.144 HD
ATOM     16  H   UNL     1      37.715 -24.274 -10.936  0.00  0.00    +0.156 HD
ATOM     17  H   UNL     1      39.027 -23.847 -11.936  0.00  0.00    +0.156 HD
ENDBRANCH   1   6
BRANCH   1  18
ATOM     18  C   UNL     1      33.939 -22.713 -18.229  0.00  0.00    +0.205 C 
BRANCH  18  20
ATOM     19  N   UNL     1      35.444 -19.453 -20.631  0.00  0.00    +0.390 N 
ATOM     20  C   UNL     1      34.501 -21.956 -19.429  0.00  0.00    +0.040 C 
ATOM     21  C   UNL     1      35.873 -21.354 -19.108  0.00  0.00    -0.019 C 
ATOM     22  C   UNL     1      33.543 -20.847 -19.878  0.00  0.00    -0.019 C 
ATOM     23  C   UNL     1      36.398 -20.511 -20.271  0.00  0.00    -0.077 C 
ATOM     24  C   UNL     1      34.145 -20.020 -21.017  0.00  0.00    -0.077 C 
ATOM     25  H   UNL     1      35.299 -18.867 -19.809  0.00  0.00    -0.079 HD
BRANCH  19  26
ATOM     26  C   UNL     1      35.982 -18.624 -21.709  0.00  0.00    -0.048 C 
BRANCH  26  28
ATOM     27  F   UNL     1      35.286 -17.416 -24.178  0.00  0.00    -0.205 F 
ATOM     28  C   UNL     1      35.271 -17.300 -21.806  0.00  0.00    -0.016 C 
ATOM     29  C   UNL     1      34.959 -16.763 -23.055  0.00  0.00    +0.134 C 
ATOM     30  C   UNL     1      34.925 -16.611 -20.644  0.00  0.00    -0.004 C 
ATOM     31  C   UNL     1      34.301 -15.535 -23.141  0.00  0.00    +0.029 C 
ATOM     32  C   UNL     1      34.268 -15.384 -20.730  0.00  0.00    -0.000 C 
ATOM     33  C   UNL     1      33.956 -14.846 -21.978  0.00  0.00    +0.002 C 
ENDBRANCH  26  28
ENDBRANCH  19  26
ENDBRANCH  18  20
ENDBRANCH   1  18
TORSDOF 5
ENDMDL
MODEL 2
REMARK VINA RESULT:     -12.3      3.688     10.245
REMARK  Name = 23729147
REMARK  5 active torsions:
REMARK  status: ('A' for Active; 'I' for Inactive)
REMARK    1  A    between atoms: O_1  and  C_6
REMARK    2  A    between atoms: O_1  and  C_18
REMARK    3  A    between atoms: C_18  and  C_20
REMARK    4  A    between atoms: N_19  and  C_26
REMARK    5  A    between atoms: C_26  and  C_28
REMARK                            x       y       z     vdW  Elec       q    Type
REMARK                         _______ _______ _______ _____ _____    ______ ____
ROOT
ATOM      1  O   UNL     1      35.127 -18.029 -22.503  0.00  0.00    -0.479 OA
ENDROOT
BRANCH   1   6
ATOM      2  N   UNL     1      33.378 -14.032 -24.612  0.00  0.00    -0.332 NA
ATOM      3  N   UNL     1      33.788 -15.967 -25.990  0.00  0.00    -0.317 NA
ATOM      4  N   UNL     1      34.629 -17.945 -25.085  0.00  0.00    -0.335 N 
ATOM      5  N   UNL     1      32.944 -13.987 -26.916  0.00  0.00    -0.283 N 
ATOM      6  C   UNL     1      34.686 -16.728 -22.476  0.00  0.00    +0.130 C 
ATOM      7  C   UNL     1      34.243 -16.036 -23.616  0.00  0.00    +0.177 C 
ATOM      8  C   UNL     1      34.694 -16.096 -21.237  0.00  0.00    +0.033 C 
ATOM      9  C   UNL     1      33.804 -14.704 -23.528  0.00  0.00    +0.137 C 
ATOM     10  C   UNL     1      34.209 -16.610 -24.884  0.00  0.00    +0.181 C 
ATOM     11  C   UNL     1      34.263 -14.778 -21.137  0.00  0.00    +0.005 C 
ATOM     12  C   UNL     1      33.823 -14.097 -22.276  0.00  0.00    +0.030 C 
ATOM     13  C   UNL     1      33.393 -14.700 -25.784  0.00  0.00    +0.197 C 
ATOM     14  H   UNL     1      34.600 -18.340 -25.986  0.00  0.00    +0.144 HD
ATOM     15  H   UNL     1      34.950 -18.481 -24.323  0.00  0.00    +0.144 HD
ATOM     16  H   UNL     1      32.642 -13.056 -26.825  0.00  0.00    +0.156 HD
ATOM     17  H   UNL     1      32.932 -14.424 -27.799  0.00  0.00    +0.156 HD
ENDBRANCH   1   6
BRANCH   1  18
ATOM     18  C   UNL     1      35.777 -18.510 -21.341  0.00  0.00    +0.205 C 
BRANCH  18  20
ATOM     19  N   UNL     1      34.150 -21.831 -19.109  0.00  0.00    +0.390 N 
ATOM     20  C   UNL     1      35.245 -19.907 -21.030  0.00  0.00    +0.040 C 
ATOM     21  C   UNL     1      33.794 -19.848 -20.544  0.00  0.00    -0.019 C 
ATOM     22  C   UNL     1      36.115 -20.606 -19.981  0.00  0.00    -0.019 C 
ATOM     23  C   UNL     1      33.286 -21.232 -20.135  0.00  0.00    -0.077 C 
ATOM     24  C   UNL     1      35.531 -21.966 -19.590  0.00  0.00    -0.077 C 
ATOM     25  H   UNL     1      34.158 -21.208 -18.302  0.00  0.00    -0.079 HD
BRANCH  19  26
ATOM     26  C   UNL     1      33.623 -23.131 -18.692  0.00  0.00    -0.048 C 
BRANCH  26  28
ATOM     27  F   UNL     1      35.422 -23.322 -16.510  0.00  0.00    -0.205 F 
ATOM     28  C   UNL     1      33.176 -23.120 -17.254  0.00  0.00    -0.016 C 
ATOM     29  C   UNL     1      34.116 -23.217 -16.228  0.00  0.00    +0.134 C 
ATOM     30  C   UNL     1      31.820 -23.012 -16.951  0.00  0.00    -0.004 C 
ATOM     31  C   UNL     1      33.698 -23.208 -14.897  0.00  0.00    +0.029 C 
ATOM     32  C   UNL     1      31.402 -23.002 -15.620  0.00  0.00    -0.000 C 
ATOM     33  C   UNL     1      32.341 -23.101 -14.593  0.00  0.00    +0.002 C 
ENDBRANCH  26  28
ENDBRANCH  19  26
ENDBRANCH  18  20
ENDBRANCH   1  18
TORSDOF 5
ENDMDL
MODEL 3
REMARK VINA RESULT:     -12.2      5.757     11.859
REMARK  Name = 23729147
REMARK  5 active torsions:
REMARK  status: ('A' for Active; 'I' for Inactive)
REMARK    1  A    between atoms: O_1  and  C_6
REMARK    2  A    between atoms: O_1  and  C_18
REMARK    3  A    between atoms: C_18  and  C_20
REMARK    4  A    between atoms: N_19  and  C_26
REMARK    5  A    between atoms: C_26  and  C_28
REMARK                            x       y       z     vdW  Elec       q    Type
REMARK                         _______ _______ _______ _____ _____    ______ ____
ROOT
ATOM      1  O   UNL     1      32.731 -13.335 -23.822  0.00  0.00    -0.479 OA
ENDROOT
BRANCH   1   6
ATOM      2  N   UNL     1      33.211  -8.639 -22.725  0.00  0.00    -0.332 NA
ATOM      3  N   UNL     1      31.682  -9.968 -21.420  0.00  0.00    -0.317 NA
ATOM      4  N   UNL     1      31.368 -12.238 -21.856  0.00  0.00    -0.335 N 
ATOM      5  N   UNL     1      31.983  -7.689 -20.967  0.00  0.00    -0.283 N 
ATOM      6  C   UNL     1      33.274 -12.087 -24.010  0.00  0.00    +0.130 C 
ATOM      7  C   UNL     1      32.937 -10.969 -23.227  0.00  0.00    +0.177 C 
ATOM      8  C   UNL     1      34.201 -11.963 -25.040  0.00  0.00    +0.033 C 
ATOM      9  C   UNL     1      33.525  -9.716 -23.468  0.00  0.00    +0.137 C 
ATOM     10  C   UNL     1      32.019 -11.025 -22.182  0.00  0.00    +0.181 C 
ATOM     11  C   UNL     1      34.788 -10.727 -25.287  0.00  0.00    +0.005 C 
ATOM     12  C   UNL     1      34.450  -9.620 -24.504  0.00  0.00    +0.030 C 
ATOM     13  C   UNL     1      32.307  -8.824 -21.741  0.00  0.00    +0.197 C 
ATOM     14  H   UNL     1      30.721 -12.266 -21.115  0.00  0.00    +0.144 HD
ATOM     15  H   UNL     1      31.564 -13.056 -22.369  0.00  0.00    +0.144 HD
ATOM     16  H   UNL     1      32.411  -6.824 -21.158  0.00  0.00    +0.156 HD
ATOM     17  H   UNL     1      31.330  -7.764 -20.234  0.00  0.00    +0.156 HD
ENDBRANCH   1   6
BRANCH   1  18
ATOM     18  C   UNL     1      33.125 -14.350 -24.727  0.00  0.00    +0.205 C 
BRANCH  18  20
ATOM     19  N   UNL     1      34.818 -17.639 -22.497  0.00  0.00    +0.390 N 
ATOM     20  C   UNL     1      34.162 -15.235 -24.041  0.00  0.00    +0.040 C 
ATOM     21  C   UNL     1      34.197 -16.632 -24.669  0.00  0.00    -0.019 C 
ATOM     22  C   UNL     1      33.881 -15.349 -22.539  0.00  0.00    -0.019 C 
ATOM     23  C   UNL     1      35.162 -17.555 -23.923  0.00  0.00    -0.077 C 
ATOM     24  C   UNL     1      34.857 -16.315 -21.862  0.00  0.00    -0.077 C 
ATOM     25  H   UNL     1      33.865 -17.994 -22.424  0.00  0.00    -0.079 HD
BRANCH  19  26
ATOM     26  C   UNL     1      35.717 -18.564 -21.808  0.00  0.00    -0.048 C 
BRANCH  26  28
ATOM     27  F   UNL     1      36.991 -20.569 -20.260  0.00  0.00    -0.205 F 
ATOM     28  C   UNL     1      34.960 -19.582 -20.997  0.00  0.00    -0.016 C 
ATOM     29  C   UNL     1      35.651 -20.543 -20.257  0.00  0.00    +0.134 C 
ATOM     30  C   UNL     1      33.566 -19.564 -20.987  0.00  0.00    -0.004 C 
ATOM     31  C   UNL     1      34.946 -21.486 -19.508  0.00  0.00    +0.029 C 
ATOM     32  C   UNL     1      32.861 -20.506 -20.238  0.00  0.00    -0.000 C 
ATOM     33  C   UNL     1      33.551 -21.468 -19.499  0.00  0.00    +0.002 C 
ENDBRANCH  26  28
ENDBRANCH  19  26
ENDBRANCH  18  20
ENDBRANCH   1  18
TORSDOF 5
ENDMDL
MODEL 4
REMARK VINA RESULT:     -12.1      1.424      2.230
REMARK  Name = 23729147
REMARK  5 active torsions:
REMARK  status: ('A' for Active; 'I' for Inactive)
REMARK    1  A    between atoms: O_1  and  C_6
REMARK    2  A    between atoms: O_1  and  C_18
REMARK    3  A    between atoms: C_18  and  C_20
REMARK    4  A    between atoms: N_19  and  C_26
REMARK    5  A    between atoms: C_26  and  C_28
REMARK                            x       y       z     vdW  Elec       q    Type
REMARK                         _______ _______ _______ _____ _____    ______ ____
ROOT
ATOM      1  O   UNL     1      34.485 -23.215 -17.489  0.00  0.00    -0.479 OA
ENDROOT
BRANCH   1   6
ATOM      2  N   UNL     1      33.746 -24.153 -12.792  0.00  0.00    -0.332 NA
ATOM      3  N   UNL     1      36.012 -24.144 -13.614  0.00  0.00    -0.317 NA
ATOM      4  N   UNL     1      36.488 -23.706 -15.855  0.00  0.00    -0.335 N 
ATOM      5  N   UNL     1      35.552 -24.586 -11.359  0.00  0.00    -0.283 N 
ATOM      6  C   UNL     1      33.677 -23.387 -16.390  0.00  0.00    +0.130 C 
ATOM      7  C   UNL     1      34.165 -23.694 -15.109  0.00  0.00    +0.177 C 
ATOM      8  C   UNL     1      32.309 -23.243 -16.598  0.00  0.00    +0.033 C 
ATOM      9  C   UNL     1      33.290 -23.860 -14.023  0.00  0.00    +0.137 C 
ATOM     10  C   UNL     1      35.521 -23.850 -14.833  0.00  0.00    +0.181 C 
ATOM     11  C   UNL     1      31.433 -23.405 -15.531  0.00  0.00    +0.005 C 
ATOM     12  C   UNL     1      31.927 -23.709 -14.259  0.00  0.00    +0.030 C 
ATOM     13  C   UNL     1      35.082 -24.279 -12.654  0.00  0.00    +0.197 C 
ATOM     14  H   UNL     1      37.444 -23.819 -15.648  0.00  0.00    +0.144 HD
ATOM     15  H   UNL     1      36.206 -23.490 -16.773  0.00  0.00    +0.144 HD
ATOM     16  H   UNL     1      34.916 -24.697 -10.618  0.00  0.00    +0.156 HD
ATOM     17  H   UNL     1      36.519 -24.689 -11.199  0.00  0.00    +0.156 HD
ENDBRANCH   1   6
BRANCH   1  18
ATOM     18  C   UNL     1      33.854 -22.831 -18.696  0.00  0.00    +0.205 C 
BRANCH  18  20
ATOM     19  N   UNL     1      35.438 -19.698 -21.212  0.00  0.00    +0.390 N 
ATOM     20  C   UNL     1      34.404 -21.472 -19.120  0.00  0.00    +0.040 C 
ATOM     21  C   UNL     1      33.495 -20.809 -20.159  0.00  0.00    -0.019 C 
ATOM     22  C   UNL     1      35.823 -21.604 -19.683  0.00  0.00    -0.019 C 
ATOM     23  C   UNL     1      34.091 -19.493 -20.663  0.00  0.00    -0.077 C 
ATOM     24  C   UNL     1      36.343 -20.261 -20.202  0.00  0.00    -0.077 C 
ATOM     25  H   UNL     1      35.367 -20.367 -21.979  0.00  0.00    -0.079 HD
BRANCH  19  26
ATOM     26  C   UNL     1      35.973 -18.441 -21.736  0.00  0.00    -0.048 C 
BRANCH  26  28
ATOM     27  F   UNL     1      35.294 -15.759 -22.352  0.00  0.00    -0.205 F 
ATOM     28  C   UNL     1      35.300 -18.037 -23.021  0.00  0.00    -0.016 C 
ATOM     29  C   UNL     1      34.994 -16.697 -23.260  0.00  0.00    +0.134 C 
ATOM     30  C   UNL     1      34.982 -19.006 -23.972  0.00  0.00    -0.004 C 
ATOM     31  C   UNL     1      34.368 -16.327 -24.451  0.00  0.00    +0.029 C 
ATOM     32  C   UNL     1      34.358 -18.636 -25.163  0.00  0.00    -0.000 C 
ATOM     33  C   UNL     1      34.050 -17.296 -25.402  0.00  0.00    +0.002 C 
ENDBRANCH  26  28
ENDBRANCH  19  26
ENDBRANCH  18  20
ENDBRANCH   1  18
TORSDOF 5
ENDMDL
MODEL 5
REMARK VINA RESULT:     -11.9      5.680     11.897
REMARK  Name = 23729147
REMARK  5 active torsions:
REMARK  status: ('A' for Active; 'I' for Inactive)
REMARK    1  A    between atoms: O_1  and  C_6
REMARK    2  A    between atoms: O_1  and  C_18
REMARK    3  A    between atoms: C_18  and  C_20
REMARK    4  A    between atoms: N_19  and  C_26
REMARK    5  A    between atoms: C_26  and  C_28
REMARK                            x       y       z     vdW  Elec       q    Type
REMARK                         _______ _______ _______ _____ _____    ______ ____
ROOT
ATOM      1  O   UNL     1      33.844 -13.009 -23.885  0.00  0.00    -0.479 OA
ENDROOT
BRANCH   1   6
ATOM      2  N   UNL     1      32.488  -8.510 -22.700  0.00  0.00    -0.332 NA
ATOM      3  N   UNL     1      34.283  -8.783 -24.284  0.00  0.00    -0.317 NA
ATOM      4  N   UNL     1      35.021 -10.900 -24.929  0.00  0.00    -0.335 N 
ATOM      5  N   UNL     1      33.556  -6.649 -23.647  0.00  0.00    -0.283 N 
ATOM      6  C   UNL     1      33.063 -12.110 -23.199  0.00  0.00    +0.130 C 
ATOM      7  C   UNL     1      33.196 -10.716 -23.320  0.00  0.00    +0.177 C 
ATOM      8  C   UNL     1      32.100 -12.646 -22.349  0.00  0.00    +0.033 C 
ATOM      9  C   UNL     1      32.369  -9.845 -22.591  0.00  0.00    +0.137 C 
ATOM     10  C   UNL     1      34.137 -10.115 -24.152  0.00  0.00    +0.181 C 
ATOM     11  C   UNL     1      31.276 -11.794 -21.623  0.00  0.00    +0.005 C 
ATOM     12  C   UNL     1      31.415 -10.409 -21.749  0.00  0.00    +0.030 C 
ATOM     13  C   UNL     1      33.438  -8.052 -23.540  0.00  0.00    +0.197 C 
ATOM     14  H   UNL     1      35.681 -10.464 -25.514  0.00  0.00    +0.144 HD
ATOM     15  H   UNL     1      34.974 -11.883 -24.887  0.00  0.00    +0.144 HD
ATOM     16  H   UNL     1      32.962  -6.063 -23.125  0.00  0.00    +0.156 HD
ATOM     17  H   UNL     1      34.232  -6.257 -24.247  0.00  0.00    +0.156 HD
ENDBRANCH   1   6
BRANCH   1  18
ATOM     18  C   UNL     1      33.348 -14.329 -24.005  0.00  0.00    +0.205 C 
BRANCH  18  20
ATOM     19  N   UNL     1      34.961 -17.827 -22.049  0.00  0.00    +0.390 N 
ATOM     20  C   UNL     1      34.362 -15.286 -23.384  0.00  0.00    +0.040 C 
ATOM     21  C   UNL     1      34.389 -16.623 -24.133  0.00  0.00    -0.019 C 
ATOM     22  C   UNL     1      34.055 -15.529 -21.903  0.00  0.00    -0.019 C 
ATOM     23  C   UNL     1      35.330 -17.622 -23.457  0.00  0.00    -0.077 C 
ATOM     24  C   UNL     1      35.008 -16.564 -21.300  0.00  0.00    -0.077 C 
ATOM     25  H   UNL     1      34.003 -18.173 -22.022  0.00  0.00    -0.079 HD
BRANCH  19  26
ATOM     26  C   UNL     1      35.837 -18.822 -21.431  0.00  0.00    -0.048 C 
BRANCH  26  28
ATOM     27  F   UNL     1      37.056 -21.021 -20.122  0.00  0.00    -0.205 F 
ATOM     28  C   UNL     1      35.054 -19.886 -20.709  0.00  0.00    -0.016 C 
ATOM     29  C   UNL     1      35.719 -20.943 -20.085  0.00  0.00    +0.134 C 
ATOM     30  C   UNL     1      33.663 -19.814 -20.665  0.00  0.00    -0.004 C 
ATOM     31  C   UNL     1      34.990 -21.928 -19.418  0.00  0.00    +0.029 C 
ATOM     32  C   UNL     1      32.934 -20.798 -19.997  0.00  0.00    -0.000 C 
ATOM     33  C   UNL     1      33.598 -21.856 -19.374  0.00  0.00    +0.002 C 
ENDBRANCH  26  28
ENDBRANCH  19  26
ENDBRANCH  18  20
ENDBRANCH   1  18
TORSDOF 5
ENDMDL
MODEL 6
REMARK VINA RESULT:     -11.9      2.584      3.751
REMARK  Name = 23729147
REMARK  5 active torsions:
REMARK  status: ('A' for Active; 'I' for Inactive)
REMARK    1  A    between atoms: O_1  and  C_6
REMARK    2  A    between atoms: O_1  and  C_18
REMARK    3  A    between atoms: C_18  and  C_20
REMARK    4  A    between atoms: N_19  and  C_26
REMARK    5  A    between atoms: C_26  and  C_28
REMARK                            x       y       z     vdW  Elec       q    Type
REMARK                         _______ _______ _______ _____ _____    ______ ____
ROOT
ATOM      1  O   UNL     1      32.674 -22.542 -18.016  0.00  0.00    -0.479 OA
ENDROOT
BRANCH   1   6
ATOM      2  N   UNL     1      32.168 -24.384 -13.563  0.00  0.00    -0.332 NA
ATOM      3  N   UNL     1      30.183 -23.728 -14.762  0.00  0.00    -0.317 NA
ATOM      4  N   UNL     1      30.304 -22.829 -16.911  0.00  0.00    -0.335 N 
ATOM      5  N   UNL     1      30.042 -24.628 -12.603  0.00  0.00    -0.283 N 
ATOM      6  C   UNL     1      33.172 -23.073 -16.851  0.00  0.00    +0.130 C 
ATOM      7  C   UNL     1      32.365 -23.467 -15.770  0.00  0.00    +0.177 C 
ATOM      8  C   UNL     1      34.555 -23.211 -16.773  0.00  0.00    +0.033 C 
ATOM      9  C   UNL     1      32.931 -24.003 -14.602  0.00  0.00    +0.137 C 
ATOM     10  C   UNL     1      30.977 -23.357 -15.784  0.00  0.00    +0.181 C 
ATOM     11  C   UNL     1      35.127 -23.740 -15.622  0.00  0.00    +0.005 C 
ATOM     12  C   UNL     1      34.317 -24.130 -14.552  0.00  0.00    +0.030 C 
ATOM     13  C   UNL     1      30.835 -24.226 -13.699  0.00  0.00    +0.197 C 
ATOM     14  H   UNL     1      29.322 -22.756 -16.908  0.00  0.00    +0.144 HD
ATOM     15  H   UNL     1      30.817 -22.536 -17.698  0.00  0.00    +0.144 HD
ATOM     16  H   UNL     1      30.466 -25.000 -11.798  0.00  0.00    +0.156 HD
ATOM     17  H   UNL     1      29.062 -24.537 -12.646  0.00  0.00    +0.156 HD
ENDBRANCH   1   6
BRANCH   1  18
ATOM     18  C   UNL     1      33.477 -22.670 -19.175  0.00  0.00    +0.205 C 
BRANCH  18  20
ATOM     19  N   UNL     1      35.381 -19.477 -21.374  0.00  0.00    +0.390 N 
ATOM     20  C   UNL     1      34.117 -21.317 -19.474  0.00  0.00    +0.040 C 
ATOM     21  C   UNL     1      33.318 -20.552 -20.534  0.00  0.00    -0.019 C 
ATOM     22  C   UNL     1      35.566 -21.484 -19.940  0.00  0.00    -0.019 C 
ATOM     23  C   UNL     1      34.007 -19.239 -20.912  0.00  0.00    -0.077 C 
ATOM     24  C   UNL     1      36.182 -20.140 -20.337  0.00  0.00    -0.077 C 
ATOM     25  H   UNL     1      35.338 -20.096 -22.183  0.00  0.00    -0.079 HD
BRANCH  19  26
ATOM     26  C   UNL     1      36.008 -18.219 -21.779  0.00  0.00    -0.048 C 
BRANCH  26  28
ATOM     27  F   UNL     1      35.043 -15.553 -21.807  0.00  0.00    -0.205 F 
ATOM     28  C   UNL     1      35.318 -17.606 -22.969  0.00  0.00    -0.016 C 
ATOM     29  C   UNL     1      34.867 -16.287 -22.915  0.00  0.00    +0.134 C 
ATOM     30  C   UNL     1      35.129 -18.361 -24.126  0.00  0.00    -0.004 C 
ATOM     31  C   UNL     1      34.226 -15.723 -24.019  0.00  0.00    +0.029 C 
ATOM     32  C   UNL     1      34.489 -17.797 -25.230  0.00  0.00    -0.000 C 
ATOM     33  C   UNL     1      34.037 -16.478 -25.176  0.00  0.00    +0.002 C 
ENDBRANCH  26  28
ENDBRANCH  19  26
ENDBRANCH  18  20
ENDBRANCH   1  18
TORSDOF 5
ENDMDL
MODEL 7
REMARK VINA RESULT:     -11.8      6.212     11.943
REMARK  Name = 23729147
REMARK  5 active torsions:
REMARK  status: ('A' for Active; 'I' for Inactive)
REMARK    1  A    between atoms: O_1  and  C_6
REMARK    2  A    between atoms: O_1  and  C_18
REMARK    3  A    between atoms: C_18  and  C_20
REMARK    4  A    between atoms: N_19  and  C_26
REMARK    5  A    between atoms: C_26  and  C_28
REMARK                            x       y       z     vdW  Elec       q    Type
REMARK                         _______ _______ _______ _____ _____    ______ ____
ROOT
ATOM      1  O   UNL     1      32.588 -11.963 -22.580  0.00  0.00    -0.479 OA
ENDROOT
BRANCH   1   6
ATOM      2  N   UNL     1      31.822  -7.698 -20.410  0.00  0.00    -0.332 NA
ATOM      3  N   UNL     1      32.594  -7.698 -22.693  0.00  0.00    -0.317 NA
ATOM      4  N   UNL     1      32.997  -9.689 -23.839  0.00  0.00    -0.335 N 
ATOM      5  N   UNL     1      32.195  -5.687 -21.558  0.00  0.00    -0.283 N 
ATOM      6  C   UNL     1      32.218 -11.188 -21.508  0.00  0.00    +0.130 C 
ATOM      7  C   UNL     1      32.216  -9.783 -21.530  0.00  0.00    +0.177 C 
ATOM      8  C   UNL     1      31.833 -11.867 -20.356  0.00  0.00    +0.033 C 
ATOM      9  C   UNL     1      31.829  -9.043 -20.400  0.00  0.00    +0.137 C 
ATOM     10  C   UNL     1      32.589  -9.044 -22.649  0.00  0.00    +0.181 C 
ATOM     11  C   UNL     1      31.449 -11.146 -19.232  0.00  0.00    +0.005 C 
ATOM     12  C   UNL     1      31.448  -9.748 -19.262  0.00  0.00    +0.030 C 
ATOM     13  C   UNL     1      32.205  -7.099 -21.556  0.00  0.00    +0.197 C 
ATOM     14  H   UNL     1      33.258  -9.156 -24.624  0.00  0.00    +0.144 HD
ATOM     15  H   UNL     1      33.019 -10.673 -23.884  0.00  0.00    +0.144 HD
ATOM     16  H   UNL     1      31.919  -5.196 -20.752  0.00  0.00    +0.156 HD
ATOM     17  H   UNL     1      32.464  -5.195 -22.368  0.00  0.00    +0.156 HD
ENDBRANCH   1   6
BRANCH   1  18
ATOM     18  C   UNL     1      32.151 -13.309 -22.581  0.00  0.00    +0.205 C 
BRANCH  18  20
ATOM     19  N   UNL     1      34.516 -16.904 -22.201  0.00  0.00    +0.390 N 
ATOM     20  C   UNL     1      33.370 -14.215 -22.428  0.00  0.00    +0.040 C 
ATOM     21  C   UNL     1      33.516 -15.152 -23.632  0.00  0.00    -0.019 C 
ATOM     22  C   UNL     1      33.285 -15.040 -21.139  0.00  0.00    -0.019 C 
ATOM     23  C   UNL     1      34.676 -16.130 -23.440  0.00  0.00    -0.077 C 
ATOM     24  C   UNL     1      34.453 -16.022 -21.029  0.00  0.00    -0.077 C 
ATOM     25  H   UNL     1      33.634 -17.413 -22.260  0.00  0.00    -0.079 HD
BRANCH  19  26
ATOM     26  C   UNL     1      35.605 -17.870 -22.058  0.00  0.00    -0.048 C 
BRANCH  26  28
ATOM     27  F   UNL     1      37.453 -19.521 -20.680  0.00  0.00    -0.205 F 
ATOM     28  C   UNL     1      35.190 -19.065 -21.240  0.00  0.00    -0.016 C 
ATOM     29  C   UNL     1      36.153 -19.835 -20.587  0.00  0.00    +0.134 C 
ATOM     30  C   UNL     1      33.841 -19.401 -21.137  0.00  0.00    -0.004 C 
ATOM     31  C   UNL     1      35.765 -20.942 -19.831  0.00  0.00    +0.029 C 
ATOM     32  C   UNL     1      33.453 -20.507 -20.381  0.00  0.00    -0.000 C 
ATOM     33  C   UNL     1      34.415 -21.278 -19.728  0.00  0.00    +0.002 C 
ENDBRANCH  26  28
ENDBRANCH  19  26
ENDBRANCH  18  20
ENDBRANCH   1  18
TORSDOF 5
ENDMDL
MODEL 8
REMARK VINA RESULT:     -11.7      3.664      9.934
REMARK  Name = 23729147
REMARK  5 active torsions:
REMARK  status: ('A' for Active; 'I' for Inactive)
REMARK    1  A    between atoms: O_1  and  C_6
REMARK    2  A    between atoms: O_1  and  C_18
REMARK    3  A    between atoms: C_18  and  C_20
REMARK    4  A    between atoms: N_19  and  C_26
REMARK    5  A    between atoms: C_26  and  C_28
REMARK                            x       y       z     vdW  Elec       q    Type
REMARK                         _______ _______ _______ _____ _____    ______ ____
ROOT
ATOM      1  O   UNL     1      34.937 -18.000 -21.245  0.00  0.00    -0.479 OA
ENDROOT
BRANCH   1   6
ATOM      2  N   UNL     1      33.983 -14.620 -24.585  0.00  0.00    -0.332 NA
ATOM      3  N   UNL     1      34.078 -13.949 -22.272  0.00  0.00    -0.317 NA
ATOM      4  N   UNL     1      34.529 -15.487 -20.578  0.00  0.00    -0.335 N 
ATOM      5  N   UNL     1      33.624 -12.388 -23.960  0.00  0.00    -0.283 N 
ATOM      6  C   UNL     1      34.737 -17.585 -22.539  0.00  0.00    +0.130 C 
ATOM      7  C   UNL     1      34.452 -16.255 -22.893  0.00  0.00    +0.177 C 
ATOM      8  C   UNL     1      34.827 -18.563 -23.525  0.00  0.00    +0.033 C 
ATOM      9  C   UNL     1      34.255 -15.890 -24.235  0.00  0.00    +0.137 C 
ATOM     10  C   UNL     1      34.349 -15.229 -21.957  0.00  0.00    +0.181 C 
ATOM     11  C   UNL     1      34.633 -18.214 -24.856  0.00  0.00    +0.005 C 
ATOM     12  C   UNL     1      34.352 -16.889 -25.200  0.00  0.00    +0.030 C 
ATOM     13  C   UNL     1      33.909 -13.719 -23.584  0.00  0.00    +0.197 C 
ATOM     14  H   UNL     1      34.454 -14.754 -19.926  0.00  0.00    +0.144 HD
ATOM     15  H   UNL     1      34.731 -16.400 -20.270  0.00  0.00    +0.144 HD
ATOM     16  H   UNL     1      33.490 -12.162 -24.908  0.00  0.00    +0.156 HD
ATOM     17  H   UNL     1      33.559 -11.686 -23.272  0.00  0.00    +0.156 HD
ENDBRANCH   1   6
BRANCH   1  18
ATOM     18  C   UNL     1      35.997 -18.910 -21.019  0.00  0.00    +0.205 C 
BRANCH  18  20
ATOM     19  N   UNL     1      34.096 -22.056 -18.750  0.00  0.00    +0.390 N 
ATOM     20  C   UNL     1      35.400 -20.273 -20.677  0.00  0.00    +0.040 C 
ATOM     21  C   UNL     1      33.916 -20.151 -20.316  0.00  0.00    -0.019 C 
ATOM     22  C   UNL     1      36.160 -20.932 -19.521  0.00  0.00    -0.019 C 
ATOM     23  C   UNL     1      33.336 -21.496 -19.876  0.00  0.00    -0.077 C 
ATOM     24  C   UNL     1      35.507 -22.253 -19.107  0.00  0.00    -0.077 C 
ATOM     25  H   UNL     1      34.056 -21.388 -17.980  0.00  0.00    -0.079 HD
BRANCH  19  26
ATOM     26  C   UNL     1      33.499 -23.316 -18.307  0.00  0.00    -0.048 C 
BRANCH  26  28
ATOM     27  F   UNL     1      35.071 -23.636 -15.970  0.00  0.00    -0.205 F 
ATOM     28  C   UNL     1      32.935 -23.211 -16.915  0.00  0.00    -0.016 C 
ATOM     29  C   UNL     1      33.766 -23.380 -15.808  0.00  0.00    +0.134 C 
ATOM     30  C   UNL     1      31.578 -22.945 -16.735  0.00  0.00    -0.004 C 
ATOM     31  C   UNL     1      33.239 -23.283 -14.519  0.00  0.00    +0.029 C 
ATOM     32  C   UNL     1      31.051 -22.848 -15.447  0.00  0.00    -0.000 C 
ATOM     33  C   UNL     1      31.882 -23.017 -14.339  0.00  0.00    +0.002 C 
ENDBRANCH  26  28
ENDBRANCH  19  26
ENDBRANCH  18  20
ENDBRANCH   1  18
TORSDOF 5
ENDMDL
MODEL 9
REMARK VINA RESULT:     -11.6      4.053      6.902
REMARK  Name = 23729147
REMARK  5 active torsions:
REMARK  status: ('A' for Active; 'I' for Inactive)
REMARK    1  A    between atoms: O_1  and  C_6
REMARK    2  A    between atoms: O_1  and  C_18
REMARK    3  A    between atoms: C_18  and  C_20
REMARK    4  A    between atoms: N_19  and  C_26
REMARK    5  A    between atoms: C_26  and  C_28
REMARK                            x       y       z     vdW  Elec       q    Type
REMARK                         _______ _______ _______ _____ _____    ______ ____
ROOT
ATOM      1  O   UNL     1      34.467 -18.472 -21.591  0.00  0.00    -0.479 OA
ENDROOT
BRANCH   1   6
ATOM      2  N   UNL     1      35.030 -22.390 -18.796  0.00  0.00    -0.332 NA
ATOM      3  N   UNL     1      32.793 -21.729 -19.402  0.00  0.00    -0.317 NA
ATOM      4  N   UNL     1      32.400 -19.861 -20.743  0.00  0.00    -0.335 N 
ATOM      5  N   UNL     1      33.169 -23.609 -18.055  0.00  0.00    -0.283 N 
ATOM      6  C   UNL     1      35.235 -19.381 -20.904  0.00  0.00    +0.130 C 
ATOM      7  C   UNL     1      34.698 -20.458 -20.178  0.00  0.00    +0.177 C 
ATOM      8  C   UNL     1      36.612 -19.192 -20.952  0.00  0.00    +0.033 C 
ATOM      9  C   UNL     1      35.533 -21.356 -19.493  0.00  0.00    +0.137 C 
ATOM     10  C   UNL     1      33.330 -20.705 -20.091  0.00  0.00    +0.181 C 
ATOM     11  C   UNL     1      37.449 -20.073 -20.277  0.00  0.00    +0.005 C 
ATOM     12  C   UNL     1      36.907 -21.143 -19.558  0.00  0.00    +0.030 C 
ATOM     13  C   UNL     1      33.688 -22.521 -18.789  0.00  0.00    +0.197 C 
ATOM     14  H   UNL     1      31.436 -20.046 -20.674  0.00  0.00    +0.144 HD
ATOM     15  H   UNL     1      32.717 -19.090 -21.267  0.00  0.00    +0.144 HD
ATOM     16  H   UNL     1      33.778 -24.222 -17.584  0.00  0.00    +0.156 HD
ATOM     17  H   UNL     1      32.195 -23.755 -18.014  0.00  0.00    +0.156 HD
ENDBRANCH   1   6
BRANCH   1  18
ATOM     18  C   UNL     1      35.063 -17.223 -21.888  0.00  0.00    +0.205 C 
BRANCH  18  20
ATOM     19  N   UNL     1      32.816 -13.542 -22.143  0.00  0.00    +0.390 N 
ATOM     20  C   UNL     1      33.961 -16.238 -22.270  0.00  0.00    +0.040 C 
ATOM     21  C   UNL     1      34.526 -15.065 -23.079  0.00  0.00    -0.019 C 
ATOM     22  C   UNL     1      33.240 -15.710 -21.027  0.00  0.00    -0.019 C 
ATOM     23  C   UNL     1      33.446 -14.025 -23.380  0.00  0.00    -0.077 C 
ATOM     24  C   UNL     1      32.201 -14.647 -21.396  0.00  0.00    -0.077 C 
ATOM     25  H   UNL     1      33.544 -13.134 -21.558  0.00  0.00    -0.079 HD
BRANCH  19  26
ATOM     26  C   UNL     1      31.823 -12.512 -22.444  0.00  0.00    -0.048 C 
BRANCH  26  28
ATOM     27  F   UNL     1      32.275  -9.787 -23.083  0.00  0.00    -0.205 F 
ATOM     28  C   UNL     1      31.824 -11.414 -21.413  0.00  0.00    -0.016 C 
ATOM     29  C   UNL     1      32.054 -10.093 -21.798  0.00  0.00    +0.134 C 
ATOM     30  C   UNL     1      31.596 -11.721 -20.073  0.00  0.00    -0.004 C 
ATOM     31  C   UNL     1      32.057  -9.078 -20.839  0.00  0.00    +0.029 C 
ATOM     32  C   UNL     1      31.598 -10.707 -19.115  0.00  0.00    -0.000 C 
ATOM     33  C   UNL     1      31.829  -9.386 -19.498  0.00  0.00    +0.002 C 
ENDBRANCH  26  28
ENDBRANCH  19  26
ENDBRANCH  18  20
ENDBRANCH   1  18
TORSDOF 5
ENDMDL
