MODEL 1
REMARK VINA RESULT:      -8.9      0.000      0.000
REMARK  Name = 119182
REMARK  4 active torsions:
REMARK  status: ('A' for Active; 'I' for Inactive)
REMARK    1  A    between atoms: N_2  and  C_13
REMARK    2  A    between atoms: C_14  and  O_17
REMARK    3  A    between atoms: C_16  and  C_19
REMARK    4  A    between atoms: C_19  and  O_20
REMARK                            x       y       z     vdW  Elec       q    Type
REMARK                         _______ _______ _______ _____ _____    ______ ____
ROOT
ATOM      1 CL   UNL     1      31.040 -24.759 -13.750  0.00  0.00    +0.024 Cl
ATOM      2  N   UNL     1      35.772 -23.700 -15.056  0.00  0.00    -0.236 N 
ATOM      3  N   UNL     1      35.285 -22.791 -17.038  0.00  0.00    -0.240 NA
ATOM      4  N   UNL     1      33.533 -24.268 -14.302  0.00  0.00    -0.314 NA
ATOM      5  N   UNL     1      31.849 -23.630 -15.951  0.00  0.00    -0.314 NA
ATOM      6  C   UNL     1      34.410 -23.764 -15.183  0.00  0.00    +0.221 C 
ATOM      7  C   UNL     1      36.249 -23.106 -16.198  0.00  0.00    +0.224 C 
ATOM      8  C   UNL     1      34.130 -23.198 -16.416  0.00  0.00    +0.167 C 
ATOM      9  C   UNL     1      32.792 -23.140 -16.792  0.00  0.00    +0.212 C 
ATOM     10  C   UNL     1      32.272 -24.155 -14.775  0.00  0.00    +0.207 C 
ATOM     11  N   UNL     1      32.416 -22.582 -18.026  0.00  0.00    -0.331 N 
ATOM     12  H   UNL     1      31.465 -22.547 -18.280  0.00  0.00    +0.145 HD
ATOM     13  H   UNL     1      33.103 -22.227 -18.636  0.00  0.00    +0.145 HD
ENDROOT
BRANCH   2  16
ATOM     14  F   UNL     1      36.604 -26.307 -14.929  0.00  0.00    -0.230 F 
ATOM     15  O   UNL     1      37.943 -23.762 -14.085  0.00  0.00    -0.333 OA
ATOM     16  C   UNL     1      36.572 -24.166 -13.929  0.00  0.00    +0.231 C 
ATOM     17  C   UNL     1      37.897 -25.906 -13.034  0.00  0.00    +0.177 C 
ATOM     18  C   UNL     1      36.576 -25.674 -13.728  0.00  0.00    +0.236 C 
ATOM     19  C   UNL     1      38.800 -24.823 -13.615  0.00  0.00    +0.176 C 
BRANCH  17  20
ATOM     20  O   UNL     1      37.743 -25.722 -11.630  0.00  0.00    -0.379 OA
ATOM     21  H   UNL     1      36.953 -26.197 -11.326  0.00  0.00    +0.211 HD
ENDBRANCH  17  20
BRANCH  19  22
ATOM     22  C   UNL     1      39.627 -25.311 -14.796  0.00  0.00    +0.169 C 
BRANCH  22  23
ATOM     23  O   UNL     1      40.970 -24.902 -14.612  0.00  0.00    -0.379 OA
ATOM     24  H   UNL     1      41.416 -24.856 -15.472  0.00  0.00    +0.211 HD
ENDBRANCH  22  23
ENDBRANCH  19  22
ENDBRANCH   2  16
TORSDOF 4
ENDMDL
MODEL 2
REMARK VINA RESULT:      -8.7      2.153      3.247
REMARK  Name = 119182
REMARK  4 active torsions:
REMARK  status: ('A' for Active; 'I' for Inactive)
REMARK    1  A    between atoms: N_2  and  C_13
REMARK    2  A    between atoms: C_14  and  O_17
REMARK    3  A    between atoms: C_16  and  C_19
REMARK    4  A    between atoms: C_19  and  O_20
REMARK                            x       y       z     vdW  Elec       q    Type
REMARK                         _______ _______ _______ _____ _____    ______ ____
ROOT
ATOM      1 CL   UNL     1      33.534 -22.068 -19.514  0.00  0.00    +0.024 Cl
ATOM      2  N   UNL     1      34.724 -24.267 -15.159  0.00  0.00    -0.236 N 
ATOM      3  N   UNL     1      32.668 -24.218 -14.287  0.00  0.00    -0.240 NA
ATOM      4  N   UNL     1      34.285 -23.214 -17.304  0.00  0.00    -0.314 NA
ATOM      5  N   UNL     1      31.932 -22.607 -17.535  0.00  0.00    -0.314 NA
ATOM      6  C   UNL     1      33.922 -23.676 -16.099  0.00  0.00    +0.221 C 
ATOM      7  C   UNL     1      33.920 -24.575 -14.089  0.00  0.00    +0.224 C 
ATOM      8  C   UNL     1      32.655 -23.654 -15.539  0.00  0.00    +0.167 C 
ATOM      9  C   UNL     1      31.638 -23.094 -16.305  0.00  0.00    +0.212 C 
ATOM     10  C   UNL     1      33.218 -22.697 -17.952  0.00  0.00    +0.207 C 
ATOM     11  N   UNL     1      30.321 -23.031 -15.816  0.00  0.00    -0.331 N 
ATOM     12  H   UNL     1      29.611 -22.632 -16.369  0.00  0.00    +0.145 HD
ATOM     13  H   UNL     1      30.111 -23.385 -14.922  0.00  0.00    +0.145 HD
ENDROOT
BRANCH   2  16
ATOM     14  F   UNL     1      36.516 -22.766 -13.730  0.00  0.00    -0.230 F 
ATOM     15  O   UNL     1      36.516 -25.671 -14.470  0.00  0.00    -0.333 OA
ATOM     16  C   UNL     1      36.155 -24.527 -15.264  0.00  0.00    +0.231 C 
ATOM     17  C   UNL     1      38.310 -24.095 -14.396  0.00  0.00    +0.177 C 
ATOM     18  C   UNL     1      37.049 -23.381 -14.819  0.00  0.00    +0.236 C 
ATOM     19  C   UNL     1      37.800 -25.429 -13.859  0.00  0.00    +0.176 C 
BRANCH  17  20
ATOM     20  O   UNL     1      39.147 -24.305 -15.528  0.00  0.00    -0.379 OA
ATOM     21  H   UNL     1      38.599 -24.507 -16.303  0.00  0.00    +0.211 HD
ENDBRANCH  17  20
BRANCH  19  22
ATOM     22  C   UNL     1      37.603 -25.424 -12.349  0.00  0.00    +0.169 C 
BRANCH  22  23
ATOM     23  O   UNL     1      36.775 -26.516 -11.995  0.00  0.00    -0.379 OA
ATOM     24  H   UNL     1      37.322 -27.302 -11.843  0.00  0.00    +0.211 HD
ENDBRANCH  22  23
ENDBRANCH  19  22
ENDBRANCH   2  16
TORSDOF 4
ENDMDL
MODEL 3
REMARK VINA RESULT:      -8.4      1.844      2.024
REMARK  Name = 119182
REMARK  4 active torsions:
REMARK  status: ('A' for Active; 'I' for Inactive)
REMARK    1  A    between atoms: N_2  and  C_13
REMARK    2  A    between atoms: C_14  and  O_17
REMARK    3  A    between atoms: C_16  and  C_19
REMARK    4  A    between atoms: C_19  and  O_20
REMARK                            x       y       z     vdW  Elec       q    Type
REMARK                         _______ _______ _______ _____ _____    ______ ____
ROOT
ATOM      1 CL   UNL     1      30.413 -23.452 -16.066  0.00  0.00    +0.024 Cl
ATOM      2  N   UNL     1      35.288 -23.303 -14.867  0.00  0.00    -0.236 N 
ATOM      3  N   UNL     1      36.028 -22.763 -16.906  0.00  0.00    -0.240 NA
ATOM      4  N   UNL     1      32.901 -23.410 -15.312  0.00  0.00    -0.314 NA
ATOM      5  N   UNL     1      32.406 -22.911 -17.650  0.00  0.00    -0.314 NA
ATOM      6  C   UNL     1      34.180 -23.214 -15.667  0.00  0.00    +0.221 C 
ATOM      7  C   UNL     1      36.372 -23.021 -15.661  0.00  0.00    +0.224 C 
ATOM      8  C   UNL     1      34.660 -22.881 -16.923  0.00  0.00    +0.167 C 
ATOM      9  C   UNL     1      33.718 -22.729 -17.936  0.00  0.00    +0.212 C 
ATOM     10  C   UNL     1      32.084 -23.235 -16.374  0.00  0.00    +0.207 C 
ATOM     11  N   UNL     1      34.116 -22.390 -19.242  0.00  0.00    -0.331 N 
ATOM     12  H   UNL     1      33.440 -22.286 -19.949  0.00  0.00    +0.145 HD
ATOM     13  H   UNL     1      35.069 -22.259 -19.447  0.00  0.00    +0.145 HD
ENDROOT
BRANCH   2  16
ATOM     14  F   UNL     1      36.359 -25.675 -14.013  0.00  0.00    -0.230 F 
ATOM     15  O   UNL     1      36.401 -22.936 -12.798  0.00  0.00    -0.333 OA
ATOM     16  C   UNL     1      35.321 -23.629 -13.446  0.00  0.00    +0.231 C 
ATOM     17  C   UNL     1      36.146 -25.077 -11.771  0.00  0.00    +0.177 C 
ATOM     18  C   UNL     1      35.494 -25.107 -13.132  0.00  0.00    +0.236 C 
ATOM     19  C   UNL     1      36.988 -23.805 -11.808  0.00  0.00    +0.176 C 
BRANCH  17  20
ATOM     20  O   UNL     1      35.148 -24.981 -10.761  0.00  0.00    -0.379 OA
ATOM     21  H   UNL     1      35.560 -25.084  -9.888  0.00  0.00    +0.211 HD
ENDBRANCH  17  20
BRANCH  19  22
ATOM     22  C   UNL     1      38.433 -24.062 -12.212  0.00  0.00    +0.169 C 
BRANCH  22  23
ATOM     23  O   UNL     1      39.258 -23.087 -11.599  0.00  0.00    -0.379 OA
ATOM     24  H   UNL     1      38.975 -22.954 -10.682  0.00  0.00    +0.211 HD
ENDBRANCH  22  23
ENDBRANCH  19  22
ENDBRANCH   2  16
TORSDOF 4
ENDMDL
MODEL 4
REMARK VINA RESULT:      -8.3      4.056      6.022
REMARK  Name = 119182
REMARK  4 active torsions:
REMARK  status: ('A' for Active; 'I' for Inactive)
REMARK    1  A    between atoms: N_2  and  C_13
REMARK    2  A    between atoms: C_14  and  O_17
REMARK    3  A    between atoms: C_16  and  C_19
REMARK    4  A    between atoms: C_19  and  O_20
REMARK                            x       y       z     vdW  Elec       q    Type
REMARK                         _______ _______ _______ _____ _____    ______ ____
ROOT
ATOM      1 CL   UNL     1      37.207 -23.850 -11.785  0.00  0.00    +0.024 Cl
ATOM      2  N   UNL     1      33.641 -23.787 -15.321  0.00  0.00    -0.236 N 
ATOM      3  N   UNL     1      34.945 -23.040 -16.975  0.00  0.00    -0.240 NA
ATOM      4  N   UNL     1      35.268 -23.864 -13.518  0.00  0.00    -0.314 NA
ATOM      5  N   UNL     1      37.471 -23.133 -14.273  0.00  0.00    -0.314 NA
ATOM      6  C   UNL     1      34.889 -23.626 -14.783  0.00  0.00    +0.221 C 
ATOM      7  C   UNL     1      33.729 -23.422 -16.642  0.00  0.00    +0.224 C 
ATOM      8  C   UNL     1      35.680 -23.162 -15.822  0.00  0.00    +0.167 C 
ATOM      9  C   UNL     1      37.018 -22.914 -15.532  0.00  0.00    +0.212 C 
ATOM     10  C   UNL     1      36.581 -23.588 -13.359  0.00  0.00    +0.207 C 
ATOM     11  N   UNL     1      37.893 -22.442 -16.526  0.00  0.00    -0.331 N 
ATOM     12  H   UNL     1      38.837 -22.271 -16.307  0.00  0.00    +0.145 HD
ATOM     13  H   UNL     1      37.561 -22.284 -17.439  0.00  0.00    +0.145 HD
ENDROOT
BRANCH   2  16
ATOM     14  F   UNL     1      32.015 -22.022 -14.000  0.00  0.00    -0.230 F 
ATOM     15  O   UNL     1      31.383 -24.490 -15.579  0.00  0.00    -0.333 OA
ATOM     16  C   UNL     1      32.443 -24.258 -14.635  0.00  0.00    +0.231 C 
ATOM     17  C   UNL     1      30.428 -23.667 -13.550  0.00  0.00    +0.177 C 
ATOM     18  C   UNL     1      31.894 -23.309 -13.581  0.00  0.00    +0.236 C 
ATOM     19  C   UNL     1      30.132 -24.080 -14.989  0.00  0.00    +0.176 C 
BRANCH  17  20
ATOM     20  O   UNL     1      30.219 -24.765 -12.668  0.00  0.00    -0.379 OA
ATOM     21  H   UNL     1      30.051 -24.433 -11.772  0.00  0.00    +0.211 HD
ENDBRANCH  17  20
BRANCH  19  22
ATOM     22  C   UNL     1      29.573 -22.940 -15.829  0.00  0.00    +0.169 C 
BRANCH  22  23
ATOM     23  O   UNL     1      30.460 -22.690 -16.905  0.00  0.00    -0.379 OA
ATOM     24  H   UNL     1      29.954 -22.415 -17.685  0.00  0.00    +0.211 HD
ENDBRANCH  22  23
ENDBRANCH  19  22
ENDBRANCH   2  16
TORSDOF 4
ENDMDL
MODEL 5
REMARK VINA RESULT:      -8.1      6.401      8.404
REMARK  Name = 119182
REMARK  4 active torsions:
REMARK  status: ('A' for Active; 'I' for Inactive)
REMARK    1  A    between atoms: N_2  and  C_13
REMARK    2  A    between atoms: C_14  and  O_17
REMARK    3  A    between atoms: C_16  and  C_19
REMARK    4  A    between atoms: C_19  and  O_20
REMARK                            x       y       z     vdW  Elec       q    Type
REMARK                         _______ _______ _______ _____ _____    ______ ____
ROOT
ATOM      1 CL   UNL     1      37.854 -22.173 -16.733  0.00  0.00    +0.024 Cl
ATOM      2  N   UNL     1      34.566 -20.678 -20.222  0.00  0.00    -0.236 N 
ATOM      3  N   UNL     1      32.829 -21.848 -19.443  0.00  0.00    -0.240 NA
ATOM      4  N   UNL     1      36.256 -21.321 -18.599  0.00  0.00    -0.314 NA
ATOM      5  N   UNL     1      35.355 -22.868 -16.939  0.00  0.00    -0.314 NA
ATOM      6  C   UNL     1      35.020 -21.350 -19.119  0.00  0.00    +0.221 C 
ATOM      7  C   UNL     1      33.243 -21.012 -20.373  0.00  0.00    +0.224 C 
ATOM      8  C   UNL     1      33.930 -22.068 -18.653  0.00  0.00    +0.167 C 
ATOM      9  C   UNL     1      34.130 -22.849 -17.519  0.00  0.00    +0.212 C 
ATOM     10  C   UNL     1      36.327 -22.114 -17.507  0.00  0.00    +0.207 C 
ATOM     11  N   UNL     1      33.080 -23.611 -16.977  0.00  0.00    -0.331 N 
ATOM     12  H   UNL     1      33.234 -24.159 -16.174  0.00  0.00    +0.145 HD
ATOM     13  H   UNL     1      32.191 -23.595 -17.400  0.00  0.00    +0.145 HD
ENDROOT
BRANCH   2  16
ATOM     14  F   UNL     1      33.328 -19.291 -22.234  0.00  0.00    -0.230 F 
ATOM     15  O   UNL     1      35.575 -18.532 -20.402  0.00  0.00    -0.333 OA
ATOM     16  C   UNL     1      35.331 -19.778 -21.078  0.00  0.00    +0.231 C 
ATOM     17  C   UNL     1      35.260 -18.088 -22.728  0.00  0.00    +0.177 C 
ATOM     18  C   UNL     1      34.668 -19.438 -22.404  0.00  0.00    +0.236 C 
ATOM     19  C   UNL     1      35.476 -17.455 -21.356  0.00  0.00    +0.176 C 
BRANCH  17  20
ATOM     20  O   UNL     1      36.506 -18.256 -23.396  0.00  0.00    -0.379 OA
ATOM     21  H   UNL     1      37.088 -17.508 -23.189  0.00  0.00    +0.211 HD
ENDBRANCH  17  20
BRANCH  19  22
ATOM     22  C   UNL     1      34.320 -16.560 -20.929  0.00  0.00    +0.169 C 
BRANCH  22  23
ATOM     23  O   UNL     1      34.845 -15.435 -20.246  0.00  0.00    -0.379 OA
ATOM     24  H   UNL     1      35.746 -15.629 -19.947  0.00  0.00    +0.211 HD
ENDBRANCH  22  23
ENDBRANCH  19  22
ENDBRANCH   2  16
TORSDOF 4
ENDMDL
MODEL 6
REMARK VINA RESULT:      -8.1      2.447      3.042
REMARK  Name = 119182
REMARK  4 active torsions:
REMARK  status: ('A' for Active; 'I' for Inactive)
REMARK    1  A    between atoms: N_2  and  C_13
REMARK    2  A    between atoms: C_14  and  O_17
REMARK    3  A    between atoms: C_16  and  C_19
REMARK    4  A    between atoms: C_19  and  O_20
REMARK                            x       y       z     vdW  Elec       q    Type
REMARK                         _______ _______ _______ _____ _____    ______ ____
ROOT
ATOM      1 CL   UNL     1      36.852 -21.509 -19.126  0.00  0.00    +0.024 Cl
ATOM      2  N   UNL     1      35.583 -23.390 -14.646  0.00  0.00    -0.236 N 
ATOM      3  N   UNL     1      33.441 -23.789 -15.143  0.00  0.00    -0.240 NA
ATOM      4  N   UNL     1      36.329 -22.460 -16.764  0.00  0.00    -0.314 NA
ATOM      5  N   UNL     1      34.512 -22.381 -18.392  0.00  0.00    -0.314 NA
ATOM      6  C   UNL     1      35.408 -22.989 -15.944  0.00  0.00    +0.221 C 
ATOM      7  C   UNL     1      34.370 -23.864 -14.212  0.00  0.00    +0.224 C 
ATOM      8  C   UNL     1      34.077 -23.243 -16.231  0.00  0.00    +0.167 C 
ATOM      9  C   UNL     1      33.636 -22.919 -17.509  0.00  0.00    +0.212 C 
ATOM     10  C   UNL     1      35.786 -22.189 -17.971  0.00  0.00    +0.207 C 
ATOM     11  N   UNL     1      32.300 -23.143 -17.888  0.00  0.00    -0.331 N 
ATOM     12  H   UNL     1      32.001 -22.909 -18.796  0.00  0.00    +0.145 HD
ATOM     13  H   UNL     1      31.666 -23.533 -17.244  0.00  0.00    +0.145 HD
ENDROOT
BRANCH   2  16
ATOM     14  F   UNL     1      36.050 -25.211 -12.653  0.00  0.00    -0.230 F 
ATOM     15  O   UNL     1      37.905 -23.903 -14.612  0.00  0.00    -0.333 OA
ATOM     16  C   UNL     1      36.815 -23.333 -13.868  0.00  0.00    +0.231 C 
ATOM     17  C   UNL     1      38.211 -24.416 -12.299  0.00  0.00    +0.177 C 
ATOM     18  C   UNL     1      36.763 -24.060 -12.533  0.00  0.00    +0.236 C 
ATOM     19  C   UNL     1      38.756 -24.637 -13.707  0.00  0.00    +0.176 C 
BRANCH  17  20
ATOM     20  O   UNL     1      38.881 -23.325 -11.676  0.00  0.00    -0.379 OA
ATOM     21  H   UNL     1      38.742 -22.519 -12.199  0.00  0.00    +0.211 HD
ENDBRANCH  17  20
BRANCH  19  22
ATOM     22  C   UNL     1      38.730 -26.100 -14.129  0.00  0.00    +0.169 C 
BRANCH  22  23
ATOM     23  O   UNL     1      38.231 -26.184 -15.451  0.00  0.00    -0.379 OA
ATOM     24  H   UNL     1      38.656 -25.510 -16.002  0.00  0.00    +0.211 HD
ENDBRANCH  22  23
ENDBRANCH  19  22
ENDBRANCH   2  16
TORSDOF 4
ENDMDL
MODEL 7
REMARK VINA RESULT:      -7.9     10.147     11.793
REMARK  Name = 119182
REMARK  4 active torsions:
REMARK  status: ('A' for Active; 'I' for Inactive)
REMARK    1  A    between atoms: N_2  and  C_13
REMARK    2  A    between atoms: C_14  and  O_17
REMARK    3  A    between atoms: C_16  and  C_19
REMARK    4  A    between atoms: C_19  and  O_20
REMARK                            x       y       z     vdW  Elec       q    Type
REMARK                         _______ _______ _______ _____ _____    ______ ____
ROOT
ATOM      1 CL   UNL     1      33.369 -14.849 -26.322  0.00  0.00    +0.024 Cl
ATOM      2  N   UNL     1      34.314 -15.806 -21.483  0.00  0.00    -0.236 N 
ATOM      3  N   UNL     1      33.063 -14.151 -20.655  0.00  0.00    -0.240 NA
ATOM      4  N   UNL     1      33.942 -15.452 -23.858  0.00  0.00    -0.314 NA
ATOM      5  N   UNL     1      32.456 -13.557 -24.255  0.00  0.00    -0.314 NA
ATOM      6  C   UNL     1      33.769 -15.160 -22.561  0.00  0.00    +0.221 C 
ATOM      7  C   UNL     1      33.857 -15.160 -20.361  0.00  0.00    +0.224 C 
ATOM      8  C   UNL     1      33.000 -14.140 -22.026  0.00  0.00    +0.167 C 
ATOM      9  C   UNL     1      32.327 -13.321 -22.927  0.00  0.00    +0.212 C 
ATOM     10  C   UNL     1      33.243 -14.593 -24.633  0.00  0.00    +0.207 C 
ATOM     11  N   UNL     1      31.523 -12.260 -22.473  0.00  0.00    -0.331 N 
ATOM     12  H   UNL     1      31.053 -11.688 -23.122  0.00  0.00    +0.145 HD
ATOM     13  H   UNL     1      31.432 -12.090 -21.508  0.00  0.00    +0.145 HD
ENDROOT
BRANCH   2  16
ATOM     14  F   UNL     1      33.299 -18.348 -21.356  0.00  0.00    -0.230 F 
ATOM     15  O   UNL     1      35.640 -17.226 -22.855  0.00  0.00    -0.333 OA
ATOM     16  C   UNL     1      35.206 -16.960 -21.510  0.00  0.00    +0.231 C 
ATOM     17  C   UNL     1      35.393 -19.307 -21.708  0.00  0.00    +0.177 C 
ATOM     18  C   UNL     1      34.601 -18.249 -20.978  0.00  0.00    +0.236 C 
ATOM     19  C   UNL     1      35.705 -18.654 -23.052  0.00  0.00    +0.176 C 
BRANCH  17  20
ATOM     20  O   UNL     1      36.597 -19.582 -21.000  0.00  0.00    -0.379 OA
ATOM     21  H   UNL     1      37.229 -20.018 -21.593  0.00  0.00    +0.211 HD
ENDBRANCH  17  20
BRANCH  19  22
ATOM     22  C   UNL     1      34.702 -19.021 -24.136  0.00  0.00    +0.169 C 
BRANCH  22  23
ATOM     23  O   UNL     1      34.672 -17.982 -25.099  0.00  0.00    -0.379 OA
ATOM     24  H   UNL     1      33.958 -18.148 -25.732  0.00  0.00    +0.211 HD
ENDBRANCH  22  23
ENDBRANCH  19  22
ENDBRANCH   2  16
TORSDOF 4
ENDMDL
MODEL 8
REMARK VINA RESULT:      -7.8      2.132      2.897
REMARK  Name = 119182
REMARK  4 active torsions:
REMARK  status: ('A' for Active; 'I' for Inactive)
REMARK    1  A    between atoms: N_2  and  C_13
REMARK    2  A    between atoms: C_14  and  O_17
REMARK    3  A    between atoms: C_16  and  C_19
REMARK    4  A    between atoms: C_19  and  O_20
REMARK                            x       y       z     vdW  Elec       q    Type
REMARK                         _______ _______ _______ _____ _____    ______ ____
ROOT
ATOM      1 CL   UNL     1      34.619 -22.398 -18.949  0.00  0.00    +0.024 Cl
ATOM      2  N   UNL     1      33.715 -23.843 -14.225  0.00  0.00    -0.236 N 
ATOM      3  N   UNL     1      31.487 -23.714 -14.349  0.00  0.00    -0.240 NA
ATOM      4  N   UNL     1      34.292 -23.156 -16.483  0.00  0.00    -0.314 NA
ATOM      5  N   UNL     1      32.298 -22.661 -17.802  0.00  0.00    -0.314 NA
ATOM      6  C   UNL     1      33.424 -23.431 -15.499  0.00  0.00    +0.221 C 
ATOM      7  C   UNL     1      32.515 -24.000 -13.576  0.00  0.00    +0.224 C 
ATOM      8  C   UNL     1      32.042 -23.357 -15.554  0.00  0.00    +0.167 C 
ATOM      9  C   UNL     1      31.481 -22.955 -16.761  0.00  0.00    +0.212 C 
ATOM     10  C   UNL     1      33.633 -22.779 -17.602  0.00  0.00    +0.207 C 
ATOM     11  N   UNL     1      30.086 -22.852 -16.908  0.00  0.00    -0.331 N 
ATOM     12  H   UNL     1      29.702 -22.566 -17.768  0.00  0.00    +0.145 HD
ATOM     13  H   UNL     1      29.495 -23.066 -16.150  0.00  0.00    +0.145 HD
ENDROOT
BRANCH   2  16
ATOM     14  F   UNL     1      35.471 -25.547 -15.457  0.00  0.00    -0.230 F 
ATOM     15  O   UNL     1      35.917 -22.982 -13.972  0.00  0.00    -0.333 OA
ATOM     16  C   UNL     1      35.038 -24.076 -13.659  0.00  0.00    +0.231 C 
ATOM     17  C   UNL     1      37.187 -25.005 -13.978  0.00  0.00    +0.177 C 
ATOM     18  C   UNL     1      35.725 -25.345 -14.138  0.00  0.00    +0.236 C 
ATOM     19  C   UNL     1      37.234 -23.503 -14.245  0.00  0.00    +0.176 C 
BRANCH  17  20
ATOM     20  O   UNL     1      37.604 -25.284 -12.646  0.00  0.00    -0.379 OA
ATOM     21  H   UNL     1      37.927 -26.198 -12.593  0.00  0.00    +0.211 HD
ENDBRANCH  17  20
BRANCH  19  22
ATOM     22  C   UNL     1      37.577 -23.168 -15.690  0.00  0.00    +0.169 C 
BRANCH  22  23
ATOM     23  O   UNL     1      38.902 -23.595 -15.953  0.00  0.00    -0.379 OA
ATOM     24  H   UNL     1      38.930 -24.563 -15.986  0.00  0.00    +0.211 HD
ENDBRANCH  22  23
ENDBRANCH  19  22
ENDBRANCH   2  16
TORSDOF 4
ENDMDL
MODEL 9
REMARK VINA RESULT:      -7.8      4.484      6.360
REMARK  Name = 119182
REMARK  4 active torsions:
REMARK  status: ('A' for Active; 'I' for Inactive)
REMARK    1  A    between atoms: N_2  and  C_13
REMARK    2  A    between atoms: C_14  and  O_17
REMARK    3  A    between atoms: C_16  and  C_19
REMARK    4  A    between atoms: C_19  and  O_20
REMARK                            x       y       z     vdW  Elec       q    Type
REMARK                         _______ _______ _______ _____ _____    ______ ____
ROOT
ATOM      1 CL   UNL     1      33.817 -22.414 -19.415  0.00  0.00    +0.024 Cl
ATOM      2  N   UNL     1      32.981 -24.210 -14.801  0.00  0.00    -0.236 N 
ATOM      3  N   UNL     1      34.992 -23.704 -13.970  0.00  0.00    -0.240 NA
ATOM      4  N   UNL     1      33.253 -23.382 -17.069  0.00  0.00    -0.314 NA
ATOM      5  N   UNL     1      35.473 -22.424 -17.407  0.00  0.00    -0.314 NA
ATOM      6  C   UNL     1      33.679 -23.618 -15.819  0.00  0.00    +0.221 C 
ATOM      7  C   UNL     1      33.816 -24.237 -13.711  0.00  0.00    +0.224 C 
ATOM      8  C   UNL     1      34.920 -23.313 -15.284  0.00  0.00    +0.167 C 
ATOM      9  C   UNL     1      35.834 -22.693 -16.130  0.00  0.00    +0.212 C 
ATOM     10  C   UNL     1      34.223 -22.779 -17.792  0.00  0.00    +0.207 C 
ATOM     11  N   UNL     1      37.118 -22.348 -15.671  0.00  0.00    -0.331 N 
ATOM     12  H   UNL     1      37.755 -21.909 -16.280  0.00  0.00    +0.145 HD
ATOM     13  H   UNL     1      37.378 -22.545 -14.742  0.00  0.00    +0.145 HD
ENDROOT
BRANCH   2  16
ATOM     14  F   UNL     1      30.945 -22.830 -13.594  0.00  0.00    -0.230 F 
ATOM     15  O   UNL     1      31.020 -24.428 -16.129  0.00  0.00    -0.333 OA
ATOM     16  C   UNL     1      31.614 -24.717 -14.852  0.00  0.00    +0.231 C 
ATOM     17  C   UNL     1      29.328 -24.273 -14.451  0.00  0.00    +0.177 C 
ATOM     18  C   UNL     1      30.681 -24.149 -13.793  0.00  0.00    +0.236 C 
ATOM     19  C   UNL     1      29.633 -24.082 -15.934  0.00  0.00    +0.176 C 
BRANCH  17  20
ATOM     20  O   UNL     1      28.797 -25.573 -14.219  0.00  0.00    -0.379 OA
ATOM     21  H   UNL     1      28.350 -25.591 -13.357  0.00  0.00    +0.211 HD
ENDBRANCH  17  20
BRANCH  19  22
ATOM     22  C   UNL     1      29.442 -22.644 -16.398  0.00  0.00    +0.169 C 
BRANCH  22  23
ATOM     23  O   UNL     1      30.560 -22.267 -17.182  0.00  0.00    -0.379 OA
ATOM     24  H   UNL     1      30.298 -21.575 -17.807  0.00  0.00    +0.211 HD
ENDBRANCH  22  23
ENDBRANCH  19  22
ENDBRANCH   2  16
TORSDOF 4
ENDMDL
