MODEL 1
REMARK VINA RESULT:      -9.8      0.000      0.000
REMARK  Name = 6102761
REMARK  5 active torsions:
REMARK  status: ('A' for Active; 'I' for Inactive)
REMARK    1  A    between atoms: C_9  and  C_21
REMARK    2  A    between atoms: C_12  and  C_13
REMARK    3  A    between atoms: C_18  and  C_20
REMARK    4  A    between atoms: C_21  and  C_26
REMARK    5  A    between atoms: C_21  and  O_27
REMARK                            x       y       z     vdW  Elec       q    Type
REMARK                         _______ _______ _______ _____ _____    ______ ____
ROOT
ATOM      1  O   UNL     1      37.241 -22.366 -12.816  0.00  0.00    -0.272 OA
ATOM      2  O   UNL     1      33.605 -23.769 -18.822  0.00  0.00    -0.270 OA
ATOM      3  N   UNL     1      36.457 -23.386 -14.755  0.00  0.00    -0.276 N 
ATOM      4  N   UNL     1      34.838 -22.871 -17.045  0.00  0.00    -0.274 N 
ATOM      5  C   UNL     1      36.877 -22.347 -15.711  0.00  0.00    +0.095 C 
ATOM      6  C   UNL     1      34.412 -23.905 -16.090  0.00  0.00    +0.096 C 
ATOM      7  C   UNL     1      35.606 -24.453 -15.299  0.00  0.00    +0.113 C 
ATOM      8  C   UNL     1      35.681 -21.799 -16.495  0.00  0.00    +0.113 C 
ATOM      9  C   UNL     1      37.000 -23.386 -13.467  0.00  0.00    +0.258 C 
ATOM     10  C   UNL     1      37.978 -22.865 -16.640  0.00  0.00    +0.023 C 
ATOM     11  C   UNL     1      33.307 -23.385 -15.167  0.00  0.00    +0.023 C 
ATOM     12  C   UNL     1      34.311 -22.884 -18.341  0.00  0.00    +0.249 C 
ENDROOT
BRANCH  12  13
ATOM     13  C   UNL     1      34.620 -21.754 -19.223  0.00  0.00    +0.054 C 
ATOM     14  C   UNL     1      33.586 -20.993 -19.763  0.00  0.00    +0.005 C 
ATOM     15  C   UNL     1      35.946 -21.447 -19.517  0.00  0.00    +0.005 C 
ATOM     16  C   UNL     1      33.880 -19.918 -20.601  0.00  0.00    +0.010 C 
ATOM     17  C   UNL     1      36.241 -20.372 -20.355  0.00  0.00    +0.010 C 
ATOM     18  C   UNL     1      35.207 -19.607 -20.898  0.00  0.00    +0.068 C 
BRANCH  18  20
ATOM     19  N   UNL     1      35.755 -17.610 -22.455  0.00  0.00    -0.191 NA
ATOM     20  C   UNL     1      35.510 -18.506 -21.756  0.00  0.00    +0.100 C 
ENDBRANCH  18  20
ENDBRANCH  12  13
BRANCH   9  21
ATOM     21  C   UNL     1      37.297 -24.734 -12.858  0.00  0.00    +0.245 C 
ATOM     22  C   UNL     1      37.586 -24.551 -11.378  0.00  0.00    +0.048 C 
BRANCH  21  26
ATOM     23  F   UNL     1      39.235 -26.078 -12.723  0.00  0.00    -0.167 F 
ATOM     24  F   UNL     1      37.988 -26.306 -14.496  0.00  0.00    -0.167 F 
ATOM     25  F   UNL     1      39.208 -24.516 -14.242  0.00  0.00    -0.167 F 
ATOM     26  C   UNL     1      38.437 -25.413 -13.588  0.00  0.00    +0.427 C 
ENDBRANCH  21  26
BRANCH  21  27
ATOM     27  O   UNL     1      36.112 -25.501 -12.999  0.00  0.00    -0.372 OA
ATOM     28  H   UNL     1      35.709 -25.317 -13.862  0.00  0.00    +0.211 HD
ENDBRANCH  21  27
ENDBRANCH   9  21
TORSDOF 5
ENDMDL
MODEL 2
REMARK VINA RESULT:      -8.5      3.969      5.395
REMARK  Name = 6102761
REMARK  5 active torsions:
REMARK  status: ('A' for Active; 'I' for Inactive)
REMARK    1  A    between atoms: C_9  and  C_21
REMARK    2  A    between atoms: C_12  and  C_13
REMARK    3  A    between atoms: C_18  and  C_20
REMARK    4  A    between atoms: C_21  and  C_26
REMARK    5  A    between atoms: C_21  and  O_27
REMARK                            x       y       z     vdW  Elec       q    Type
REMARK                         _______ _______ _______ _____ _____    ______ ____
ROOT
ATOM      1  O   UNL     1      37.505 -22.492 -15.343  0.00  0.00    -0.272 OA
ATOM      2  O   UNL     1      31.474 -25.534 -12.968  0.00  0.00    -0.270 OA
ATOM      3  N   UNL     1      35.869 -24.051 -14.787  0.00  0.00    -0.276 N 
ATOM      4  N   UNL     1      33.149 -24.223 -13.949  0.00  0.00    -0.274 N 
ATOM      5  C   UNL     1      34.809 -23.558 -15.684  0.00  0.00    +0.095 C 
ATOM      6  C   UNL     1      34.204 -24.712 -13.048  0.00  0.00    +0.096 C 
ATOM      7  C   UNL     1      35.467 -25.090 -13.830  0.00  0.00    +0.113 C 
ATOM      8  C   UNL     1      33.552 -23.176 -14.899  0.00  0.00    +0.113 C 
ATOM      9  C   UNL     1      37.187 -23.632 -14.994  0.00  0.00    +0.258 C 
ATOM     10  C   UNL     1      34.505 -24.573 -16.789  0.00  0.00    +0.023 C 
ATOM     11  C   UNL     1      34.502 -23.696 -11.942  0.00  0.00    +0.023 C 
ATOM     12  C   UNL     1      31.834 -24.660 -13.755  0.00  0.00    +0.249 C 
ENDROOT
BRANCH  12  13
ATOM     13  C   UNL     1      30.775 -24.037 -14.556  0.00  0.00    +0.054 C 
ATOM     14  C   UNL     1      30.151 -24.765 -15.567  0.00  0.00    +0.005 C 
ATOM     15  C   UNL     1      30.399 -22.720 -14.304  0.00  0.00    +0.005 C 
ATOM     16  C   UNL     1      29.145 -24.172 -16.328  0.00  0.00    +0.010 C 
ATOM     17  C   UNL     1      29.393 -22.127 -15.066  0.00  0.00    +0.010 C 
ATOM     18  C   UNL     1      28.765 -22.854 -16.079  0.00  0.00    +0.068 C 
BRANCH  18  20
ATOM     19  N   UNL     1      26.894 -21.751 -17.492  0.00  0.00    -0.191 NA
ATOM     20  C   UNL     1      27.734 -22.246 -16.858  0.00  0.00    +0.100 C 
ENDBRANCH  18  20
ENDBRANCH  12  13
BRANCH   9  21
ATOM     21  C   UNL     1      38.267 -24.659 -14.763  0.00  0.00    +0.245 C 
ATOM     22  C   UNL     1      37.780 -26.006 -15.269  0.00  0.00    +0.048 C 
BRANCH  21  26
ATOM     23  F   UNL     1      40.004 -24.623 -13.162  0.00  0.00    -0.167 F 
ATOM     24  F   UNL     1      38.120 -23.677 -12.607  0.00  0.00    -0.167 F 
ATOM     25  F   UNL     1      38.261 -25.852 -12.715  0.00  0.00    -0.167 F 
ATOM     26  C   UNL     1      38.662 -24.702 -13.301  0.00  0.00    +0.427 C 
ENDBRANCH  21  26
BRANCH  21  27
ATOM     27  O   UNL     1      39.376 -24.250 -15.548  0.00  0.00    -0.372 OA
ATOM     28  H   UNL     1      39.117 -24.218 -16.481  0.00  0.00    +0.211 HD
ENDBRANCH  21  27
ENDBRANCH   9  21
TORSDOF 5
ENDMDL
MODEL 3
REMARK VINA RESULT:      -7.8      7.335     11.389
REMARK  Name = 6102761
REMARK  5 active torsions:
REMARK  status: ('A' for Active; 'I' for Inactive)
REMARK    1  A    between atoms: C_9  and  C_21
REMARK    2  A    between atoms: C_12  and  C_13
REMARK    3  A    between atoms: C_18  and  C_20
REMARK    4  A    between atoms: C_21  and  C_26
REMARK    5  A    between atoms: C_21  and  O_27
REMARK                            x       y       z     vdW  Elec       q    Type
REMARK                         _______ _______ _______ _____ _____    ______ ____
ROOT
ATOM      1  O   UNL     1      33.743 -12.932 -20.688  0.00  0.00    -0.272 OA
ATOM      2  O   UNL     1      34.300 -19.431 -23.641  0.00  0.00    -0.270 OA
ATOM      3  N   UNL     1      33.312 -14.865 -21.911  0.00  0.00    -0.276 N 
ATOM      4  N   UNL     1      34.261 -17.529 -22.276  0.00  0.00    -0.274 N 
ATOM      5  C   UNL     1      33.254 -15.808 -20.780  0.00  0.00    +0.095 C 
ATOM      6  C   UNL     1      34.325 -16.589 -23.406  0.00  0.00    +0.096 C 
ATOM      7  C   UNL     1      33.292 -15.467 -23.250  0.00  0.00    +0.113 C 
ATOM      8  C   UNL     1      34.292 -16.923 -20.936  0.00  0.00    +0.113 C 
ATOM      9  C   UNL     1      33.225 -13.492 -21.658  0.00  0.00    +0.258 C 
ATOM     10  C   UNL     1      31.841 -16.366 -20.598  0.00  0.00    +0.023 C 
ATOM     11  C   UNL     1      35.741 -16.037 -23.587  0.00  0.00    +0.023 C 
ATOM     12  C   UNL     1      34.325 -18.903 -22.531  0.00  0.00    +0.249 C 
ENDROOT
BRANCH  12  13
ATOM     13  C   UNL     1      34.426 -19.813 -21.385  0.00  0.00    +0.054 C 
ATOM     14  C   UNL     1      35.678 -20.214 -20.927  0.00  0.00    +0.005 C 
ATOM     15  C   UNL     1      33.269 -20.272 -20.760  0.00  0.00    +0.005 C 
ATOM     16  C   UNL     1      35.774 -21.079 -19.837  0.00  0.00    +0.010 C 
ATOM     17  C   UNL     1      33.364 -21.137 -19.671  0.00  0.00    +0.010 C 
ATOM     18  C   UNL     1      34.618 -21.541 -19.209  0.00  0.00    +0.068 C 
BRANCH  18  20
ATOM     19  N   UNL     1      34.792 -23.147 -17.183  0.00  0.00    -0.191 NA
ATOM     20  C   UNL     1      34.714 -22.427 -18.092  0.00  0.00    +0.100 C 
ENDBRANCH  18  20
ENDBRANCH  12  13
BRANCH   9  21
ATOM     21  C   UNL     1      32.448 -12.669 -22.654  0.00  0.00    +0.245 C 
ATOM     22  C   UNL     1      33.413 -12.099 -23.680  0.00  0.00    +0.048 C 
BRANCH  21  26
ATOM     23  F   UNL     1      32.398 -10.476 -21.776  0.00  0.00    -0.167 F 
ATOM     24  F   UNL     1      30.556 -11.236 -22.658  0.00  0.00    -0.167 F 
ATOM     25  F   UNL     1      31.238 -11.996 -20.730  0.00  0.00    -0.167 F 
ATOM     26  C   UNL     1      31.651 -11.589 -21.951  0.00  0.00    +0.427 C 
ENDBRANCH  21  26
BRANCH  21  27
ATOM     27  O   UNL     1      31.565 -13.568 -23.307  0.00  0.00    -0.372 OA
ATOM     28  H   UNL     1      32.034 -14.393 -23.505  0.00  0.00    +0.211 HD
ENDBRANCH  21  27
ENDBRANCH   9  21
TORSDOF 5
ENDMDL
MODEL 4
REMARK VINA RESULT:      -7.7      3.894      5.621
REMARK  Name = 6102761
REMARK  5 active torsions:
REMARK  status: ('A' for Active; 'I' for Inactive)
REMARK    1  A    between atoms: C_9  and  C_21
REMARK    2  A    between atoms: C_12  and  C_13
REMARK    3  A    between atoms: C_18  and  C_20
REMARK    4  A    between atoms: C_21  and  C_26
REMARK    5  A    between atoms: C_21  and  O_27
REMARK                            x       y       z     vdW  Elec       q    Type
REMARK                         _______ _______ _______ _____ _____    ______ ____
ROOT
ATOM      1  O   UNL     1      36.315 -22.082 -15.428  0.00  0.00    -0.272 OA
ATOM      2  O   UNL     1      30.188 -25.386 -13.752  0.00  0.00    -0.270 OA
ATOM      3  N   UNL     1      34.677 -23.703 -15.111  0.00  0.00    -0.276 N 
ATOM      4  N   UNL     1      31.904 -23.981 -14.505  0.00  0.00    -0.274 N 
ATOM      5  C   UNL     1      33.679 -23.166 -16.053  0.00  0.00    +0.095 C 
ATOM      6  C   UNL     1      32.897 -24.514 -13.559  0.00  0.00    +0.096 C 
ATOM      7  C   UNL     1      34.225 -24.815 -14.264  0.00  0.00    +0.113 C 
ATOM      8  C   UNL     1      32.356 -22.862 -15.345  0.00  0.00    +0.113 C 
ATOM      9  C   UNL     1      35.997 -23.249 -15.185  0.00  0.00    +0.258 C 
ATOM     10  C   UNL     1      33.483 -24.105 -17.246  0.00  0.00    +0.023 C 
ATOM     11  C   UNL     1      33.086 -23.575 -12.366  0.00  0.00    +0.023 C 
ATOM     12  C   UNL     1      30.588 -24.452 -14.446  0.00  0.00    +0.249 C 
ENDROOT
BRANCH  12  13
ATOM     13  C   UNL     1      29.581 -23.791 -15.282  0.00  0.00    +0.054 C 
ATOM     14  C   UNL     1      29.051 -22.564 -14.890  0.00  0.00    +0.005 C 
ATOM     15  C   UNL     1      29.159 -24.393 -16.465  0.00  0.00    +0.005 C 
ATOM     16  C   UNL     1      28.093 -21.936 -15.685  0.00  0.00    +0.010 C 
ATOM     17  C   UNL     1      28.202 -23.765 -17.261  0.00  0.00    +0.010 C 
ATOM     18  C   UNL     1      27.668 -22.535 -16.871  0.00  0.00    +0.068 C 
BRANCH  18  20
ATOM     19  N   UNL     1      25.889 -21.369 -18.350  0.00  0.00    -0.191 NA
ATOM     20  C   UNL     1      26.688 -21.892 -17.687  0.00  0.00    +0.100 C 
ENDBRANCH  18  20
ENDBRANCH  12  13
BRANCH   9  21
ATOM     21  C   UNL     1      37.079 -24.271 -14.941  0.00  0.00    +0.245 C 
ATOM     22  C   UNL     1      36.576 -25.633 -15.389  0.00  0.00    +0.048 C 
BRANCH  21  26
ATOM     23  F   UNL     1      38.833 -24.487 -13.374  0.00  0.00    -0.167 F 
ATOM     24  F   UNL     1      37.240 -23.080 -12.895  0.00  0.00    -0.167 F 
ATOM     25  F   UNL     1      36.871 -25.228 -12.783  0.00  0.00    -0.167 F 
ATOM     26  C   UNL     1      37.505 -24.264 -13.488  0.00  0.00    +0.427 C 
ENDBRANCH  21  26
BRANCH  21  27
ATOM     27  O   UNL     1      38.171 -23.895 -15.764  0.00  0.00    -0.372 OA
ATOM     28  H   UNL     1      38.335 -24.589 -16.421  0.00  0.00    +0.211 HD
ENDBRANCH  21  27
ENDBRANCH   9  21
TORSDOF 5
ENDMDL
MODEL 5
REMARK VINA RESULT:      -7.7      7.949     11.852
REMARK  Name = 6102761
REMARK  5 active torsions:
REMARK  status: ('A' for Active; 'I' for Inactive)
REMARK    1  A    between atoms: C_9  and  C_21
REMARK    2  A    between atoms: C_12  and  C_13
REMARK    3  A    between atoms: C_18  and  C_20
REMARK    4  A    between atoms: C_21  and  C_26
REMARK    5  A    between atoms: C_21  and  O_27
REMARK                            x       y       z     vdW  Elec       q    Type
REMARK                         _______ _______ _______ _____ _____    ______ ____
ROOT
ATOM      1  O   UNL     1      32.982 -17.162 -21.354  0.00  0.00    -0.272 OA
ATOM      2  O   UNL     1      34.454 -11.531 -25.525  0.00  0.00    -0.270 OA
ATOM      3  N   UNL     1      34.103 -15.571 -22.629  0.00  0.00    -0.276 N 
ATOM      4  N   UNL     1      33.696 -13.062 -23.923  0.00  0.00    -0.274 N 
ATOM      5  C   UNL     1      33.768 -14.389 -21.814  0.00  0.00    +0.095 C 
ATOM      6  C   UNL     1      34.025 -14.240 -24.740  0.00  0.00    +0.096 C 
ATOM      7  C   UNL     1      34.764 -15.298 -23.913  0.00  0.00    +0.113 C 
ATOM      8  C   UNL     1      33.026 -13.337 -22.643  0.00  0.00    +0.113 C 
ATOM      9  C   UNL     1      33.924 -16.846 -22.085  0.00  0.00    +0.258 C 
ATOM     10  C   UNL     1      35.016 -13.810 -21.143  0.00  0.00    +0.023 C 
ATOM     11  C   UNL     1      32.776 -14.813 -25.413  0.00  0.00    +0.023 C 
ATOM     12  C   UNL     1      33.896 -11.785 -24.459  0.00  0.00    +0.249 C 
ENDROOT
BRANCH  12  13
ATOM     13  C   UNL     1      33.410 -10.632 -23.694  0.00  0.00    +0.054 C 
ATOM     14  C   UNL     1      34.096  -9.421 -23.754  0.00  0.00    +0.005 C 
ATOM     15  C   UNL     1      32.266 -10.754 -22.910  0.00  0.00    +0.005 C 
ATOM     16  C   UNL     1      33.633  -8.325 -23.027  0.00  0.00    +0.010 C 
ATOM     17  C   UNL     1      31.803  -9.658 -22.182  0.00  0.00    +0.010 C 
ATOM     18  C   UNL     1      32.487  -8.442 -22.241  0.00  0.00    +0.068 C 
BRANCH  18  20
ATOM     19  N   UNL     1      31.626  -6.407 -20.888  0.00  0.00    -0.191 NA
ATOM     20  C   UNL     1      32.012  -7.320 -21.495  0.00  0.00    +0.100 C 
ENDBRANCH  18  20
ENDBRANCH  12  13
BRANCH   9  21
ATOM     21  C   UNL     1      34.962 -17.883 -22.437  0.00  0.00    +0.245 C 
ATOM     22  C   UNL     1      34.284 -19.025 -23.175  0.00  0.00    +0.048 C 
BRANCH  21  26
ATOM     23  F   UNL     1      35.073 -19.423 -20.649  0.00  0.00    -0.167 F 
ATOM     24  F   UNL     1      36.964 -18.715 -21.470  0.00  0.00    -0.167 F 
ATOM     25  F   UNL     1      35.736 -17.385 -20.253  0.00  0.00    -0.167 F 
ATOM     26  C   UNL     1      35.692 -18.353 -21.196  0.00  0.00    +0.427 C 
ENDBRANCH  21  26
BRANCH  21  27
ATOM     27  O   UNL     1      35.874 -17.247 -23.318  0.00  0.00    -0.372 OA
ATOM     28  H   UNL     1      36.252 -16.467 -22.884  0.00  0.00    +0.211 HD
ENDBRANCH  21  27
ENDBRANCH   9  21
TORSDOF 5
ENDMDL
MODEL 6
REMARK VINA RESULT:      -7.5     11.238     15.402
REMARK  Name = 6102761
REMARK  5 active torsions:
REMARK  status: ('A' for Active; 'I' for Inactive)
REMARK    1  A    between atoms: C_9  and  C_21
REMARK    2  A    between atoms: C_12  and  C_13
REMARK    3  A    between atoms: C_18  and  C_20
REMARK    4  A    between atoms: C_21  and  C_26
REMARK    5  A    between atoms: C_21  and  O_27
REMARK                            x       y       z     vdW  Elec       q    Type
REMARK                         _______ _______ _______ _____ _____    ______ ____
ROOT
ATOM      1  O   UNL     1      32.948  -8.009 -20.889  0.00  0.00    -0.272 OA
ATOM      2  O   UNL     1      33.521 -13.283 -25.697  0.00  0.00    -0.270 OA
ATOM      3  N   UNL     1      32.511  -9.488 -22.631  0.00  0.00    -0.276 N 
ATOM      4  N   UNL     1      33.493 -11.888 -23.816  0.00  0.00    -0.274 N 
ATOM      5  C   UNL     1      32.507 -10.732 -21.840  0.00  0.00    +0.095 C 
ATOM      6  C   UNL     1      33.504 -10.648 -24.606  0.00  0.00    +0.096 C 
ATOM      7  C   UNL     1      32.457  -9.655 -24.090  0.00  0.00    +0.113 C 
ATOM      8  C   UNL     1      33.558 -11.719 -22.357  0.00  0.00    +0.113 C 
ATOM      9  C   UNL     1      32.409  -8.261 -21.969  0.00  0.00    +0.258 C 
ATOM     10  C   UNL     1      31.110 -11.357 -21.801  0.00  0.00    +0.023 C 
ATOM     11  C   UNL     1      34.903 -10.030 -24.648  0.00  0.00    +0.023 C 
ATOM     12  C   UNL     1      33.573 -13.118 -24.480  0.00  0.00    +0.249 C 
ENDROOT
BRANCH  12  13
ATOM     13  C   UNL     1      33.727 -14.330 -23.669  0.00  0.00    +0.054 C 
ATOM     14  C   UNL     1      32.899 -14.537 -22.568  0.00  0.00    +0.005 C 
ATOM     15  C   UNL     1      34.701 -15.268 -24.003  0.00  0.00    +0.005 C 
ATOM     16  C   UNL     1      33.046 -15.690 -21.797  0.00  0.00    +0.010 C 
ATOM     17  C   UNL     1      34.847 -16.421 -23.232  0.00  0.00    +0.010 C 
ATOM     18  C   UNL     1      34.019 -16.632 -22.128  0.00  0.00    +0.068 C 
BRANCH  18  20
ATOM     19  N   UNL     1      34.294 -18.775 -20.697  0.00  0.00    -0.191 NA
ATOM     20  C   UNL     1      34.170 -17.813 -21.339  0.00  0.00    +0.100 C 
ENDBRANCH  18  20
ENDBRANCH  12  13
BRANCH   9  21
ATOM     21  C   UNL     1      31.584  -7.194 -22.646  0.00  0.00    +0.245 C 
ATOM     22  C   UNL     1      30.434  -7.858 -23.384  0.00  0.00    +0.048 C 
BRANCH  21  26
ATOM     23  F   UNL     1      32.325  -5.039 -23.268  0.00  0.00    -0.167 F 
ATOM     24  F   UNL     1      33.754  -6.673 -23.455  0.00  0.00    -0.167 F 
ATOM     25  F   UNL     1      32.092  -6.510 -24.858  0.00  0.00    -0.167 F 
ATOM     26  C   UNL     1      32.447  -6.352 -23.564  0.00  0.00    +0.427 C 
ENDBRANCH  21  26
BRANCH  21  27
ATOM     27  O   UNL     1      31.055  -6.385 -21.609  0.00  0.00    -0.372 OA
ATOM     28  H   UNL     1      30.647  -6.950 -20.934  0.00  0.00    +0.211 HD
ENDBRANCH  21  27
ENDBRANCH   9  21
TORSDOF 5
ENDMDL
