MODEL 1
REMARK VINA RESULT:      -6.5      0.000      0.000
REMARK  Name = 6323374
REMARK  6 active torsions:
REMARK  status: ('A' for Active; 'I' for Inactive)
REMARK    1  A    between atoms: C_1  and  C_4
REMARK    2  A    between atoms: C_1  and  C_9
REMARK    3  A    between atoms: C_1  and  C_12
REMARK    4  A    between atoms: N_3  and  O_6
REMARK    5  A    between atoms: C_9  and  O_10
REMARK    6  A    between atoms: C_12  and  C_13
REMARK                            x       y       z     vdW  Elec       q    Type
REMARK                         _______ _______ _______ _____ _____    ______ ____
ROOT
ATOM      1  C   UNL     1      37.713 -24.817 -13.821  0.00  0.00    +0.177 C 
ENDROOT
BRANCH   1   4
ATOM      2  O   UNL     1      38.426 -27.008 -14.578  0.00  0.00    -0.272 OA
ATOM      3  N   UNL     1      39.600 -25.151 -15.288  0.00  0.00    -0.197 N 
ATOM      4  C   UNL     1      38.609 -25.793 -14.584  0.00  0.00    +0.255 C 
ATOM      5  H   UNL     1      39.708 -24.173 -15.263  0.00  0.00    +0.182 HD
BRANCH   3   6
ATOM      6  O   UNL     1      40.446 -25.975 -16.043  0.00  0.00    -0.295 OA
ATOM      7  H   UNL     1      40.230 -25.883 -16.984  0.00  0.00    +0.241 HD
ENDBRANCH   3   6
ENDBRANCH   1   4
BRANCH   1   9
ATOM      8  O   UNL     1      37.946 -24.628 -11.403  0.00  0.00    -0.250 OA
ATOM      9  C   UNL     1      37.537 -25.252 -12.374  0.00  0.00    +0.322 C 
BRANCH   9  10
ATOM     10  O   UNL     1      36.864 -26.427 -12.265  0.00  0.00    -0.480 OA
ATOM     11  H   UNL     1      36.616 -26.748 -11.420  0.00  0.00    +0.295 HD
ENDBRANCH   9  10
ENDBRANCH   1   9
BRANCH   1  12
ATOM     12  C   UNL     1      36.323 -24.710 -14.478  0.00  0.00    +0.020 C 
BRANCH  12  13
ATOM     13  C   UNL     1      35.928 -23.288 -14.928  0.00  0.00    +0.001 C 
ATOM     14  C   UNL     1      34.550 -23.324 -15.597  0.00  0.00    +0.000 C 
ATOM     15  C   UNL     1      36.949 -22.674 -15.888  0.00  0.00    +0.000 C 
ENDBRANCH  12  13
ENDBRANCH   1  12
TORSDOF 6
ENDMDL
MODEL 2
REMARK VINA RESULT:      -6.3      3.110      4.258
REMARK  Name = 6323374
REMARK  6 active torsions:
REMARK  status: ('A' for Active; 'I' for Inactive)
REMARK    1  A    between atoms: C_1  and  C_4
REMARK    2  A    between atoms: C_1  and  C_9
REMARK    3  A    between atoms: C_1  and  C_12
REMARK    4  A    between atoms: N_3  and  O_6
REMARK    5  A    between atoms: C_9  and  O_10
REMARK    6  A    between atoms: C_12  and  C_13
REMARK                            x       y       z     vdW  Elec       q    Type
REMARK                         _______ _______ _______ _____ _____    ______ ____
ROOT
ATOM      1  C   UNL     1      37.147 -24.424 -12.406  0.00  0.00    +0.177 C 
ENDROOT
BRANCH   1   4
ATOM      2  O   UNL     1      35.206 -24.923 -11.042  0.00  0.00    -0.272 OA
ATOM      3  N   UNL     1      34.941 -23.581 -12.902  0.00  0.00    -0.197 N 
ATOM      4  C   UNL     1      35.667 -24.359 -12.031  0.00  0.00    +0.255 C 
ATOM      5  H   UNL     1      35.354 -23.148 -13.683  0.00  0.00    +0.182 HD
BRANCH   3   6
ATOM      6  O   UNL     1      33.577 -23.444 -12.608  0.00  0.00    -0.295 OA
ATOM      7  H   UNL     1      33.399 -22.535 -12.321  0.00  0.00    +0.241 HD
ENDBRANCH   3   6
ENDBRANCH   1   4
BRANCH   1   9
ATOM      8  O   UNL     1      39.158 -23.233 -11.718  0.00  0.00    -0.250 OA
ATOM      9  C   UNL     1      37.937 -23.322 -11.717  0.00  0.00    +0.322 C 
BRANCH   9  10
ATOM     10  O   UNL     1      37.133 -22.426 -11.088  0.00  0.00    -0.480 OA
ATOM     11  H   UNL     1      36.232 -22.350 -11.336  0.00  0.00    +0.295 HD
ENDBRANCH   9  10
ENDBRANCH   1   9
BRANCH   1  12
ATOM     12  C   UNL     1      37.341 -24.293 -13.929  0.00  0.00    +0.020 C 
BRANCH  12  13
ATOM     13  C   UNL     1      38.014 -25.506 -14.605  0.00  0.00    +0.001 C 
ATOM     14  C   UNL     1      37.259 -26.786 -14.235  0.00  0.00    +0.000 C 
ATOM     15  C   UNL     1      39.487 -25.648 -14.216  0.00  0.00    +0.000 C 
ENDBRANCH  12  13
ENDBRANCH   1  12
TORSDOF 6
ENDMDL
MODEL 3
REMARK VINA RESULT:      -6.3      2.596      3.477
REMARK  Name = 6323374
REMARK  6 active torsions:
REMARK  status: ('A' for Active; 'I' for Inactive)
REMARK    1  A    between atoms: C_1  and  C_4
REMARK    2  A    between atoms: C_1  and  C_9
REMARK    3  A    between atoms: C_1  and  C_12
REMARK    4  A    between atoms: N_3  and  O_6
REMARK    5  A    between atoms: C_9  and  O_10
REMARK    6  A    between atoms: C_12  and  C_13
REMARK                            x       y       z     vdW  Elec       q    Type
REMARK                         _______ _______ _______ _____ _____    ______ ____
ROOT
ATOM      1  C   UNL     1      38.773 -25.136 -14.149  0.00  0.00    +0.177 C 
ENDROOT
BRANCH   1   4
ATOM      2  O   UNL     1      36.820 -24.639 -15.497  0.00  0.00    -0.272 OA
ATOM      3  N   UNL     1      37.605 -26.810 -15.436  0.00  0.00    -0.197 N 
ATOM      4  C   UNL     1      37.618 -25.480 -15.088  0.00  0.00    +0.255 C 
ATOM      5  H   UNL     1      38.265 -27.447 -15.084  0.00  0.00    +0.182 HD
BRANCH   3   6
ATOM      6  O   UNL     1      36.592 -27.200 -16.323  0.00  0.00    -0.295 OA
ATOM      7  H   UNL     1      36.795 -26.867 -17.212  0.00  0.00    +0.241 HD
ENDBRANCH   3   6
ENDBRANCH   1   4
BRANCH   1   9
ATOM      8  O   UNL     1      40.870 -26.346 -13.877  0.00  0.00    -0.250 OA
ATOM      9  C   UNL     1      40.069 -25.784 -14.612  0.00  0.00    +0.322 C 
BRANCH   9  10
ATOM     10  O   UNL     1      40.249 -25.678 -15.955  0.00  0.00    -0.480 OA
ATOM     11  H   UNL     1      40.802 -25.006 -16.301  0.00  0.00    +0.295 HD
ENDBRANCH   9  10
ENDBRANCH   1   9
BRANCH   1  12
ATOM     12  C   UNL     1      38.475 -25.599 -12.710  0.00  0.00    +0.020 C 
BRANCH  12  13
ATOM     13  C   UNL     1      37.665 -24.596 -11.861  0.00  0.00    +0.001 C 
ATOM     14  C   UNL     1      36.174 -24.939 -11.944  0.00  0.00    +0.000 C 
ATOM     15  C   UNL     1      37.884 -23.148 -12.300  0.00  0.00    +0.000 C 
ENDBRANCH  12  13
ENDBRANCH   1  12
TORSDOF 6
ENDMDL
MODEL 4
REMARK VINA RESULT:      -6.1      7.442      9.034
REMARK  Name = 6323374
REMARK  6 active torsions:
REMARK  status: ('A' for Active; 'I' for Inactive)
REMARK    1  A    between atoms: C_1  and  C_4
REMARK    2  A    between atoms: C_1  and  C_9
REMARK    3  A    between atoms: C_1  and  C_12
REMARK    4  A    between atoms: N_3  and  O_6
REMARK    5  A    between atoms: C_9  and  O_10
REMARK    6  A    between atoms: C_12  and  C_13
REMARK                            x       y       z     vdW  Elec       q    Type
REMARK                         _______ _______ _______ _____ _____    ______ ____
ROOT
ATOM      1  C   UNL     1      29.649 -24.019 -15.880  0.00  0.00    +0.177 C 
ENDROOT
BRANCH   1   4
ATOM      2  O   UNL     1      27.772 -24.252 -17.398  0.00  0.00    -0.272 OA
ATOM      3  N   UNL     1      27.708 -22.588 -15.798  0.00  0.00    -0.197 N 
ATOM      4  C   UNL     1      28.286 -23.644 -16.461  0.00  0.00    +0.255 C 
ATOM      5  H   UNL     1      28.158 -22.131 -15.052  0.00  0.00    +0.182 HD
BRANCH   3   6
ATOM      6  O   UNL     1      26.438 -22.204 -16.251  0.00  0.00    -0.295 OA
ATOM      7  H   UNL     1      26.169 -21.387 -15.802  0.00  0.00    +0.241 HD
ENDBRANCH   3   6
ENDBRANCH   1   4
BRANCH   1   9
ATOM      8  O   UNL     1      30.462 -26.021 -14.755  0.00  0.00    -0.250 OA
ATOM      9  C   UNL     1      29.545 -25.242 -14.982  0.00  0.00    +0.322 C 
BRANCH   9  10
ATOM     10  O   UNL     1      28.307 -25.383 -14.443  0.00  0.00    -0.480 OA
ATOM     11  H   UNL     1      27.867 -26.210 -14.489  0.00  0.00    +0.295 HD
ENDBRANCH   9  10
ENDBRANCH   1   9
BRANCH   1  12
ATOM     12  C   UNL     1      30.244 -22.855 -15.065  0.00  0.00    +0.020 C 
BRANCH  12  13
ATOM     13  C   UNL     1      31.776 -22.703 -15.174  0.00  0.00    +0.001 C 
ATOM     14  C   UNL     1      32.258 -23.284 -16.507  0.00  0.00    +0.000 C 
ATOM     15  C   UNL     1      32.514 -23.384 -14.020  0.00  0.00    +0.000 C 
ENDBRANCH  12  13
ENDBRANCH   1  12
TORSDOF 6
ENDMDL
MODEL 5
REMARK VINA RESULT:      -6.1     10.031     11.667
REMARK  Name = 6323374
REMARK  6 active torsions:
REMARK  status: ('A' for Active; 'I' for Inactive)
REMARK    1  A    between atoms: C_1  and  C_4
REMARK    2  A    between atoms: C_1  and  C_9
REMARK    3  A    between atoms: C_1  and  C_12
REMARK    4  A    between atoms: N_3  and  O_6
REMARK    5  A    between atoms: C_9  and  O_10
REMARK    6  A    between atoms: C_12  and  C_13
REMARK                            x       y       z     vdW  Elec       q    Type
REMARK                         _______ _______ _______ _____ _____    ______ ____
ROOT
ATOM      1  C   UNL     1      35.237 -17.864 -22.143  0.00  0.00    +0.177 C 
ENDROOT
BRANCH   1   4
ATOM      2  O   UNL     1      35.247 -16.456 -20.168  0.00  0.00    -0.272 OA
ATOM      3  N   UNL     1      33.452 -16.328 -21.615  0.00  0.00    -0.197 N 
ATOM      4  C   UNL     1      34.662 -16.820 -21.186  0.00  0.00    +0.255 C 
ATOM      5  H   UNL     1      33.020 -16.651 -22.438  0.00  0.00    +0.182 HD
BRANCH   3   6
ATOM      6  O   UNL     1      32.872 -15.341 -20.806  0.00  0.00    -0.295 OA
ATOM      7  H   UNL     1      33.241 -14.475 -21.039  0.00  0.00    +0.241 HD
ENDBRANCH   3   6
ENDBRANCH   1   4
BRANCH   1   9
ATOM      8  O   UNL     1      34.792 -18.034 -24.533  0.00  0.00    -0.250 OA
ATOM      9  C   UNL     1      35.190 -17.373 -23.582  0.00  0.00    +0.322 C 
BRANCH   9  10
ATOM     10  O   UNL     1      35.641 -16.098 -23.708  0.00  0.00    -0.480 OA
ATOM     11  H   UNL     1      35.490 -15.624 -24.503  0.00  0.00    +0.295 HD
ENDBRANCH   9  10
ENDBRANCH   1   9
BRANCH   1  12
ATOM     12  C   UNL     1      34.463 -19.192 -22.048  0.00  0.00    +0.020 C 
BRANCH  12  13
ATOM     13  C   UNL     1      34.280 -19.735 -20.614  0.00  0.00    +0.001 C 
ATOM     14  C   UNL     1      35.389 -20.745 -20.302  0.00  0.00    +0.000 C 
ATOM     15  C   UNL     1      32.914 -20.391 -20.408  0.00  0.00    +0.000 C 
ENDBRANCH  12  13
ENDBRANCH   1  12
TORSDOF 6
ENDMDL
MODEL 6
REMARK VINA RESULT:      -6.1      1.896      3.396
REMARK  Name = 6323374
REMARK  6 active torsions:
REMARK  status: ('A' for Active; 'I' for Inactive)
REMARK    1  A    between atoms: C_1  and  C_4
REMARK    2  A    between atoms: C_1  and  C_9
REMARK    3  A    between atoms: C_1  and  C_12
REMARK    4  A    between atoms: N_3  and  O_6
REMARK    5  A    between atoms: C_9  and  O_10
REMARK    6  A    between atoms: C_12  and  C_13
REMARK                            x       y       z     vdW  Elec       q    Type
REMARK                         _______ _______ _______ _____ _____    ______ ____
ROOT
ATOM      1  C   UNL     1      37.092 -25.189 -13.988  0.00  0.00    +0.177 C 
ENDROOT
BRANCH   1   4
ATOM      2  O   UNL     1      37.317 -26.410 -11.905  0.00  0.00    -0.272 OA
ATOM      3  N   UNL     1      35.622 -24.854 -12.103  0.00  0.00    -0.197 N 
ATOM      4  C   UNL     1      36.702 -25.572 -12.560  0.00  0.00    +0.255 C 
ATOM      5  H   UNL     1      35.160 -24.193 -12.666  0.00  0.00    +0.182 HD
BRANCH   3   6
ATOM      6  O   UNL     1      35.221 -25.124 -10.788  0.00  0.00    -0.295 OA
ATOM      7  H   UNL     1      35.320 -26.072 -10.608  0.00  0.00    +0.241 HD
ENDBRANCH   3   6
ENDBRANCH   1   4
BRANCH   1   9
ATOM      8  O   UNL     1      39.479 -24.781 -14.258  0.00  0.00    -0.250 OA
ATOM      9  C   UNL     1      38.537 -25.564 -14.280  0.00  0.00    +0.322 C 
BRANCH   9  10
ATOM     10  O   UNL     1      38.681 -26.883 -14.571  0.00  0.00    -0.480 OA
ATOM     11  H   UNL     1      39.533 -27.234 -14.744  0.00  0.00    +0.295 HD
ENDBRANCH   9  10
ENDBRANCH   1   9
BRANCH   1  12
ATOM     12  C   UNL     1      36.914 -23.677 -14.225  0.00  0.00    +0.020 C 
BRANCH  12  13
ATOM     13  C   UNL     1      36.455 -23.294 -15.648  0.00  0.00    +0.001 C 
ATOM     14  C   UNL     1      37.281 -22.106 -16.153  0.00  0.00    +0.000 C 
ATOM     15  C   UNL     1      34.967 -22.948 -15.708  0.00  0.00    +0.000 C 
ENDBRANCH  12  13
ENDBRANCH   1  12
TORSDOF 6
ENDMDL
MODEL 7
REMARK VINA RESULT:      -6.1     10.457     11.780
REMARK  Name = 6323374
REMARK  6 active torsions:
REMARK  status: ('A' for Active; 'I' for Inactive)
REMARK    1  A    between atoms: C_1  and  C_4
REMARK    2  A    between atoms: C_1  and  C_9
REMARK    3  A    between atoms: C_1  and  C_12
REMARK    4  A    between atoms: N_3  and  O_6
REMARK    5  A    between atoms: C_9  and  O_10
REMARK    6  A    between atoms: C_12  and  C_13
REMARK                            x       y       z     vdW  Elec       q    Type
REMARK                         _______ _______ _______ _____ _____    ______ ____
ROOT
ATOM      1  C   UNL     1      34.485 -17.241 -22.051  0.00  0.00    +0.177 C 
ENDROOT
BRANCH   1   4
ATOM      2  O   UNL     1      35.287 -15.540 -23.582  0.00  0.00    -0.272 OA
ATOM      3  N   UNL     1      34.558 -17.555 -24.443  0.00  0.00    -0.197 N 
ATOM      4  C   UNL     1      34.816 -16.665 -23.427  0.00  0.00    +0.255 C 
ATOM      5  H   UNL     1      34.179 -18.447 -24.271  0.00  0.00    +0.182 HD
BRANCH   3   6
ATOM      6  O   UNL     1      34.866 -17.113 -25.736  0.00  0.00    -0.295 OA
ATOM      7  H   UNL     1      35.545 -17.689 -26.121  0.00  0.00    +0.241 HD
ENDBRANCH   3   6
ENDBRANCH   1   4
BRANCH   1   9
ATOM      8  O   UNL     1      35.033 -16.012 -20.020  0.00  0.00    -0.250 OA
ATOM      9  C   UNL     1      34.333 -16.136 -21.016  0.00  0.00    +0.322 C 
BRANCH   9  10
ATOM     10  O   UNL     1      33.322 -15.281 -21.318  0.00  0.00    -0.480 OA
ATOM     11  H   UNL     1      32.782 -15.439 -22.068  0.00  0.00    +0.295 HD
ENDBRANCH   9  10
ENDBRANCH   1   9
BRANCH   1  12
ATOM     12  C   UNL     1      35.581 -18.214 -21.578  0.00  0.00    +0.020 C 
BRANCH  12  13
ATOM     13  C   UNL     1      35.112 -19.671 -21.376  0.00  0.00    +0.001 C 
ATOM     14  C   UNL     1      33.649 -19.683 -20.924  0.00  0.00    +0.000 C 
ATOM     15  C   UNL     1      35.970 -20.425 -20.359  0.00  0.00    +0.000 C 
ENDBRANCH  12  13
ENDBRANCH   1  12
TORSDOF 6
ENDMDL
MODEL 8
REMARK VINA RESULT:      -6.0      1.617      3.189
REMARK  Name = 6323374
REMARK  6 active torsions:
REMARK  status: ('A' for Active; 'I' for Inactive)
REMARK    1  A    between atoms: C_1  and  C_4
REMARK    2  A    between atoms: C_1  and  C_9
REMARK    3  A    between atoms: C_1  and  C_12
REMARK    4  A    between atoms: N_3  and  O_6
REMARK    5  A    between atoms: C_9  and  O_10
REMARK    6  A    between atoms: C_12  and  C_13
REMARK                            x       y       z     vdW  Elec       q    Type
REMARK                         _______ _______ _______ _____ _____    ______ ____
ROOT
ATOM      1  C   UNL     1      36.343 -25.798 -14.216  0.00  0.00    +0.177 C 
ENDROOT
BRANCH   1   4
ATOM      2  O   UNL     1      37.015 -26.373 -11.958  0.00  0.00    -0.272 OA
ATOM      3  N   UNL     1      37.667 -24.335 -12.826  0.00  0.00    -0.197 N 
ATOM      4  C   UNL     1      37.027 -25.551 -12.871  0.00  0.00    +0.255 C 
ATOM      5  H   UNL     1      37.649 -23.708 -13.583  0.00  0.00    +0.182 HD
BRANCH   3   6
ATOM      6  O   UNL     1      38.347 -24.047 -11.635  0.00  0.00    -0.295 OA
ATOM      7  H   UNL     1      38.895 -23.256 -11.759  0.00  0.00    +0.241 HD
ENDBRANCH   3   6
ENDBRANCH   1   4
BRANCH   1   9
ATOM      8  O   UNL     1      36.764 -27.269 -16.112  0.00  0.00    -0.250 OA
ATOM      9  C   UNL     1      37.164 -26.742 -15.082  0.00  0.00    +0.322 C 
BRANCH   9  10
ATOM     10  O   UNL     1      38.413 -26.943 -14.588  0.00  0.00    -0.480 OA
ATOM     11  H   UNL     1      39.051 -26.257 -14.634  0.00  0.00    +0.295 HD
ENDBRANCH   9  10
ENDBRANCH   1   9
BRANCH   1  12
ATOM     12  C   UNL     1      36.133 -24.479 -14.983  0.00  0.00    +0.020 C 
BRANCH  12  13
ATOM     13  C   UNL     1      34.674 -24.194 -15.396  0.00  0.00    +0.001 C 
ATOM     14  C   UNL     1      34.640 -23.039 -16.402  0.00  0.00    +0.000 C 
ATOM     15  C   UNL     1      33.783 -23.860 -14.199  0.00  0.00    +0.000 C 
ENDBRANCH  12  13
ENDBRANCH   1  12
TORSDOF 6
ENDMDL
MODEL 9
REMARK VINA RESULT:      -6.0     12.388     13.793
REMARK  Name = 6323374
REMARK  6 active torsions:
REMARK  status: ('A' for Active; 'I' for Inactive)
REMARK    1  A    between atoms: C_1  and  C_4
REMARK    2  A    between atoms: C_1  and  C_9
REMARK    3  A    between atoms: C_1  and  C_12
REMARK    4  A    between atoms: N_3  and  O_6
REMARK    5  A    between atoms: C_9  and  O_10
REMARK    6  A    between atoms: C_12  and  C_13
REMARK                            x       y       z     vdW  Elec       q    Type
REMARK                         _______ _______ _______ _____ _____    ______ ____
ROOT
ATOM      1  C   UNL     1      34.071 -16.324 -23.628  0.00  0.00    +0.177 C 
ENDROOT
BRANCH   1   4
ATOM      2  O   UNL     1      34.862 -16.882 -25.851  0.00  0.00    -0.272 OA
ATOM      3  N   UNL     1      33.417 -15.099 -25.602  0.00  0.00    -0.197 N 
ATOM      4  C   UNL     1      34.182 -16.144 -25.142  0.00  0.00    +0.255 C 
ATOM      5  H   UNL     1      32.887 -14.534 -24.995  0.00  0.00    +0.182 HD
BRANCH   3   6
ATOM      6  O   UNL     1      33.439 -14.888 -26.987  0.00  0.00    -0.295 OA
ATOM      7  H   UNL     1      32.977 -15.616 -27.432  0.00  0.00    +0.241 HD
ENDBRANCH   3   6
ENDBRANCH   1   4
BRANCH   1   9
ATOM      8  O   UNL     1      32.652 -14.749 -22.427  0.00  0.00    -0.250 OA
ATOM      9  C   UNL     1      33.731 -15.009 -22.943  0.00  0.00    +0.322 C 
BRANCH   9  10
ATOM     10  O   UNL     1      34.770 -14.134 -22.959  0.00  0.00    -0.480 OA
ATOM     11  H   UNL     1      35.139 -13.859 -23.776  0.00  0.00    +0.295 HD
ENDBRANCH   9  10
ENDBRANCH   1   9
BRANCH   1  12
ATOM     12  C   UNL     1      35.386 -16.866 -23.036  0.00  0.00    +0.020 C 
BRANCH  12  13
ATOM     13  C   UNL     1      35.274 -18.253 -22.369  0.00  0.00    +0.001 C 
ATOM     14  C   UNL     1      34.895 -19.300 -23.421  0.00  0.00    +0.000 C 
ATOM     15  C   UNL     1      34.253 -18.274 -21.231  0.00  0.00    +0.000 C 
ENDBRANCH  12  13
ENDBRANCH   1  12
TORSDOF 6
ENDMDL
