MODEL 1
REMARK VINA RESULT:     -10.6      0.000      0.000
REMARK  Name = 25031915
REMARK  8 active torsions:
REMARK  status: ('A' for Active; 'I' for Inactive)
REMARK    1  A    between atoms: C_2  and  O_13
REMARK    2  A    between atoms: C_3  and  O_11
REMARK    3  A    between atoms: C_8  and  O_22
REMARK    4  A    between atoms: O_13  and  C_14
REMARK    5  A    between atoms: C_14  and  C_15
REMARK    6  A    between atoms: C_15  and  N_18
REMARK    7  A    between atoms: O_22  and  C_23
REMARK    8  A    between atoms: C_27  and  C_35
REMARK                            x       y       z     vdW  Elec       q    Type
REMARK                         _______ _______ _______ _____ _____    ______ ____
ROOT
ATOM      1  N   UNL     1      31.687 -22.839 -14.594  0.00  0.00    -0.244 NA
ATOM      2  C   UNL     1      35.256 -23.501 -14.137  0.00  0.00    +0.174 C 
ATOM      3  C   UNL     1      35.686 -23.647 -15.450  0.00  0.00    +0.173 C 
ATOM      4  C   UNL     1      33.912 -23.230 -13.867  0.00  0.00    +0.059 C 
ATOM      5  C   UNL     1      32.975 -23.101 -14.889  0.00  0.00    +0.087 C 
ATOM      6  C   UNL     1      34.770 -23.523 -16.491  0.00  0.00    +0.045 C 
ATOM      7  C   UNL     1      33.418 -23.251 -16.220  0.00  0.00    +0.055 C 
ATOM      8  C   UNL     1      32.476 -23.121 -17.248  0.00  0.00    +0.148 C 
ATOM      9  C   UNL     1      31.148 -22.851 -16.948  0.00  0.00    +0.058 C 
ATOM     10  C   UNL     1      30.808 -22.721 -15.617  0.00  0.00    +0.102 C 
ENDROOT
BRANCH   3  11
ATOM     11  O   UNL     1      36.992 -23.911 -15.729  0.00  0.00    -0.468 OA
ATOM     12  C   UNL     1      37.813 -22.805 -16.099  0.00  0.00    +0.253 C 
ENDBRANCH   3  11
BRANCH   2  13
ATOM     13  O   UNL     1      36.135 -23.618 -13.102  0.00  0.00    -0.475 OA
BRANCH  13  14
ATOM     14  C   UNL     1      36.120 -24.844 -12.376  0.00  0.00    +0.186 C 
BRANCH  14  15
ATOM     15  C   UNL     1      37.236 -25.714 -12.844  0.00  0.00    -0.008 C 
ATOM     16  C   UNL     1      38.535 -25.040 -13.175  0.00  0.00    -0.018 C 
ATOM     17  C   UNL     1      38.414 -25.865 -11.927  0.00  0.00    -0.018 C 
BRANCH  15  18
ATOM     18  N   UNL     1      36.808 -26.866 -13.648  0.00  0.00    +0.385 N 
ATOM     19  H   UNL     1      37.400 -26.942 -14.474  0.00  0.00    -0.089 HD
ATOM     20  H   UNL     1      35.837 -26.738 -13.935  0.00  0.00    -0.089 HD
ATOM     21  H   UNL     1      36.888 -27.718 -13.092  0.00  0.00    -0.089 HD
ENDBRANCH  15  18
ENDBRANCH  14  15
ENDBRANCH  13  14
ENDBRANCH   2  13
BRANCH   8  22
ATOM     22  O   UNL     1      32.832 -23.254 -18.580  0.00  0.00    -0.453 OA
BRANCH  22  23
ATOM     23  C   UNL     1      33.400 -22.179 -19.192  0.00  0.00    +0.145 C 
ATOM     24  C   UNL     1      34.574 -19.961 -20.455  0.00  0.00    +0.005 C 
ATOM     25  C   UNL     1      35.392 -20.953 -19.865  0.00  0.00    +0.003 C 
ATOM     26  C   UNL     1      34.790 -22.056 -19.237  0.00  0.00    +0.037 C 
ATOM     27  C   UNL     1      35.176 -18.858 -21.082  0.00  0.00    +0.053 C 
ATOM     28  C   UNL     1      32.596 -21.203 -19.772  0.00  0.00    +0.037 C 
ATOM     29  C   UNL     1      33.177 -20.101 -20.399  0.00  0.00    +0.003 C 
ATOM     30  C   UNL     1      36.788 -20.814 -19.920  0.00  0.00    +0.000 C 
ATOM     31  C   UNL     1      36.565 -18.736 -21.127  0.00  0.00    +0.005 C 
ATOM     32  C   UNL     1      37.369 -19.712 -20.547  0.00  0.00    +0.000 C 
BRANCH  27  35
ATOM     33  O   UNL     1      34.153 -17.835 -22.928  0.00  0.00    -0.270 OA
ATOM     34  N   UNL     1      33.940 -16.771 -20.878  0.00  0.00    -0.299 N 
ATOM     35  C   UNL     1      34.398 -17.795 -21.712  0.00  0.00    +0.246 C 
ATOM     36  C   UNL     1      33.140 -15.663 -21.347  0.00  0.00    +0.111 C 
ATOM     37  H   UNL     1      34.176 -16.807 -19.922  0.00  0.00    +0.150 HD
ENDBRANCH  27  35
ENDBRANCH  22  23
ENDBRANCH   8  22
TORSDOF 8
ENDMDL
MODEL 2
REMARK VINA RESULT:     -10.5      5.922     11.193
REMARK  Name = 25031915
REMARK  8 active torsions:
REMARK  status: ('A' for Active; 'I' for Inactive)
REMARK    1  A    between atoms: C_2  and  O_13
REMARK    2  A    between atoms: C_3  and  O_11
REMARK    3  A    between atoms: C_8  and  O_22
REMARK    4  A    between atoms: O_13  and  C_14
REMARK    5  A    between atoms: C_14  and  C_15
REMARK    6  A    between atoms: C_15  and  N_18
REMARK    7  A    between atoms: O_22  and  C_23
REMARK    8  A    between atoms: C_27  and  C_35
REMARK                            x       y       z     vdW  Elec       q    Type
REMARK                         _______ _______ _______ _____ _____    ______ ____
ROOT
ATOM      1  N   UNL     1      33.904 -15.586 -26.097  0.00  0.00    -0.244 NA
ATOM      2  C   UNL     1      35.201 -17.239 -23.102  0.00  0.00    +0.174 C 
ATOM      3  C   UNL     1      34.583 -16.515 -22.091  0.00  0.00    +0.173 C 
ATOM      4  C   UNL     1      34.964 -16.915 -24.440  0.00  0.00    +0.059 C 
ATOM      5  C   UNL     1      34.113 -15.872 -24.797  0.00  0.00    +0.087 C 
ATOM      6  C   UNL     1      33.728 -15.468 -22.420  0.00  0.00    +0.045 C 
ATOM      7  C   UNL     1      33.488 -15.141 -23.765  0.00  0.00    +0.055 C 
ATOM      8  C   UNL     1      32.632 -14.092 -24.124  0.00  0.00    +0.148 C 
ATOM      9  C   UNL     1      32.415 -13.794 -25.462  0.00  0.00    +0.058 C 
ATOM     10  C   UNL     1      33.070 -14.565 -26.401  0.00  0.00    +0.102 C 
ENDROOT
BRANCH   3  11
ATOM     11  O   UNL     1      34.805 -16.819 -20.782  0.00  0.00    -0.468 OA
ATOM     12  C   UNL     1      34.617 -15.773 -19.831  0.00  0.00    +0.253 C 
ENDBRANCH   3  11
BRANCH   2  13
ATOM     13  O   UNL     1      36.043 -18.269 -22.804  0.00  0.00    -0.475 OA
BRANCH  13  14
ATOM     14  C   UNL     1      35.447 -19.535 -22.535  0.00  0.00    +0.186 C 
BRANCH  14  15
ATOM     15  C   UNL     1      35.576 -19.849 -21.084  0.00  0.00    -0.008 C 
ATOM     16  C   UNL     1      34.321 -20.218 -20.350  0.00  0.00    -0.018 C 
ATOM     17  C   UNL     1      35.341 -21.272 -20.669  0.00  0.00    -0.018 C 
BRANCH  15  18
ATOM     18  N   UNL     1      36.604 -19.066 -20.386  0.00  0.00    +0.385 N 
ATOM     19  H   UNL     1      37.350 -19.687 -20.074  0.00  0.00    -0.089 HD
ATOM     20  H   UNL     1      36.187 -18.603 -19.578  0.00  0.00    -0.089 HD
ATOM     21  H   UNL     1      36.986 -18.365 -21.020  0.00  0.00    -0.089 HD
ENDBRANCH  15  18
ENDBRANCH  14  15
ENDBRANCH  13  14
ENDBRANCH   2  13
BRANCH   8  22
ATOM     22  O   UNL     1      31.981 -13.328 -23.170  0.00  0.00    -0.453 OA
BRANCH  22  23
ATOM     23  C   UNL     1      32.286 -12.003 -23.106  0.00  0.00    +0.145 C 
ATOM     24  C   UNL     1      32.915  -9.269 -22.974  0.00  0.00    +0.005 C 
ATOM     25  C   UNL     1      33.723 -10.144 -23.738  0.00  0.00    +0.003 C 
ATOM     26  C   UNL     1      33.394 -11.508 -23.794  0.00  0.00    +0.037 C 
ATOM     27  C   UNL     1      33.243  -7.904 -22.918  0.00  0.00    +0.053 C 
ATOM     28  C   UNL     1      31.491 -11.142 -22.355  0.00  0.00    +0.037 C 
ATOM     29  C   UNL     1      31.803  -9.784 -22.288  0.00  0.00    +0.003 C 
ATOM     30  C   UNL     1      34.834  -9.629 -24.424  0.00  0.00    +0.000 C 
ATOM     31  C   UNL     1      34.352  -7.410 -23.606  0.00  0.00    +0.005 C 
ATOM     32  C   UNL     1      35.146  -8.271 -24.357  0.00  0.00    +0.000 C 
BRANCH  27  35
ATOM     33  O   UNL     1      32.636  -6.821 -20.929  0.00  0.00    -0.270 OA
ATOM     34  N   UNL     1      31.539  -6.168 -22.864  0.00  0.00    -0.299 N 
ATOM     35  C   UNL     1      32.459  -6.940 -22.151  0.00  0.00    +0.246 C 
ATOM     36  C   UNL     1      30.708  -5.156 -22.253  0.00  0.00    +0.111 C 
ATOM     37  H   UNL     1      31.453  -6.320 -23.834  0.00  0.00    +0.150 HD
ENDBRANCH  27  35
ENDBRANCH  22  23
ENDBRANCH   8  22
TORSDOF 8
ENDMDL
MODEL 3
REMARK VINA RESULT:     -10.4      6.652     14.316
REMARK  Name = 25031915
REMARK  8 active torsions:
REMARK  status: ('A' for Active; 'I' for Inactive)
REMARK    1  A    between atoms: C_2  and  O_13
REMARK    2  A    between atoms: C_3  and  O_11
REMARK    3  A    between atoms: C_8  and  O_22
REMARK    4  A    between atoms: O_13  and  C_14
REMARK    5  A    between atoms: C_14  and  C_15
REMARK    6  A    between atoms: C_15  and  N_18
REMARK    7  A    between atoms: O_22  and  C_23
REMARK    8  A    between atoms: C_27  and  C_35
REMARK                            x       y       z     vdW  Elec       q    Type
REMARK                         _______ _______ _______ _____ _____    ______ ____
ROOT
ATOM      1  N   UNL     1      31.101 -10.746 -21.483  0.00  0.00    -0.244 NA
ATOM      2  C   UNL     1      32.982  -7.856 -22.705  0.00  0.00    +0.174 C 
ATOM      3  C   UNL     1      33.920  -8.459 -23.532  0.00  0.00    +0.173 C 
ATOM      4  C   UNL     1      32.044  -8.637 -22.024  0.00  0.00    +0.059 C 
ATOM      5  C   UNL     1      32.020 -10.023 -22.152  0.00  0.00    +0.087 C 
ATOM      6  C   UNL     1      33.918  -9.843 -23.678  0.00  0.00    +0.045 C 
ATOM      7  C   UNL     1      32.975 -10.629 -22.994  0.00  0.00    +0.055 C 
ATOM      8  C   UNL     1      32.951 -12.024 -23.123  0.00  0.00    +0.148 C 
ATOM      9  C   UNL     1      32.007 -12.772 -22.435  0.00  0.00    +0.058 C 
ATOM     10  C   UNL     1      31.113 -12.091 -21.634  0.00  0.00    +0.102 C 
ENDROOT
BRANCH   3  11
ATOM     11  O   UNL     1      34.840  -7.711 -24.202  0.00  0.00    -0.468 OA
ATOM     12  C   UNL     1      34.343  -6.710 -25.088  0.00  0.00    +0.253 C 
ENDBRANCH   3  11
BRANCH   2  13
ATOM     13  O   UNL     1      32.964  -6.502 -22.547  0.00  0.00    -0.475 OA
BRANCH  13  14
ATOM     14  C   UNL     1      31.848  -5.945 -21.857  0.00  0.00    +0.186 C 
BRANCH  14  15
ATOM     15  C   UNL     1      31.166  -4.950 -22.732  0.00  0.00    -0.008 C 
ATOM     16  C   UNL     1      31.938  -4.435 -23.911  0.00  0.00    -0.018 C 
ATOM     17  C   UNL     1      30.804  -5.396 -24.118  0.00  0.00    -0.018 C 
BRANCH  15  18
ATOM     18  N   UNL     1      30.263  -4.037 -22.020  0.00  0.00    +0.385 N 
ATOM     19  H   UNL     1      29.374  -3.983 -22.517  0.00  0.00    -0.089 HD
ATOM     20  H   UNL     1      30.685  -3.109 -21.975  0.00  0.00    -0.089 HD
ATOM     21  H   UNL     1      30.104  -4.385 -21.074  0.00  0.00    -0.089 HD
ENDBRANCH  15  18
ENDBRANCH  14  15
ENDBRANCH  13  14
ENDBRANCH   2  13
BRANCH   8  22
ATOM     22  O   UNL     1      33.855 -12.693 -23.930  0.00  0.00    -0.453 OA
BRANCH  22  23
ATOM     23  C   UNL     1      34.102 -14.003 -23.651  0.00  0.00    +0.145 C 
ATOM     24  C   UNL     1      34.612 -16.705 -23.076  0.00  0.00    +0.005 C 
ATOM     25  C   UNL     1      34.224 -16.320 -24.382  0.00  0.00    +0.003 C 
ATOM     26  C   UNL     1      33.973 -14.965 -24.653  0.00  0.00    +0.037 C 
ATOM     27  C   UNL     1      34.862 -18.060 -22.805  0.00  0.00    +0.053 C 
ATOM     28  C   UNL     1      34.483 -14.380 -22.367  0.00  0.00    +0.037 C 
ATOM     29  C   UNL     1      34.736 -15.722 -22.080  0.00  0.00    +0.003 C 
ATOM     30  C   UNL     1      34.100 -17.302 -25.378  0.00  0.00    +0.000 C 
ATOM     31  C   UNL     1      34.733 -19.022 -23.807  0.00  0.00    +0.005 C 
ATOM     32  C   UNL     1      34.353 -18.644 -25.091  0.00  0.00    +0.000 C 
BRANCH  27  35
ATOM     33  O   UNL     1      35.600 -17.723 -20.605  0.00  0.00    -0.270 OA
ATOM     34  N   UNL     1      35.227 -19.912 -21.269  0.00  0.00    -0.299 N 
ATOM     35  C   UNL     1      35.265 -18.532 -21.483  0.00  0.00    +0.246 C 
ATOM     36  C   UNL     1      35.571 -20.531 -20.010  0.00  0.00    +0.111 C 
ATOM     37  H   UNL     1      34.951 -20.493 -22.016  0.00  0.00    +0.150 HD
ENDBRANCH  27  35
ENDBRANCH  22  23
ENDBRANCH   8  22
TORSDOF 8
ENDMDL
MODEL 4
REMARK VINA RESULT:     -10.4      4.179     11.911
REMARK  Name = 25031915
REMARK  8 active torsions:
REMARK  status: ('A' for Active; 'I' for Inactive)
REMARK    1  A    between atoms: C_2  and  O_13
REMARK    2  A    between atoms: C_3  and  O_11
REMARK    3  A    between atoms: C_8  and  O_22
REMARK    4  A    between atoms: O_13  and  C_14
REMARK    5  A    between atoms: C_14  and  C_15
REMARK    6  A    between atoms: C_15  and  N_18
REMARK    7  A    between atoms: O_22  and  C_23
REMARK    8  A    between atoms: C_27  and  C_35
REMARK                            x       y       z     vdW  Elec       q    Type
REMARK                         _______ _______ _______ _____ _____    ______ ____
ROOT
ATOM      1  N   UNL     1      32.184 -13.366 -20.610  0.00  0.00    -0.244 NA
ATOM      2  C   UNL     1      32.973 -11.681 -23.760  0.00  0.00    +0.174 C 
ATOM      3  C   UNL     1      33.606 -12.693 -24.470  0.00  0.00    +0.173 C 
ATOM      4  C   UNL     1      32.502 -11.923 -22.467  0.00  0.00    +0.059 C 
ATOM      5  C   UNL     1      32.650 -13.166 -21.858  0.00  0.00    +0.087 C 
ATOM      6  C   UNL     1      33.768 -13.945 -23.885  0.00  0.00    +0.045 C 
ATOM      7  C   UNL     1      33.295 -14.189 -22.584  0.00  0.00    +0.055 C 
ATOM      8  C   UNL     1      33.444 -15.440 -21.972  0.00  0.00    +0.148 C 
ATOM      9  C   UNL     1      32.965 -15.650 -20.686  0.00  0.00    +0.058 C 
ATOM     10  C   UNL     1      32.349 -14.589 -20.054  0.00  0.00    +0.102 C 
ENDROOT
BRANCH   3  11
ATOM     11  O   UNL     1      34.070 -12.472 -25.731  0.00  0.00    -0.468 OA
ATOM     12  C   UNL     1      33.373 -13.109 -26.800  0.00  0.00    +0.253 C 
ENDBRANCH   3  11
BRANCH   2  13
ATOM     13  O   UNL     1      32.803 -10.447 -24.313  0.00  0.00    -0.475 OA
BRANCH  13  14
ATOM     14  C   UNL     1      33.117  -9.322 -23.495  0.00  0.00    +0.186 C 
BRANCH  14  15
ATOM     15  C   UNL     1      34.387  -8.702 -23.968  0.00  0.00    -0.008 C 
ATOM     16  C   UNL     1      34.300  -7.315 -24.535  0.00  0.00    -0.018 C 
ATOM     17  C   UNL     1      34.911  -7.536 -23.182  0.00  0.00    -0.018 C 
BRANCH  15  18
ATOM     18  N   UNL     1      35.342  -9.651 -24.555  0.00  0.00    +0.385 N 
ATOM     19  H   UNL     1      36.254  -9.205 -24.642  0.00  0.00    -0.089 HD
ATOM     20  H   UNL     1      35.013  -9.937 -25.478  0.00  0.00    -0.089 HD
ATOM     21  H   UNL     1      35.420 -10.471 -23.953  0.00  0.00    -0.089 HD
ENDBRANCH  15  18
ENDBRANCH  14  15
ENDBRANCH  13  14
ENDBRANCH   2  13
BRANCH   8  22
ATOM     22  O   UNL     1      34.065 -16.495 -22.619  0.00  0.00    -0.453 OA
BRANCH  22  23
ATOM     23  C   UNL     1      34.267 -17.640 -21.911  0.00  0.00    +0.145 C 
ATOM     24  C   UNL     1      34.684 -20.003 -20.451  0.00  0.00    +0.005 C 
ATOM     25  C   UNL     1      35.790 -19.246 -20.902  0.00  0.00    +0.003 C 
ATOM     26  C   UNL     1      35.565 -18.067 -21.630  0.00  0.00    +0.037 C 
ATOM     27  C   UNL     1      34.909 -21.183 -19.723  0.00  0.00    +0.053 C 
ATOM     28  C   UNL     1      33.178 -18.385 -21.469  0.00  0.00    +0.037 C 
ATOM     29  C   UNL     1      33.383 -19.559 -20.744  0.00  0.00    +0.003 C 
ATOM     30  C   UNL     1      37.090 -19.689 -20.610  0.00  0.00    +0.000 C 
ATOM     31  C   UNL     1      36.207 -21.609 -19.442  0.00  0.00    +0.005 C 
ATOM     32  C   UNL     1      37.296 -20.864 -19.885  0.00  0.00    +0.000 C 
BRANCH  27  35
ATOM     33  O   UNL     1      32.820 -22.228 -19.933  0.00  0.00    -0.270 OA
ATOM     34  N   UNL     1      33.976 -22.566 -17.951  0.00  0.00    -0.299 N 
ATOM     35  C   UNL     1      33.818 -22.017 -19.226  0.00  0.00    +0.246 C 
ATOM     36  C   UNL     1      32.998 -23.430 -17.331  0.00  0.00    +0.111 C 
ATOM     37  H   UNL     1      34.796 -22.352 -17.449  0.00  0.00    +0.150 HD
ENDBRANCH  27  35
ENDBRANCH  22  23
ENDBRANCH   8  22
TORSDOF 8
ENDMDL
MODEL 5
REMARK VINA RESULT:     -10.3      2.534      5.736
REMARK  Name = 25031915
REMARK  8 active torsions:
REMARK  status: ('A' for Active; 'I' for Inactive)
REMARK    1  A    between atoms: C_2  and  O_13
REMARK    2  A    between atoms: C_3  and  O_11
REMARK    3  A    between atoms: C_8  and  O_22
REMARK    4  A    between atoms: O_13  and  C_14
REMARK    5  A    between atoms: C_14  and  C_15
REMARK    6  A    between atoms: C_15  and  N_18
REMARK    7  A    between atoms: O_22  and  C_23
REMARK    8  A    between atoms: C_27  and  C_35
REMARK                            x       y       z     vdW  Elec       q    Type
REMARK                         _______ _______ _______ _____ _____    ______ ____
ROOT
ATOM      1  N   UNL     1      37.432 -20.180 -19.718  0.00  0.00    -0.244 NA
ATOM      2  C   UNL     1      34.957 -22.396 -18.186  0.00  0.00    +0.174 C 
ATOM      3  C   UNL     1      33.816 -22.092 -18.917  0.00  0.00    +0.173 C 
ATOM      4  C   UNL     1      36.162 -21.746 -18.467  0.00  0.00    +0.059 C 
ATOM      5  C   UNL     1      36.255 -20.788 -19.473  0.00  0.00    +0.087 C 
ATOM      6  C   UNL     1      33.882 -21.138 -19.928  0.00  0.00    +0.045 C 
ATOM      7  C   UNL     1      35.092 -20.484 -20.211  0.00  0.00    +0.055 C 
ATOM      8  C   UNL     1      35.186 -19.520 -21.224  0.00  0.00    +0.148 C 
ATOM      9  C   UNL     1      36.397 -18.891 -21.479  0.00  0.00    +0.058 C 
ATOM     10  C   UNL     1      37.480 -19.254 -20.705  0.00  0.00    +0.102 C 
ENDROOT
BRANCH   3  11
ATOM     11  O   UNL     1      32.635 -22.718 -18.655  0.00  0.00    -0.468 OA
ATOM     12  C   UNL     1      32.049 -22.489 -17.375  0.00  0.00    +0.253 C 
ENDBRANCH   3  11
BRANCH   2  13
ATOM     13  O   UNL     1      34.917 -23.327 -17.192  0.00  0.00    -0.475 OA
BRANCH  13  14
ATOM     14  C   UNL     1      35.285 -22.894 -15.884  0.00  0.00    +0.186 C 
BRANCH  14  15
ATOM     15  C   UNL     1      36.250 -23.863 -15.292  0.00  0.00    -0.008 C 
ATOM     16  C   UNL     1      35.954 -24.364 -13.909  0.00  0.00    -0.018 C 
ATOM     17  C   UNL     1      35.769 -25.270 -15.090  0.00  0.00    -0.018 C 
BRANCH  15  18
ATOM     18  N   UNL     1      37.648 -23.639 -15.682  0.00  0.00    +0.385 N 
ATOM     19  H   UNL     1      37.840 -22.637 -15.698  0.00  0.00    -0.089 HD
ATOM     20  H   UNL     1      37.809 -24.031 -16.610  0.00  0.00    -0.089 HD
ATOM     21  H   UNL     1      38.266 -24.093 -15.010  0.00  0.00    -0.089 HD
ENDBRANCH  15  18
ENDBRANCH  14  15
ENDBRANCH  13  14
ENDBRANCH   2  13
BRANCH   8  22
ATOM     22  O   UNL     1      34.090 -19.167 -21.993  0.00  0.00    -0.453 OA
BRANCH  22  23
ATOM     23  C   UNL     1      33.882 -17.842 -22.226  0.00  0.00    +0.145 C 
ATOM     24  C   UNL     1      33.451 -15.108 -22.706  0.00  0.00    +0.005 C 
ATOM     25  C   UNL     1      33.134 -15.663 -21.444  0.00  0.00    +0.003 C 
ATOM     26  C   UNL     1      33.356 -17.031 -21.219  0.00  0.00    +0.037 C 
ATOM     27  C   UNL     1      33.230 -13.739 -22.931  0.00  0.00    +0.053 C 
ATOM     28  C   UNL     1      34.194 -17.297 -23.468  0.00  0.00    +0.037 C 
ATOM     29  C   UNL     1      33.980 -15.939 -23.708  0.00  0.00    +0.003 C 
ATOM     30  C   UNL     1      32.606 -14.832 -20.442  0.00  0.00    +0.000 C 
ATOM     31  C   UNL     1      32.703 -12.929 -21.924  0.00  0.00    +0.005 C 
ATOM     32  C   UNL     1      32.392 -13.475 -20.683  0.00  0.00    +0.000 C 
BRANCH  27  35
ATOM     33  O   UNL     1      33.149 -13.607 -25.271  0.00  0.00    -0.270 OA
ATOM     34  N   UNL     1      34.235 -11.891 -24.153  0.00  0.00    -0.299 N 
ATOM     35  C   UNL     1      33.531 -13.096 -24.207  0.00  0.00    +0.246 C 
ATOM     36  C   UNL     1      34.587 -11.123 -25.326  0.00  0.00    +0.111 C 
ATOM     37  H   UNL     1      34.506 -11.547 -23.271  0.00  0.00    +0.150 HD
ENDBRANCH  27  35
ENDBRANCH  22  23
ENDBRANCH   8  22
TORSDOF 8
ENDMDL
MODEL 6
REMARK VINA RESULT:     -10.2      2.101      3.498
REMARK  Name = 25031915
REMARK  8 active torsions:
REMARK  status: ('A' for Active; 'I' for Inactive)
REMARK    1  A    between atoms: C_2  and  O_13
REMARK    2  A    between atoms: C_3  and  O_11
REMARK    3  A    between atoms: C_8  and  O_22
REMARK    4  A    between atoms: O_13  and  C_14
REMARK    5  A    between atoms: C_14  and  C_15
REMARK    6  A    between atoms: C_15  and  N_18
REMARK    7  A    between atoms: O_22  and  C_23
REMARK    8  A    between atoms: C_27  and  C_35
REMARK                            x       y       z     vdW  Elec       q    Type
REMARK                         _______ _______ _______ _____ _____    ______ ____
ROOT
ATOM      1  N   UNL     1      33.012 -22.621 -18.398  0.00  0.00    -0.244 NA
ATOM      2  C   UNL     1      35.713 -23.093 -15.976  0.00  0.00    +0.174 C 
ATOM      3  C   UNL     1      36.734 -22.341 -16.543  0.00  0.00    +0.173 C 
ATOM      4  C   UNL     1      34.471 -23.177 -16.611  0.00  0.00    +0.059 C 
ATOM      5  C   UNL     1      34.221 -22.520 -17.813  0.00  0.00    +0.087 C 
ATOM      6  C   UNL     1      36.511 -21.674 -17.743  0.00  0.00    +0.045 C 
ATOM      7  C   UNL     1      35.262 -21.758 -18.382  0.00  0.00    +0.055 C 
ATOM      8  C   UNL     1      35.012 -21.096 -19.592  0.00  0.00    +0.148 C 
ATOM      9  C   UNL     1      33.767 -21.199 -20.198  0.00  0.00    +0.058 C 
ATOM     10  C   UNL     1      32.811 -21.967 -19.566  0.00  0.00    +0.102 C 
ENDROOT
BRANCH   3  11
ATOM     11  O   UNL     1      37.950 -22.250 -15.935  0.00  0.00    -0.468 OA
ATOM     12  C   UNL     1      38.810 -23.384 -16.031  0.00  0.00    +0.253 C 
ENDBRANCH   3  11
BRANCH   2  13
ATOM     13  O   UNL     1      35.908 -23.755 -14.801  0.00  0.00    -0.475 OA
BRANCH  13  14
ATOM     14  C   UNL     1      36.146 -25.158 -14.879  0.00  0.00    +0.186 C 
BRANCH  14  15
ATOM     15  C   UNL     1      36.739 -25.636 -13.598  0.00  0.00    -0.008 C 
ATOM     16  C   UNL     1      37.622 -24.677 -12.854  0.00  0.00    -0.018 C 
ATOM     17  C   UNL     1      36.249 -24.990 -12.336  0.00  0.00    -0.018 C 
BRANCH  15  18
ATOM     18  N   UNL     1      37.070 -27.066 -13.582  0.00  0.00    +0.385 N 
ATOM     19  H   UNL     1      36.923 -27.438 -12.644  0.00  0.00    -0.089 HD
ATOM     20  H   UNL     1      38.047 -27.192 -13.848  0.00  0.00    -0.089 HD
ATOM     21  H   UNL     1      36.472 -27.562 -14.242  0.00  0.00    -0.089 HD
ENDBRANCH  15  18
ENDBRANCH  14  15
ENDBRANCH  13  14
ENDBRANCH   2  13
BRANCH   8  22
ATOM     22  O   UNL     1      35.982 -20.329 -20.213  0.00  0.00    -0.453 OA
BRANCH  22  23
ATOM     23  C   UNL     1      35.564 -19.320 -21.027  0.00  0.00    +0.145 C 
ATOM     24  C   UNL     1      34.703 -17.240 -22.706  0.00  0.00    +0.005 C 
ATOM     25  C   UNL     1      34.945 -18.527 -23.242  0.00  0.00    +0.003 C 
ATOM     26  C   UNL     1      35.375 -19.557 -22.389  0.00  0.00    +0.037 C 
ATOM     27  C   UNL     1      34.273 -16.210 -23.559  0.00  0.00    +0.053 C 
ATOM     28  C   UNL     1      35.327 -18.055 -20.500  0.00  0.00    +0.037 C 
ATOM     29  C   UNL     1      34.900 -17.020 -21.333  0.00  0.00    +0.003 C 
ATOM     30  C   UNL     1      34.749 -18.747 -24.615  0.00  0.00    +0.000 C 
ATOM     31  C   UNL     1      34.084 -16.446 -24.921  0.00  0.00    +0.005 C 
ATOM     32  C   UNL     1      34.322 -17.712 -25.448  0.00  0.00    +0.000 C 
BRANCH  27  35
ATOM     33  O   UNL     1      34.898 -13.997 -23.103  0.00  0.00    -0.270 OA
ATOM     34  N   UNL     1      32.708 -14.594 -22.631  0.00  0.00    -0.299 N 
ATOM     35  C   UNL     1      34.005 -14.857 -23.080  0.00  0.00    +0.246 C 
ATOM     36  C   UNL     1      32.281 -13.300 -22.150  0.00  0.00    +0.111 C 
ATOM     37  H   UNL     1      32.052 -15.329 -22.643  0.00  0.00    +0.150 HD
ENDBRANCH  27  35
ENDBRANCH  22  23
ENDBRANCH   8  22
TORSDOF 8
ENDMDL
MODEL 7
REMARK VINA RESULT:     -10.2      2.369      4.236
REMARK  Name = 25031915
REMARK  8 active torsions:
REMARK  status: ('A' for Active; 'I' for Inactive)
REMARK    1  A    between atoms: C_2  and  O_13
REMARK    2  A    between atoms: C_3  and  O_11
REMARK    3  A    between atoms: C_8  and  O_22
REMARK    4  A    between atoms: O_13  and  C_14
REMARK    5  A    between atoms: C_14  and  C_15
REMARK    6  A    between atoms: C_15  and  N_18
REMARK    7  A    between atoms: O_22  and  C_23
REMARK    8  A    between atoms: C_27  and  C_35
REMARK                            x       y       z     vdW  Elec       q    Type
REMARK                         _______ _______ _______ _____ _____    ______ ____
ROOT
ATOM      1  N   UNL     1      36.955 -21.656 -17.953  0.00  0.00    -0.244 NA
ATOM      2  C   UNL     1      34.167 -23.403 -16.352  0.00  0.00    +0.174 C 
ATOM      3  C   UNL     1      33.134 -23.167 -17.249  0.00  0.00    +0.173 C 
ATOM      4  C   UNL     1      35.443 -22.890 -16.602  0.00  0.00    +0.059 C 
ATOM      5  C   UNL     1      35.714 -22.137 -17.741  0.00  0.00    +0.087 C 
ATOM      6  C   UNL     1      33.378 -22.417 -18.396  0.00  0.00    +0.045 C 
ATOM      7  C   UNL     1      34.660 -21.900 -18.648  0.00  0.00    +0.055 C 
ATOM      8  C   UNL     1      34.932 -21.142 -19.795  0.00  0.00    +0.148 C 
ATOM      9  C   UNL     1      36.209 -20.646 -20.016  0.00  0.00    +0.058 C 
ATOM     10  C   UNL     1      37.176 -20.929 -19.073  0.00  0.00    +0.102 C 
ENDROOT
BRANCH   3  11
ATOM     11  O   UNL     1      31.886 -23.661 -17.019  0.00  0.00    -0.468 OA
ATOM     12  C   UNL     1      30.919 -22.760 -16.482  0.00  0.00    +0.253 C 
ENDBRANCH   3  11
BRANCH   2  13
ATOM     13  O   UNL     1      33.953 -24.135 -15.222  0.00  0.00    -0.475 OA
BRANCH  13  14
ATOM     14  C   UNL     1      35.072 -24.830 -14.678  0.00  0.00    +0.186 C 
BRANCH  14  15
ATOM     15  C   UNL     1      35.396 -24.277 -13.333  0.00  0.00    -0.008 C 
ATOM     16  C   UNL     1      36.337 -25.071 -12.475  0.00  0.00    -0.018 C 
ATOM     17  C   UNL     1      36.800 -23.795 -13.113  0.00  0.00    -0.018 C 
BRANCH  15  18
ATOM     18  N   UNL     1      34.288 -23.556 -12.693  0.00  0.00    +0.385 N 
ATOM     19  H   UNL     1      34.656 -22.755 -12.180  0.00  0.00    -0.089 HD
ATOM     20  H   UNL     1      33.804 -24.180 -12.047  0.00  0.00    -0.089 HD
ATOM     21  H   UNL     1      33.635 -23.232 -13.407  0.00  0.00    -0.089 HD
ENDBRANCH  15  18
ENDBRANCH  14  15
ENDBRANCH  13  14
ENDBRANCH   2  13
BRANCH   8  22
ATOM     22  O   UNL     1      33.952 -20.867 -20.733  0.00  0.00    -0.453 OA
BRANCH  22  23
ATOM     23  C   UNL     1      34.015 -19.672 -21.382  0.00  0.00    +0.145 C 
ATOM     24  C   UNL     1      34.146 -17.206 -22.720  0.00  0.00    +0.005 C 
ATOM     25  C   UNL     1      34.408 -18.407 -23.422  0.00  0.00    +0.003 C 
ATOM     26  C   UNL     1      34.338 -19.632 -22.738  0.00  0.00    +0.037 C 
ATOM     27  C   UNL     1      34.217 -15.982 -23.404  0.00  0.00    +0.053 C 
ATOM     28  C   UNL     1      33.758 -18.492 -20.691  0.00  0.00    +0.037 C 
ATOM     29  C   UNL     1      33.823 -17.266 -21.354  0.00  0.00    +0.003 C 
ATOM     30  C   UNL     1      34.731 -18.348 -24.787  0.00  0.00    +0.000 C 
ATOM     31  C   UNL     1      34.540 -15.941 -24.761  0.00  0.00    +0.005 C 
ATOM     32  C   UNL     1      34.797 -17.122 -25.451  0.00  0.00    +0.000 C 
BRANCH  27  35
ATOM     33  O   UNL     1      34.849 -14.154 -22.079  0.00  0.00    -0.270 OA
ATOM     34  N   UNL     1      32.695 -14.140 -22.936  0.00  0.00    -0.299 N 
ATOM     35  C   UNL     1      33.961 -14.702 -22.748  0.00  0.00    +0.246 C 
ATOM     36  C   UNL     1      32.299 -12.870 -22.374  0.00  0.00    +0.111 C 
ATOM     37  H   UNL     1      32.041 -14.636 -23.481  0.00  0.00    +0.150 HD
ENDBRANCH  27  35
ENDBRANCH  22  23
ENDBRANCH   8  22
TORSDOF 8
ENDMDL
MODEL 8
REMARK VINA RESULT:     -10.2      6.428     14.159
REMARK  Name = 25031915
REMARK  8 active torsions:
REMARK  status: ('A' for Active; 'I' for Inactive)
REMARK    1  A    between atoms: C_2  and  O_13
REMARK    2  A    between atoms: C_3  and  O_11
REMARK    3  A    between atoms: C_8  and  O_22
REMARK    4  A    between atoms: O_13  and  C_14
REMARK    5  A    between atoms: C_14  and  C_15
REMARK    6  A    between atoms: C_15  and  N_18
REMARK    7  A    between atoms: O_22  and  C_23
REMARK    8  A    between atoms: C_27  and  C_35
REMARK                            x       y       z     vdW  Elec       q    Type
REMARK                         _______ _______ _______ _____ _____    ______ ____
ROOT
ATOM      1  N   UNL     1      34.091 -10.362 -24.986  0.00  0.00    -0.244 NA
ATOM      2  C   UNL     1      32.700  -8.184 -22.396  0.00  0.00    +0.174 C 
ATOM      3  C   UNL     1      32.162  -9.109 -21.510  0.00  0.00    +0.173 C 
ATOM      4  C   UNL     1      33.343  -8.621 -23.558  0.00  0.00    +0.059 C 
ATOM      5  C   UNL     1      33.464  -9.975 -23.858  0.00  0.00    +0.087 C 
ATOM      6  C   UNL     1      32.269 -10.468 -21.787  0.00  0.00    +0.045 C 
ATOM      7  C   UNL     1      32.915 -10.908 -22.954  0.00  0.00    +0.055 C 
ATOM      8  C   UNL     1      33.037 -12.271 -23.256  0.00  0.00    +0.148 C 
ATOM      9  C   UNL     1      33.682 -12.673 -24.417  0.00  0.00    +0.058 C 
ATOM     10  C   UNL     1      34.187 -11.688 -25.241  0.00  0.00    +0.102 C 
ENDROOT
BRANCH   3  11
ATOM     11  O   UNL     1      31.532  -8.698 -20.375  0.00  0.00    -0.468 OA
ATOM     12  C   UNL     1      31.515  -9.609 -19.276  0.00  0.00    +0.253 C 
ENDBRANCH   3  11
BRANCH   2  13
ATOM     13  O   UNL     1      32.608  -6.848 -22.147  0.00  0.00    -0.475 OA
BRANCH  13  14
ATOM     14  C   UNL     1      31.339  -6.234 -22.363  0.00  0.00    +0.186 C 
BRANCH  14  15
ATOM     15  C   UNL     1      31.500  -5.067 -23.275  0.00  0.00    -0.008 C 
ATOM     16  C   UNL     1      32.353  -5.263 -24.494  0.00  0.00    -0.018 C 
ATOM     17  C   UNL     1      30.862  -5.165 -24.630  0.00  0.00    -0.018 C 
BRANCH  15  18
ATOM     18  N   UNL     1      31.523  -3.766 -22.594  0.00  0.00    +0.385 N 
ATOM     19  H   UNL     1      30.633  -3.615 -22.120  0.00  0.00    -0.089 HD
ATOM     20  H   UNL     1      31.674  -3.025 -23.279  0.00  0.00    -0.089 HD
ATOM     21  H   UNL     1      32.279  -3.754 -21.909  0.00  0.00    -0.089 HD
ENDBRANCH  15  18
ENDBRANCH  14  15
ENDBRANCH  13  14
ENDBRANCH   2  13
BRANCH   8  22
ATOM     22  O   UNL     1      32.526 -13.248 -22.419  0.00  0.00    -0.453 OA
BRANCH  22  23
ATOM     23  C   UNL     1      33.115 -14.475 -22.446  0.00  0.00    +0.145 C 
ATOM     24  C   UNL     1      34.331 -17.006 -22.502  0.00  0.00    +0.005 C 
ATOM     25  C   UNL     1      34.004 -16.352 -23.713  0.00  0.00    +0.003 C 
ATOM     26  C   UNL     1      33.397 -15.086 -23.668  0.00  0.00    +0.037 C 
ATOM     27  C   UNL     1      34.938 -18.272 -22.547  0.00  0.00    +0.053 C 
ATOM     28  C   UNL     1      33.436 -15.118 -21.255  0.00  0.00    +0.037 C 
ATOM     29  C   UNL     1      34.039 -16.376 -21.281  0.00  0.00    +0.003 C 
ATOM     30  C   UNL     1      34.296 -16.982 -24.934  0.00  0.00    +0.000 C 
ATOM     31  C   UNL     1      35.220 -18.883 -23.769  0.00  0.00    +0.005 C 
ATOM     32  C   UNL     1      34.899 -18.239 -24.960  0.00  0.00    +0.000 C 
BRANCH  27  35
ATOM     33  O   UNL     1      36.281 -18.656 -20.663  0.00  0.00    -0.270 OA
ATOM     34  N   UNL     1      34.490 -20.091 -20.993  0.00  0.00    -0.299 N 
ATOM     35  C   UNL     1      35.303 -19.009 -21.340  0.00  0.00    +0.246 C 
ATOM     36  C   UNL     1      34.706 -20.902 -19.817  0.00  0.00    +0.111 C 
ATOM     37  H   UNL     1      33.731 -20.312 -21.581  0.00  0.00    +0.150 HD
ENDBRANCH  27  35
ENDBRANCH  22  23
ENDBRANCH   8  22
TORSDOF 8
ENDMDL
MODEL 9
REMARK VINA RESULT:     -10.1      5.587     10.797
REMARK  Name = 25031915
REMARK  8 active torsions:
REMARK  status: ('A' for Active; 'I' for Inactive)
REMARK    1  A    between atoms: C_2  and  O_13
REMARK    2  A    between atoms: C_3  and  O_11
REMARK    3  A    between atoms: C_8  and  O_22
REMARK    4  A    between atoms: O_13  and  C_14
REMARK    5  A    between atoms: C_14  and  C_15
REMARK    6  A    between atoms: C_15  and  N_18
REMARK    7  A    between atoms: O_22  and  C_23
REMARK    8  A    between atoms: C_27  and  C_35
REMARK                            x       y       z     vdW  Elec       q    Type
REMARK                         _______ _______ _______ _____ _____    ______ ____
ROOT
ATOM      1  N   UNL     1      33.054 -15.419 -19.896  0.00  0.00    -0.244 NA
ATOM      2  C   UNL     1      34.863 -17.477 -22.321  0.00  0.00    +0.174 C 
ATOM      3  C   UNL     1      34.696 -16.746 -23.491  0.00  0.00    +0.173 C 
ATOM      4  C   UNL     1      34.306 -17.018 -21.124  0.00  0.00    +0.059 C 
ATOM      5  C   UNL     1      33.578 -15.833 -21.067  0.00  0.00    +0.087 C 
ATOM      6  C   UNL     1      33.972 -15.558 -23.461  0.00  0.00    +0.045 C 
ATOM      7  C   UNL     1      33.412 -15.097 -22.258  0.00  0.00    +0.055 C 
ATOM      8  C   UNL     1      32.679 -13.904 -22.200  0.00  0.00    +0.148 C 
ATOM      9  C   UNL     1      32.138 -13.475 -20.996  0.00  0.00    +0.058 C 
ATOM     10  C   UNL     1      32.353 -14.262 -19.884  0.00  0.00    +0.102 C 
ENDROOT
BRANCH   3  11
ATOM     11  O   UNL     1      35.233 -17.180 -24.664  0.00  0.00    -0.468 OA
ATOM     12  C   UNL     1      34.422 -18.027 -25.476  0.00  0.00    +0.253 C 
ENDBRANCH   3  11
BRANCH   2  13
ATOM     13  O   UNL     1      35.569 -18.643 -22.326  0.00  0.00    -0.475 OA
BRANCH  13  14
ATOM     14  C   UNL     1      34.900 -19.806 -21.844  0.00  0.00    +0.186 C 
BRANCH  14  15
ATOM     15  C   UNL     1      35.587 -20.305 -20.619  0.00  0.00    -0.008 C 
ATOM     16  C   UNL     1      34.745 -21.026 -19.608  0.00  0.00    -0.018 C 
ATOM     17  C   UNL     1      35.712 -21.791 -20.463  0.00  0.00    -0.018 C 
BRANCH  15  18
ATOM     18  N   UNL     1      36.682 -19.446 -20.149  0.00  0.00    +0.385 N 
ATOM     19  H   UNL     1      36.683 -18.575 -20.679  0.00  0.00    -0.089 HD
ATOM     20  H   UNL     1      37.572 -19.926 -20.283  0.00  0.00    -0.089 HD
ATOM     21  H   UNL     1      36.552 -19.241 -19.158  0.00  0.00    -0.089 HD
ENDBRANCH  15  18
ENDBRANCH  14  15
ENDBRANCH  13  14
ENDBRANCH   2  13
BRANCH   8  22
ATOM     22  O   UNL     1      32.472 -13.124 -23.326  0.00  0.00    -0.453 OA
BRANCH  22  23
ATOM     23  C   UNL     1      32.611 -11.776 -23.194  0.00  0.00    +0.145 C 
ATOM     24  C   UNL     1      32.898  -8.995 -22.923  0.00  0.00    +0.005 C 
ATOM     25  C   UNL     1      33.781  -9.719 -23.759  0.00  0.00    +0.003 C 
ATOM     26  C   UNL     1      33.624 -11.109 -23.884  0.00  0.00    +0.037 C 
ATOM     27  C   UNL     1      33.056  -7.605 -22.798  0.00  0.00    +0.053 C 
ATOM     28  C   UNL     1      31.743 -11.065 -22.372  0.00  0.00    +0.037 C 
ATOM     29  C   UNL     1      31.885  -9.684 -22.236  0.00  0.00    +0.003 C 
ATOM     30  C   UNL     1      34.794  -9.032 -24.447  0.00  0.00    +0.000 C 
ATOM     31  C   UNL     1      34.068  -6.938 -23.488  0.00  0.00    +0.005 C 
ATOM     32  C   UNL     1      34.936  -7.651 -24.311  0.00  0.00    +0.000 C 
BRANCH  27  35
ATOM     33  O   UNL     1      32.356  -6.759 -20.726  0.00  0.00    -0.270 OA
ATOM     34  N   UNL     1      31.191  -6.054 -22.602  0.00  0.00    -0.299 N 
ATOM     35  C   UNL     1      32.185  -6.791 -21.954  0.00  0.00    +0.246 C 
ATOM     36  C   UNL     1      30.268  -5.184 -21.909  0.00  0.00    +0.111 C 
ATOM     37  H   UNL     1      31.115  -6.131 -23.581  0.00  0.00    +0.150 HD
ENDBRANCH  27  35
ENDBRANCH  22  23
ENDBRANCH   8  22
TORSDOF 8
ENDMDL
