MODEL 1
REMARK VINA RESULT:      -9.7      0.000      0.000
REMARK  Name = 446492
REMARK  9 active torsions:
REMARK  status: ('A' for Active; 'I' for Inactive)
REMARK    1  A    between atoms: C_2  and  O_17
REMARK    2  A    between atoms: C_3  and  N_6
REMARK    3  A    between atoms: C_4  and  O_19
REMARK    4  A    between atoms: C_5  and  C_21
REMARK    5  A    between atoms: C_14  and  O_15
REMARK    6  A    between atoms: C_21  and  O_22
REMARK    7  A    between atoms: O_22  and  P_23
REMARK    8  A    between atoms: P_23  and  O_25
REMARK    9  A    between atoms: P_23  and  O_27
REMARK                            x       y       z     vdW  Elec       q    Type
REMARK                         _______ _______ _______ _____ _____    ______ ____
ROOT
ATOM      1  O   UNL     1      35.796 -25.259 -15.528  0.00  0.00    -0.333 OA
ATOM      2  C   UNL     1      35.585 -23.576 -13.851  0.00  0.00    +0.187 C 
ATOM      3  C   UNL     1      34.813 -24.540 -14.749  0.00  0.00    +0.224 C 
ATOM      4  C   UNL     1      36.823 -24.407 -13.574  0.00  0.00    +0.171 C 
ATOM      5  C   UNL     1      37.091 -25.027 -14.939  0.00  0.00    +0.176 C 
ENDROOT
BRANCH   3   6
ATOM      6  N   UNL     1      33.816 -23.931 -15.621  0.00  0.00    -0.262 N 
ATOM      7  N   UNL     1      32.934 -23.020 -17.455  0.00  0.00    -0.247 NA
ATOM      8  C   UNL     1      32.505 -23.651 -15.308  0.00  0.00    +0.065 C 
ATOM      9  C   UNL     1      34.018 -23.533 -16.918  0.00  0.00    +0.222 C 
ATOM     10  C   UNL     1      31.981 -23.084 -16.466  0.00  0.00    +0.094 C 
ATOM     11  C   UNL     1      31.762 -23.840 -14.142  0.00  0.00    -0.002 C 
ATOM     12  C   UNL     1      30.634 -22.678 -16.479  0.00  0.00    +0.053 C 
ATOM     13  C   UNL     1      30.426 -23.430 -14.174  0.00  0.00    +0.091 C 
ATOM     14  C   UNL     1      29.870 -22.859 -15.320  0.00  0.00    +0.122 C 
BRANCH  14  15
ATOM     15  O   UNL     1      28.563 -22.471 -15.313  0.00  0.00    -0.475 OA
ATOM     16  C   UNL     1      27.849 -22.580 -16.544  0.00  0.00    +0.252 C 
ENDBRANCH  14  15
ENDBRANCH   3   6
BRANCH   2  17
ATOM     17  O   UNL     1      35.942 -22.398 -14.566  0.00  0.00    -0.378 OA
ATOM     18  H   UNL     1      35.423 -21.648 -14.234  0.00  0.00    +0.211 HD
ENDBRANCH   2  17
BRANCH   4  19
ATOM     19  O   UNL     1      37.918 -23.645 -13.114  0.00  0.00    -0.379 OA
ATOM     20  H   UNL     1      38.562 -23.538 -13.832  0.00  0.00    +0.211 HD
ENDBRANCH   4  19
BRANCH   5  21
ATOM     21  C   UNL     1      37.860 -26.333 -14.866  0.00  0.00    +0.186 C 
BRANCH  21  22
ATOM     22  O   UNL     1      38.919 -26.188 -13.934  0.00  0.00    -0.271 OA
BRANCH  22  23
ATOM     23  P   UNL     1      40.376 -25.748 -14.483  0.00  0.00    +0.473 P 
ATOM     24  O   UNL     1      40.858 -24.411 -14.001  0.00  0.00    -0.227 OA
BRANCH  23  25
ATOM     25  O   UNL     1      40.243 -25.898 -16.088  0.00  0.00    -0.303 OA
ATOM     26  H   UNL     1      39.648 -25.212 -16.428  0.00  0.00    +0.222 HD
ENDBRANCH  23  25
BRANCH  23  27
ATOM     27  O   UNL     1      41.310 -27.002 -14.069  0.00  0.00    -0.303 OA
ATOM     28  H   UNL     1      41.798 -27.312 -14.847  0.00  0.00    +0.222 HD
ENDBRANCH  23  27
ENDBRANCH  22  23
ENDBRANCH  21  22
ENDBRANCH   5  21
TORSDOF 9
ENDMDL
MODEL 2
REMARK VINA RESULT:      -9.2      8.879     11.184
REMARK  Name = 446492
REMARK  9 active torsions:
REMARK  status: ('A' for Active; 'I' for Inactive)
REMARK    1  A    between atoms: C_2  and  O_17
REMARK    2  A    between atoms: C_3  and  N_6
REMARK    3  A    between atoms: C_4  and  O_19
REMARK    4  A    between atoms: C_5  and  C_21
REMARK    5  A    between atoms: C_14  and  O_15
REMARK    6  A    between atoms: C_21  and  O_22
REMARK    7  A    between atoms: O_22  and  P_23
REMARK    8  A    between atoms: P_23  and  O_25
REMARK    9  A    between atoms: P_23  and  O_27
REMARK                            x       y       z     vdW  Elec       q    Type
REMARK                         _______ _______ _______ _____ _____    ______ ____
ROOT
ATOM      1  O   UNL     1      34.205 -18.888 -23.430  0.00  0.00    -0.333 OA
ATOM      2  C   UNL     1      35.265 -17.529 -21.782  0.00  0.00    +0.187 C 
ATOM      3  C   UNL     1      34.998 -18.966 -22.224  0.00  0.00    +0.224 C 
ATOM      4  C   UNL     1      35.374 -16.852 -23.134  0.00  0.00    +0.171 C 
ATOM      5  C   UNL     1      34.251 -17.529 -23.909  0.00  0.00    +0.176 C 
ENDROOT
BRANCH   3   6
ATOM      6  N   UNL     1      34.346 -19.819 -21.238  0.00  0.00    -0.262 N 
ATOM      7  N   UNL     1      32.703 -20.867 -20.154  0.00  0.00    -0.247 NA
ATOM      8  C   UNL     1      34.957 -20.547 -20.242  0.00  0.00    +0.065 C 
ATOM      9  C   UNL     1      32.997 -20.049 -21.139  0.00  0.00    +0.222 C 
ATOM     10  C   UNL     1      33.912 -21.188 -19.583  0.00  0.00    +0.094 C 
ATOM     11  C   UNL     1      36.296 -20.688 -19.876  0.00  0.00    -0.002 C 
ATOM     12  C   UNL     1      34.204 -22.026 -18.492  0.00  0.00    +0.053 C 
ATOM     13  C   UNL     1      36.567 -21.526 -18.789  0.00  0.00    +0.091 C 
ATOM     14  C   UNL     1      35.541 -22.183 -18.108  0.00  0.00    +0.122 C 
BRANCH  14  15
ATOM     15  O   UNL     1      35.843 -22.991 -17.051  0.00  0.00    -0.475 OA
ATOM     16  C   UNL     1      36.821 -22.511 -16.130  0.00  0.00    +0.252 C 
ENDBRANCH  14  15
ENDBRANCH   3   6
BRANCH   2  17
ATOM     17  O   UNL     1      34.151 -17.006 -21.066  0.00  0.00    -0.378 OA
ATOM     18  H   UNL     1      33.506 -16.640 -21.692  0.00  0.00    +0.211 HD
ENDBRANCH   2  17
BRANCH   4  19
ATOM     19  O   UNL     1      35.206 -15.452 -23.074  0.00  0.00    -0.379 OA
ATOM     20  H   UNL     1      36.019 -15.015 -23.375  0.00  0.00    +0.211 HD
ENDBRANCH   4  19
BRANCH   5  21
ATOM     21  C   UNL     1      34.471 -17.525 -25.411  0.00  0.00    +0.186 C 
BRANCH  21  22
ATOM     22  O   UNL     1      34.643 -16.186 -25.844  0.00  0.00    -0.271 OA
BRANCH  22  23
ATOM     23  P   UNL     1      33.325 -15.278 -26.086  0.00  0.00    +0.473 P 
ATOM     24  O   UNL     1      32.865 -14.497 -24.890  0.00  0.00    -0.227 OA
BRANCH  23  25
ATOM     25  O   UNL     1      32.245 -16.320 -26.689  0.00  0.00    -0.303 OA
ATOM     26  H   UNL     1      31.460 -16.336 -26.121  0.00  0.00    +0.222 HD
ENDBRANCH  23  25
BRANCH  23  27
ATOM     27  O   UNL     1      33.735 -14.384 -27.370  0.00  0.00    -0.303 OA
ATOM     28  H   UNL     1      34.320 -14.897 -27.948  0.00  0.00    +0.222 HD
ENDBRANCH  23  27
ENDBRANCH  22  23
ENDBRANCH  21  22
ENDBRANCH   5  21
TORSDOF 9
ENDMDL
MODEL 3
REMARK VINA RESULT:      -9.2      8.647     11.078
REMARK  Name = 446492
REMARK  9 active torsions:
REMARK  status: ('A' for Active; 'I' for Inactive)
REMARK    1  A    between atoms: C_2  and  O_17
REMARK    2  A    between atoms: C_3  and  N_6
REMARK    3  A    between atoms: C_4  and  O_19
REMARK    4  A    between atoms: C_5  and  C_21
REMARK    5  A    between atoms: C_14  and  O_15
REMARK    6  A    between atoms: C_21  and  O_22
REMARK    7  A    between atoms: O_22  and  P_23
REMARK    8  A    between atoms: P_23  and  O_25
REMARK    9  A    between atoms: P_23  and  O_27
REMARK                            x       y       z     vdW  Elec       q    Type
REMARK                         _______ _______ _______ _____ _____    ______ ____
ROOT
ATOM      1  O   UNL     1      34.969 -16.576 -22.074  0.00  0.00    -0.333 OA
ATOM      2  C   UNL     1      34.567 -18.218 -23.756  0.00  0.00    +0.187 C 
ATOM      3  C   UNL     1      34.479 -17.922 -22.260  0.00  0.00    +0.224 C 
ATOM      4  C   UNL     1      34.261 -16.842 -24.316  0.00  0.00    +0.171 C 
ATOM      5  C   UNL     1      35.041 -15.942 -23.367  0.00  0.00    +0.176 C 
ENDROOT
BRANCH   3   6
ATOM      6  N   UNL     1      35.189 -18.850 -21.390  0.00  0.00    -0.262 N 
ATOM      7  N   UNL     1      36.888 -19.782 -20.286  0.00  0.00    -0.247 NA
ATOM      8  C   UNL     1      34.650 -19.910 -20.696  0.00  0.00    +0.065 C 
ATOM      9  C   UNL     1      36.531 -18.820 -21.107  0.00  0.00    +0.222 C 
ATOM     10  C   UNL     1      35.728 -20.472 -20.019  0.00  0.00    +0.094 C 
ATOM     11  C   UNL     1      33.349 -20.406 -20.611  0.00  0.00    -0.002 C 
ATOM     12  C   UNL     1      35.513 -21.597 -19.202  0.00  0.00    +0.053 C 
ATOM     13  C   UNL     1      33.153 -21.524 -19.795  0.00  0.00    +0.091 C 
ATOM     14  C   UNL     1      34.214 -22.111 -19.103  0.00  0.00    +0.122 C 
BRANCH  14  15
ATOM     15  O   UNL     1      33.985 -23.201 -18.316  0.00  0.00    -0.475 OA
ATOM     16  C   UNL     1      32.985 -23.072 -17.307  0.00  0.00    +0.252 C 
ENDBRANCH  14  15
ENDBRANCH   3   6
BRANCH   2  17
ATOM     17  O   UNL     1      35.890 -18.605 -24.116  0.00  0.00    -0.378 OA
ATOM     18  H   UNL     1      36.131 -19.415 -23.640  0.00  0.00    +0.211 HD
ENDBRANCH   2  17
BRANCH   4  19
ATOM     19  O   UNL     1      34.671 -16.680 -25.657  0.00  0.00    -0.379 OA
ATOM     20  H   UNL     1      34.618 -17.532 -26.117  0.00  0.00    +0.211 HD
ENDBRANCH   4  19
BRANCH   5  21
ATOM     21  C   UNL     1      34.481 -14.534 -23.278  0.00  0.00    +0.186 C 
BRANCH  21  22
ATOM     22  O   UNL     1      34.174 -14.248 -21.924  0.00  0.00    -0.271 OA
BRANCH  22  23
ATOM     23  P   UNL     1      32.624 -14.024 -21.515  0.00  0.00    +0.473 P 
ATOM     24  O   UNL     1      32.403 -13.112 -20.344  0.00  0.00    -0.227 OA
BRANCH  23  25
ATOM     25  O   UNL     1      32.051 -15.526 -21.340  0.00  0.00    -0.303 OA
ATOM     26  H   UNL     1      31.862 -15.692 -20.403  0.00  0.00    +0.222 HD
ENDBRANCH  23  25
BRANCH  23  27
ATOM     27  O   UNL     1      31.954 -13.530 -22.902  0.00  0.00    -0.303 OA
ATOM     28  H   UNL     1      32.644 -13.423 -23.574  0.00  0.00    +0.222 HD
ENDBRANCH  23  27
ENDBRANCH  22  23
ENDBRANCH  21  22
ENDBRANCH   5  21
TORSDOF 9
ENDMDL
MODEL 4
REMARK VINA RESULT:      -9.0      2.837      4.434
REMARK  Name = 446492
REMARK  9 active torsions:
REMARK  status: ('A' for Active; 'I' for Inactive)
REMARK    1  A    between atoms: C_2  and  O_17
REMARK    2  A    between atoms: C_3  and  N_6
REMARK    3  A    between atoms: C_4  and  O_19
REMARK    4  A    between atoms: C_5  and  C_21
REMARK    5  A    between atoms: C_14  and  O_15
REMARK    6  A    between atoms: C_21  and  O_22
REMARK    7  A    between atoms: O_22  and  P_23
REMARK    8  A    between atoms: P_23  and  O_25
REMARK    9  A    between atoms: P_23  and  O_27
REMARK                            x       y       z     vdW  Elec       q    Type
REMARK                         _______ _______ _______ _____ _____    ______ ____
ROOT
ATOM      1  O   UNL     1      35.971 -23.192 -15.433  0.00  0.00    -0.333 OA
ATOM      2  C   UNL     1      33.887 -23.930 -14.541  0.00  0.00    +0.187 C 
ATOM      3  C   UNL     1      34.743 -23.858 -15.803  0.00  0.00    +0.224 C 
ATOM      4  C   UNL     1      34.970 -24.111 -13.496  0.00  0.00    +0.171 C 
ATOM      5  C   UNL     1      36.042 -23.150 -13.994  0.00  0.00    +0.176 C 
ENDROOT
BRANCH   3   6
ATOM      6  N   UNL     1      34.128 -23.196 -16.947  0.00  0.00    -0.262 N 
ATOM      7  N   UNL     1      32.536 -22.542 -18.365  0.00  0.00    -0.247 NA
ATOM      8  C   UNL     1      34.760 -22.414 -17.888  0.00  0.00    +0.065 C 
ATOM      9  C   UNL     1      32.799 -23.239 -17.281  0.00  0.00    +0.222 C 
ATOM     10  C   UNL     1      33.747 -22.021 -18.757  0.00  0.00    +0.094 C 
ATOM     11  C   UNL     1      36.094 -22.033 -18.042  0.00  0.00    -0.002 C 
ATOM     12  C   UNL     1      34.065 -21.197 -19.851  0.00  0.00    +0.053 C 
ATOM     13  C   UNL     1      36.392 -21.214 -19.136  0.00  0.00    +0.091 C 
ATOM     14  C   UNL     1      35.397 -20.803 -20.025  0.00  0.00    +0.122 C 
BRANCH  14  15
ATOM     15  O   UNL     1      35.726 -20.004 -21.081  0.00  0.00    -0.475 OA
ATOM     16  C   UNL     1      34.650 -19.390 -21.787  0.00  0.00    +0.252 C 
ENDBRANCH  14  15
ENDBRANCH   3   6
BRANCH   2  17
ATOM     17  O   UNL     1      33.204 -22.700 -14.324  0.00  0.00    -0.378 OA
ATOM     18  H   UNL     1      33.836 -21.965 -14.370  0.00  0.00    +0.211 HD
ENDBRANCH   2  17
BRANCH   4  19
ATOM     19  O   UNL     1      34.544 -23.797 -12.188  0.00  0.00    -0.379 OA
ATOM     20  H   UNL     1      34.098 -24.565 -11.799  0.00  0.00    +0.211 HD
ENDBRANCH   4  19
BRANCH   5  21
ATOM     21  C   UNL     1      37.441 -23.524 -13.540  0.00  0.00    +0.186 C 
BRANCH  21  22
ATOM     22  O   UNL     1      38.172 -24.003 -14.656  0.00  0.00    -0.271 OA
BRANCH  22  23
ATOM     23  P   UNL     1      38.558 -25.574 -14.709  0.00  0.00    +0.473 P 
ATOM     24  O   UNL     1      38.707 -26.236 -13.370  0.00  0.00    -0.227 OA
BRANCH  23  25
ATOM     25  O   UNL     1      39.872 -25.616 -15.651  0.00  0.00    -0.303 OA
ATOM     26  H   UNL     1      39.729 -26.244 -16.377  0.00  0.00    +0.222 HD
ENDBRANCH  23  25
BRANCH  23  27
ATOM     27  O   UNL     1      37.403 -26.197 -15.654  0.00  0.00    -0.303 OA
ATOM     28  H   UNL     1      37.350 -25.688 -16.478  0.00  0.00    +0.222 HD
ENDBRANCH  23  27
ENDBRANCH  22  23
ENDBRANCH  21  22
ENDBRANCH   5  21
TORSDOF 9
ENDMDL
MODEL 5
REMARK VINA RESULT:      -8.8      1.634      2.658
REMARK  Name = 446492
REMARK  9 active torsions:
REMARK  status: ('A' for Active; 'I' for Inactive)
REMARK    1  A    between atoms: C_2  and  O_17
REMARK    2  A    between atoms: C_3  and  N_6
REMARK    3  A    between atoms: C_4  and  O_19
REMARK    4  A    between atoms: C_5  and  C_21
REMARK    5  A    between atoms: C_14  and  O_15
REMARK    6  A    between atoms: C_21  and  O_22
REMARK    7  A    between atoms: O_22  and  P_23
REMARK    8  A    between atoms: P_23  and  O_25
REMARK    9  A    between atoms: P_23  and  O_27
REMARK                            x       y       z     vdW  Elec       q    Type
REMARK                         _______ _______ _______ _____ _____    ______ ____
ROOT
ATOM      1  O   UNL     1      34.719 -23.998 -13.659  0.00  0.00    -0.333 OA
ATOM      2  C   UNL     1      34.472 -23.222 -15.900  0.00  0.00    +0.187 C 
ATOM      3  C   UNL     1      33.785 -23.335 -14.541  0.00  0.00    +0.224 C 
ATOM      4  C   UNL     1      35.907 -23.019 -15.456  0.00  0.00    +0.171 C 
ATOM      5  C   UNL     1      36.012 -24.000 -14.295  0.00  0.00    +0.176 C 
ENDROOT
BRANCH   3   6
ATOM      6  N   UNL     1      32.501 -24.024 -14.536  0.00  0.00    -0.262 N 
ATOM      7  N   UNL     1      30.949 -25.529 -13.992  0.00  0.00    -0.247 NA
ATOM      8  C   UNL     1      31.382 -23.691 -15.266  0.00  0.00    +0.065 C 
ATOM      9  C   UNL     1      32.185 -25.131 -13.791  0.00  0.00    +0.222 C 
ATOM     10  C   UNL     1      30.433 -24.644 -14.909  0.00  0.00    +0.094 C 
ATOM     11  C   UNL     1      31.135 -22.668 -16.182  0.00  0.00    -0.002 C 
ATOM     12  C   UNL     1      29.153 -24.586 -15.489  0.00  0.00    +0.053 C 
ATOM     13  C   UNL     1      29.857 -22.625 -16.749  0.00  0.00    +0.091 C 
ATOM     14  C   UNL     1      28.883 -23.567 -16.410  0.00  0.00    +0.122 C 
BRANCH  14  15
ATOM     15  O   UNL     1      27.648 -23.494 -16.984  0.00  0.00    -0.475 OA
ATOM     16  C   UNL     1      27.046 -22.203 -17.061  0.00  0.00    +0.252 C 
ENDBRANCH  14  15
ENDBRANCH   3   6
BRANCH   2  17
ATOM     17  O   UNL     1      34.356 -24.442 -16.626  0.00  0.00    -0.378 OA
ATOM     18  H   UNL     1      33.464 -24.511 -17.002  0.00  0.00    +0.211 HD
ENDBRANCH   2  17
BRANCH   4  19
ATOM     19  O   UNL     1      36.851 -23.294 -16.469  0.00  0.00    -0.379 OA
ATOM     20  H   UNL     1      37.746 -23.240 -16.100  0.00  0.00    +0.211 HD
ENDBRANCH   4  19
BRANCH   5  21
ATOM     21  C   UNL     1      37.080 -23.622 -13.285  0.00  0.00    +0.186 C 
BRANCH  21  22
ATOM     22  O   UNL     1      38.354 -23.767 -13.890  0.00  0.00    -0.271 OA
BRANCH  22  23
ATOM     23  P   UNL     1      38.995 -25.249 -13.995  0.00  0.00    +0.473 P 
ATOM     24  O   UNL     1      38.560 -26.205 -12.924  0.00  0.00    -0.227 OA
BRANCH  23  25
ATOM     25  O   UNL     1      40.587 -24.975 -14.072  0.00  0.00    -0.303 OA
ATOM     26  H   UNL     1      40.745 -24.039 -14.275  0.00  0.00    +0.222 HD
ENDBRANCH  23  25
BRANCH  23  27
ATOM     27  O   UNL     1      38.622 -25.696 -15.503  0.00  0.00    -0.303 OA
ATOM     28  H   UNL     1      38.558 -26.663 -15.548  0.00  0.00    +0.222 HD
ENDBRANCH  23  27
ENDBRANCH  22  23
ENDBRANCH  21  22
ENDBRANCH   5  21
TORSDOF 9
ENDMDL
MODEL 6
REMARK VINA RESULT:      -8.8      7.287      8.785
REMARK  Name = 446492
REMARK  9 active torsions:
REMARK  status: ('A' for Active; 'I' for Inactive)
REMARK    1  A    between atoms: C_2  and  O_17
REMARK    2  A    between atoms: C_3  and  N_6
REMARK    3  A    between atoms: C_4  and  O_19
REMARK    4  A    between atoms: C_5  and  C_21
REMARK    5  A    between atoms: C_14  and  O_15
REMARK    6  A    between atoms: C_21  and  O_22
REMARK    7  A    between atoms: O_22  and  P_23
REMARK    8  A    between atoms: P_23  and  O_25
REMARK    9  A    between atoms: P_23  and  O_27
REMARK                            x       y       z     vdW  Elec       q    Type
REMARK                         _______ _______ _______ _____ _____    ______ ____
ROOT
ATOM      1  O   UNL     1      35.852 -20.076 -19.881  0.00  0.00    -0.333 OA
ATOM      2  C   UNL     1      33.751 -20.673 -20.837  0.00  0.00    +0.187 C 
ATOM      3  C   UNL     1      35.089 -19.987 -21.105  0.00  0.00    +0.224 C 
ATOM      4  C   UNL     1      34.200 -21.770 -19.891  0.00  0.00    +0.171 C 
ATOM      5  C   UNL     1      35.204 -21.030 -19.017  0.00  0.00    +0.176 C 
ENDROOT
BRANCH   3   6
ATOM      6  N   UNL     1      35.010 -18.605 -21.560  0.00  0.00    -0.262 N 
ATOM      7  N   UNL     1      35.046 -16.378 -21.465  0.00  0.00    -0.247 NA
ATOM      8  C   UNL     1      34.772 -18.170 -22.844  0.00  0.00    +0.065 C 
ATOM      9  C   UNL     1      35.167 -17.490 -20.776  0.00  0.00    +0.222 C 
ATOM     10  C   UNL     1      34.799 -16.782 -22.756  0.00  0.00    +0.094 C 
ATOM     11  C   UNL     1      34.541 -18.859 -24.036  0.00  0.00    -0.002 C 
ATOM     12  C   UNL     1      34.586 -16.018 -23.918  0.00  0.00    +0.053 C 
ATOM     13  C   UNL     1      34.331 -18.084 -25.181  0.00  0.00    +0.091 C 
ATOM     14  C   UNL     1      34.352 -16.689 -25.125  0.00  0.00    +0.122 C 
BRANCH  14  15
ATOM     15  O   UNL     1      34.143 -15.966 -26.262  0.00  0.00    -0.475 OA
ATOM     16  C   UNL     1      33.051 -15.048 -26.254  0.00  0.00    +0.252 C 
ENDBRANCH  14  15
ENDBRANCH   3   6
BRANCH   2  17
ATOM     17  O   UNL     1      32.857 -19.791 -20.167  0.00  0.00    -0.378 OA
ATOM     18  H   UNL     1      32.887 -18.917 -20.589  0.00  0.00    +0.211 HD
ENDBRANCH   2  17
BRANCH   4  19
ATOM     19  O   UNL     1      33.146 -22.324 -19.134  0.00  0.00    -0.379 OA
ATOM     20  H   UNL     1      33.202 -23.292 -19.159  0.00  0.00    +0.211 HD
ENDBRANCH   4  19
BRANCH   5  21
ATOM     21  C   UNL     1      36.244 -21.943 -18.393  0.00  0.00    +0.186 C 
BRANCH  21  22
ATOM     22  O   UNL     1      35.643 -22.663 -17.330  0.00  0.00    -0.271 OA
BRANCH  22  23
ATOM     23  P   UNL     1      36.432 -22.763 -15.922  0.00  0.00    +0.473 P 
ATOM     24  O   UNL     1      37.643 -21.884 -15.809  0.00  0.00    -0.227 OA
BRANCH  23  25
ATOM     25  O   UNL     1      36.710 -24.347 -15.748  0.00  0.00    -0.303 OA
ATOM     26  H   UNL     1      35.877 -24.834 -15.847  0.00  0.00    +0.222 HD
ENDBRANCH  23  25
BRANCH  23  27
ATOM     27  O   UNL     1      35.270 -22.469 -14.836  0.00  0.00    -0.303 OA
ATOM     28  H   UNL     1      35.466 -21.643 -14.368  0.00  0.00    +0.222 HD
ENDBRANCH  23  27
ENDBRANCH  22  23
ENDBRANCH  21  22
ENDBRANCH   5  21
TORSDOF 9
ENDMDL
MODEL 7
REMARK VINA RESULT:      -8.5      3.251      8.394
REMARK  Name = 446492
REMARK  9 active torsions:
REMARK  status: ('A' for Active; 'I' for Inactive)
REMARK    1  A    between atoms: C_2  and  O_17
REMARK    2  A    between atoms: C_3  and  N_6
REMARK    3  A    between atoms: C_4  and  O_19
REMARK    4  A    between atoms: C_5  and  C_21
REMARK    5  A    between atoms: C_14  and  O_15
REMARK    6  A    between atoms: C_21  and  O_22
REMARK    7  A    between atoms: O_22  and  P_23
REMARK    8  A    between atoms: P_23  and  O_25
REMARK    9  A    between atoms: P_23  and  O_27
REMARK                            x       y       z     vdW  Elec       q    Type
REMARK                         _______ _______ _______ _____ _____    ______ ____
ROOT
ATOM      1  O   UNL     1      32.288 -23.609 -13.774  0.00  0.00    -0.333 OA
ATOM      2  C   UNL     1      33.350 -23.907 -15.889  0.00  0.00    +0.187 C 
ATOM      3  C   UNL     1      33.277 -24.418 -14.451  0.00  0.00    +0.224 C 
ATOM      4  C   UNL     1      31.900 -23.521 -16.107  0.00  0.00    +0.171 C 
ATOM      5  C   UNL     1      31.548 -22.878 -14.772  0.00  0.00    +0.176 C 
ENDROOT
BRANCH   3   6
ATOM      6  N   UNL     1      34.534 -24.412 -13.714  0.00  0.00    -0.262 N 
ATOM      7  N   UNL     1      36.001 -23.930 -12.106  0.00  0.00    -0.247 NA
ATOM      8  C   UNL     1      35.694 -25.070 -14.054  0.00  0.00    +0.065 C 
ATOM      9  C   UNL     1      34.774 -23.746 -12.539  0.00  0.00    +0.222 C 
ATOM     10  C   UNL     1      36.590 -24.752 -13.038  0.00  0.00    +0.094 C 
ATOM     11  C   UNL     1      36.020 -25.890 -15.135  0.00  0.00    -0.002 C 
ATOM     12  C   UNL     1      37.894 -25.276 -13.086  0.00  0.00    +0.053 C 
ATOM     13  C   UNL     1      37.321 -26.402 -15.167  0.00  0.00    +0.091 C 
ATOM     14  C   UNL     1      38.243 -26.101 -14.162  0.00  0.00    +0.122 C 
BRANCH  14  15
ATOM     15  O   UNL     1      39.503 -26.618 -14.228  0.00  0.00    -0.475 OA
ATOM     16  C   UNL     1      40.523 -25.773 -14.757  0.00  0.00    +0.252 C 
ENDBRANCH  14  15
ENDBRANCH   3   6
BRANCH   2  17
ATOM     17  O   UNL     1      34.177 -22.751 -15.972  0.00  0.00    -0.378 OA
ATOM     18  H   UNL     1      33.642 -21.989 -16.244  0.00  0.00    +0.211 HD
ENDBRANCH   2  17
BRANCH   4  19
ATOM     19  O   UNL     1      31.713 -22.633 -17.188  0.00  0.00    -0.379 OA
ATOM     20  H   UNL     1      31.597 -23.140 -18.007  0.00  0.00    +0.211 HD
ENDBRANCH   4  19
BRANCH   5  21
ATOM     21  C   UNL     1      30.066 -22.933 -14.450  0.00  0.00    +0.186 C 
BRANCH  21  22
ATOM     22  O   UNL     1      29.416 -23.734 -15.423  0.00  0.00    -0.271 OA
BRANCH  22  23
ATOM     23  P   UNL     1      28.172 -23.099 -16.240  0.00  0.00    +0.473 P 
ATOM     24  O   UNL     1      27.025 -22.636 -15.391  0.00  0.00    -0.227 OA
BRANCH  23  25
ATOM     25  O   UNL     1      27.809 -24.235 -17.332  0.00  0.00    -0.303 OA
ATOM     26  H   UNL     1      27.368 -24.978 -16.892  0.00  0.00    +0.222 HD
ENDBRANCH  23  25
BRANCH  23  27
ATOM     27  O   UNL     1      28.876 -21.944 -17.126  0.00  0.00    -0.303 OA
ATOM     28  H   UNL     1      28.529 -21.077 -16.864  0.00  0.00    +0.222 HD
ENDBRANCH  23  27
ENDBRANCH  22  23
ENDBRANCH  21  22
ENDBRANCH   5  21
TORSDOF 9
ENDMDL
MODEL 8
REMARK VINA RESULT:      -8.5      9.421     10.878
REMARK  Name = 446492
REMARK  9 active torsions:
REMARK  status: ('A' for Active; 'I' for Inactive)
REMARK    1  A    between atoms: C_2  and  O_17
REMARK    2  A    between atoms: C_3  and  N_6
REMARK    3  A    between atoms: C_4  and  O_19
REMARK    4  A    between atoms: C_5  and  C_21
REMARK    5  A    between atoms: C_14  and  O_15
REMARK    6  A    between atoms: C_21  and  O_22
REMARK    7  A    between atoms: O_22  and  P_23
REMARK    8  A    between atoms: P_23  and  O_25
REMARK    9  A    between atoms: P_23  and  O_27
REMARK                            x       y       z     vdW  Elec       q    Type
REMARK                         _______ _______ _______ _____ _____    ______ ____
ROOT
ATOM      1  O   UNL     1      33.824 -18.976 -22.052  0.00  0.00    -0.333 OA
ATOM      2  C   UNL     1      35.934 -17.893 -21.802  0.00  0.00    +0.187 C 
ATOM      3  C   UNL     1      34.477 -17.697 -22.215  0.00  0.00    +0.224 C 
ATOM      4  C   UNL     1      35.760 -18.912 -20.692  0.00  0.00    +0.171 C 
ATOM      5  C   UNL     1      34.693 -19.828 -21.279  0.00  0.00    +0.176 C 
ENDROOT
BRANCH   3   6
ATOM      6  N   UNL     1      34.266 -17.183 -23.562  0.00  0.00    -0.262 N 
ATOM      7  N   UNL     1      34.019 -17.193 -25.778  0.00  0.00    -0.247 NA
ATOM      8  C   UNL     1      34.060 -15.871 -23.923  0.00  0.00    +0.065 C 
ATOM      9  C   UNL     1      34.231 -17.931 -24.712  0.00  0.00    +0.222 C 
ATOM     10  C   UNL     1      33.911 -15.906 -25.306  0.00  0.00    +0.094 C 
ATOM     11  C   UNL     1      33.998 -14.695 -23.175  0.00  0.00    -0.002 C 
ATOM     12  C   UNL     1      33.682 -14.704 -26.001  0.00  0.00    +0.053 C 
ATOM     13  C   UNL     1      33.770 -13.510 -23.881  0.00  0.00    +0.091 C 
ATOM     14  C   UNL     1      33.615 -13.512 -25.269  0.00  0.00    +0.122 C 
BRANCH  14  15
ATOM     15  O   UNL     1      33.395 -12.336 -25.924  0.00  0.00    -0.475 OA
ATOM     16  C   UNL     1      34.186 -11.217 -25.527  0.00  0.00    +0.252 C 
ENDBRANCH  14  15
ENDBRANCH   3   6
BRANCH   2  17
ATOM     17  O   UNL     1      36.688 -18.461 -22.868  0.00  0.00    -0.378 OA
ATOM     18  H   UNL     1      36.116 -18.577 -23.643  0.00  0.00    +0.211 HD
ENDBRANCH   2  17
BRANCH   4  19
ATOM     19  O   UNL     1      36.946 -19.611 -20.383  0.00  0.00    -0.379 OA
ATOM     20  H   UNL     1      37.285 -20.044 -21.182  0.00  0.00    +0.211 HD
ENDBRANCH   4  19
BRANCH   5  21
ATOM     21  C   UNL     1      33.885 -20.561 -20.225  0.00  0.00    +0.186 C 
BRANCH  21  22
ATOM     22  O   UNL     1      34.739 -21.461 -19.538  0.00  0.00    -0.271 OA
BRANCH  22  23
ATOM     23  P   UNL     1      34.067 -22.644 -18.661  0.00  0.00    +0.473 P 
ATOM     24  O   UNL     1      34.726 -22.905 -17.338  0.00  0.00    -0.227 OA
BRANCH  23  25
ATOM     25  O   UNL     1      34.032 -23.903 -19.676  0.00  0.00    -0.303 OA
ATOM     26  H   UNL     1      34.760 -23.826 -20.311  0.00  0.00    +0.222 HD
ENDBRANCH  23  25
BRANCH  23  27
ATOM     27  O   UNL     1      32.517 -22.192 -18.575  0.00  0.00    -0.303 OA
ATOM     28  H   UNL     1      32.077 -22.381 -19.418  0.00  0.00    +0.222 HD
ENDBRANCH  23  27
ENDBRANCH  22  23
ENDBRANCH  21  22
ENDBRANCH   5  21
TORSDOF 9
ENDMDL
MODEL 9
REMARK VINA RESULT:      -8.3      3.303      5.117
REMARK  Name = 446492
REMARK  9 active torsions:
REMARK  status: ('A' for Active; 'I' for Inactive)
REMARK    1  A    between atoms: C_2  and  O_17
REMARK    2  A    between atoms: C_3  and  N_6
REMARK    3  A    between atoms: C_4  and  O_19
REMARK    4  A    between atoms: C_5  and  C_21
REMARK    5  A    between atoms: C_14  and  O_15
REMARK    6  A    between atoms: C_21  and  O_22
REMARK    7  A    between atoms: O_22  and  P_23
REMARK    8  A    between atoms: P_23  and  O_25
REMARK    9  A    between atoms: P_23  and  O_27
REMARK                            x       y       z     vdW  Elec       q    Type
REMARK                         _______ _______ _______ _____ _____    ______ ____
ROOT
ATOM      1  O   UNL     1      36.582 -22.770 -14.052  0.00  0.00    -0.333 OA
ATOM      2  C   UNL     1      37.639 -24.429 -15.401  0.00  0.00    +0.187 C 
ATOM      3  C   UNL     1      36.967 -23.058 -15.415  0.00  0.00    +0.224 C 
ATOM      4  C   UNL     1      38.321 -24.375 -14.048  0.00  0.00    +0.171 C 
ATOM      5  C   UNL     1      37.252 -23.711 -13.190  0.00  0.00    +0.176 C 
ENDROOT
BRANCH   3   6
ATOM      6  N   UNL     1      35.822 -22.924 -16.308  0.00  0.00    -0.262 N 
ATOM      7  N   UNL     1      33.742 -23.163 -17.075  0.00  0.00    -0.247 NA
ATOM      8  C   UNL     1      35.784 -22.249 -17.507  0.00  0.00    +0.065 C 
ATOM      9  C   UNL     1      34.573 -23.451 -16.098  0.00  0.00    +0.222 C 
ATOM     10  C   UNL     1      34.479 -22.414 -17.962  0.00  0.00    +0.094 C 
ATOM     11  C   UNL     1      36.755 -21.532 -18.206  0.00  0.00    -0.002 C 
ATOM     12  C   UNL     1      34.103 -21.834 -19.187  0.00  0.00    +0.053 C 
ATOM     13  C   UNL     1      36.363 -20.962 -19.422  0.00  0.00    +0.091 C 
ATOM     14  C   UNL     1      35.062 -21.110 -19.906  0.00  0.00    +0.122 C 
BRANCH  14  15
ATOM     15  O   UNL     1      34.717 -20.541 -21.096  0.00  0.00    -0.475 OA
ATOM     16  C   UNL     1      33.783 -19.464 -21.051  0.00  0.00    +0.252 C 
ENDBRANCH  14  15
ENDBRANCH   3   6
BRANCH   2  17
ATOM     17  O   UNL     1      36.665 -25.468 -15.412  0.00  0.00    -0.378 OA
ATOM     18  H   UNL     1      36.622 -25.880 -14.535  0.00  0.00    +0.211 HD
ENDBRANCH   2  17
BRANCH   4  19
ATOM     19  O   UNL     1      38.684 -25.646 -13.553  0.00  0.00    -0.379 OA
ATOM     20  H   UNL     1      39.568 -25.879 -13.878  0.00  0.00    +0.211 HD
ENDBRANCH   4  19
BRANCH   5  21
ATOM     21  C   UNL     1      37.817 -22.985 -11.982  0.00  0.00    +0.186 C 
BRANCH  21  22
ATOM     22  O   UNL     1      37.006 -23.271 -10.855  0.00  0.00    -0.271 OA
BRANCH  22  23
ATOM     23  P   UNL     1      35.863 -24.409 -10.996  0.00  0.00    +0.473 P 
ATOM     24  O   UNL     1      36.332 -25.710 -11.580  0.00  0.00    -0.227 OA
BRANCH  23  25
ATOM     25  O   UNL     1      34.683 -23.668 -11.817  0.00  0.00    -0.303 OA
ATOM     26  H   UNL     1      35.053 -23.248 -12.609  0.00  0.00    +0.222 HD
ENDBRANCH  23  25
BRANCH  23  27
ATOM     27  O   UNL     1      35.267 -24.507  -9.496  0.00  0.00    -0.303 OA
ATOM     28  H   UNL     1      35.965 -24.298  -8.856  0.00  0.00    +0.222 HD
ENDBRANCH  23  27
ENDBRANCH  22  23
ENDBRANCH  21  22
ENDBRANCH   5  21
TORSDOF 9
ENDMDL
