MODEL 1
REMARK VINA RESULT:      -8.7      0.000      0.000
REMARK  Name = 4293
REMARK  6 active torsions:
REMARK  status: ('A' for Active; 'I' for Inactive)
REMARK    1  A    between atoms: S_1  and  C_5
REMARK    2  A    between atoms: S_1  and  N_15
REMARK    3  A    between atoms: C_6  and  S_9
REMARK    4  A    between atoms: S_9  and  N_12
REMARK    5  A    between atoms: N_15  and  C_17
REMARK    6  A    between atoms: C_17  and  C_19
REMARK                            x       y       z     vdW  Elec       q    Type
REMARK                         _______ _______ _______ _____ _____    ______ ____
ROOT
ATOM      1  S   UNL     1      35.875 -24.269 -11.435  0.00  0.00    +0.066 S 
ATOM      2  O   UNL     1      35.287 -25.288 -10.587  0.00  0.00    -0.152 OA
ATOM      3  O   UNL     1      36.778 -23.269 -10.897  0.00  0.00    -0.152 OA
ENDROOT
BRANCH   1   5
ATOM      4  S   UNL     1      38.497 -24.619 -12.678  0.00  0.00    -0.047 S 
ATOM      5  C   UNL     1      36.886 -25.156 -12.619  0.00  0.00    +0.153 C 
ATOM      6  C   UNL     1      38.861 -25.776 -13.886  0.00  0.00    +0.152 C 
ATOM      7  C   UNL     1      36.610 -26.171 -13.471  0.00  0.00    +0.029 C 
ATOM      8  C   UNL     1      37.765 -26.539 -14.219  0.00  0.00    +0.028 C 
BRANCH   6   9
ATOM      9  S   UNL     1      40.527 -25.753 -14.447  0.00  0.00    +0.063 S 
ATOM     10  O   UNL     1      41.091 -24.454 -14.122  0.00  0.00    -0.153 OA
ATOM     11  O   UNL     1      41.175 -26.969 -13.987  0.00  0.00    -0.153 OA
BRANCH   9  12
ATOM     12  N   UNL     1      40.291 -25.852 -16.134  0.00  0.00    -0.203 NA
ATOM     13  H   UNL     1      39.294 -25.932 -16.334  0.00  0.00    +0.144 HD
ATOM     14  H   UNL     1      40.778 -26.670 -16.499  0.00  0.00    +0.144 HD
ENDBRANCH   9  12
ENDBRANCH   6   9
ENDBRANCH   1   5
BRANCH   1  15
ATOM     15  N   UNL     1      34.633 -23.485 -12.319  0.00  0.00    -0.174 NA
ATOM     16  H   UNL     1      35.083 -22.839 -12.967  0.00  0.00    +0.149 HD
BRANCH  15  17
ATOM     17  C   UNL     1      33.709 -24.323 -13.107  0.00  0.00    +0.124 C 
BRANCH  17  19
ATOM     18  S   UNL     1      32.103 -23.606 -15.233  0.00  0.00    -0.089 S 
ATOM     19  C   UNL     1      33.632 -23.880 -14.540  0.00  0.00    +0.025 C 
ATOM     20  C   UNL     1      34.666 -23.657 -15.401  0.00  0.00    +0.004 C 
ATOM     21  C   UNL     1      34.194 -23.246 -16.681  0.00  0.00    +0.007 C 
ATOM     22  C   UNL     1      32.819 -23.176 -16.727  0.00  0.00    +0.035 C 
ENDBRANCH  17  19
ENDBRANCH  15  17
ENDBRANCH   1  15
TORSDOF 6
ENDMDL
MODEL 2
REMARK VINA RESULT:      -8.6      1.395      1.657
REMARK  Name = 4293
REMARK  6 active torsions:
REMARK  status: ('A' for Active; 'I' for Inactive)
REMARK    1  A    between atoms: S_1  and  C_5
REMARK    2  A    between atoms: S_1  and  N_15
REMARK    3  A    between atoms: C_6  and  S_9
REMARK    4  A    between atoms: S_9  and  N_12
REMARK    5  A    between atoms: N_15  and  C_17
REMARK    6  A    between atoms: C_17  and  C_19
REMARK                            x       y       z     vdW  Elec       q    Type
REMARK                         _______ _______ _______ _____ _____    ______ ____
ROOT
ATOM      1  S   UNL     1      35.516 -24.531 -11.973  0.00  0.00    +0.066 S 
ATOM      2  O   UNL     1      35.500 -25.317 -10.755  0.00  0.00    -0.152 OA
ATOM      3  O   UNL     1      35.960 -23.150 -11.975  0.00  0.00    -0.152 OA
ENDROOT
BRANCH   1   5
ATOM      4  S   UNL     1      38.275 -24.763 -12.911  0.00  0.00    -0.047 S 
ATOM      5  C   UNL     1      36.688 -25.350 -13.056  0.00  0.00    +0.153 C 
ATOM      6  C   UNL     1      38.815 -25.869 -14.101  0.00  0.00    +0.152 C 
ATOM      7  C   UNL     1      36.546 -26.345 -13.962  0.00  0.00    +0.029 C 
ATOM      8  C   UNL     1      37.791 -26.654 -14.580  0.00  0.00    +0.028 C 
BRANCH   6   9
ATOM      9  S   UNL     1      40.534 -25.779 -14.463  0.00  0.00    +0.063 S 
ATOM     10  O   UNL     1      40.991 -24.440 -14.131  0.00  0.00    -0.153 OA
ATOM     11  O   UNL     1      41.180 -26.940 -13.877  0.00  0.00    -0.153 OA
BRANCH   9  12
ATOM     12  N   UNL     1      40.506 -25.954 -16.160  0.00  0.00    -0.203 NA
ATOM     13  H   UNL     1      41.242 -25.381 -16.573  0.00  0.00    +0.144 HD
ATOM     14  H   UNL     1      39.600 -25.654 -16.518  0.00  0.00    +0.144 HD
ENDBRANCH   9  12
ENDBRANCH   6   9
ENDBRANCH   1   5
BRANCH   1  15
ATOM     15  N   UNL     1      33.980 -24.627 -12.727  0.00  0.00    -0.174 NA
ATOM     16  H   UNL     1      33.293 -24.269 -12.064  0.00  0.00    +0.149 HD
BRANCH  15  17
ATOM     17  C   UNL     1      33.785 -23.899 -13.996  0.00  0.00    +0.124 C 
BRANCH  17  19
ATOM     18  S   UNL     1      31.272 -25.009 -13.745  0.00  0.00    -0.089 S 
ATOM     19  C   UNL     1      32.340 -23.862 -14.405  0.00  0.00    +0.025 C 
ATOM     20  C   UNL     1      31.740 -22.998 -15.273  0.00  0.00    +0.004 C 
ATOM     21  C   UNL     1      30.350 -23.281 -15.407  0.00  0.00    +0.007 C 
ATOM     22  C   UNL     1      29.962 -24.350 -14.629  0.00  0.00    +0.035 C 
ENDBRANCH  17  19
ENDBRANCH  15  17
ENDBRANCH   1  15
TORSDOF 6
ENDMDL
MODEL 3
REMARK VINA RESULT:      -8.4      8.817     10.802
REMARK  Name = 4293
REMARK  6 active torsions:
REMARK  status: ('A' for Active; 'I' for Inactive)
REMARK    1  A    between atoms: S_1  and  C_5
REMARK    2  A    between atoms: S_1  and  N_15
REMARK    3  A    between atoms: C_6  and  S_9
REMARK    4  A    between atoms: S_9  and  N_12
REMARK    5  A    between atoms: N_15  and  C_17
REMARK    6  A    between atoms: C_17  and  C_19
REMARK                            x       y       z     vdW  Elec       q    Type
REMARK                         _______ _______ _______ _____ _____    ______ ____
ROOT
ATOM      1  S   UNL     1      35.732 -18.466 -21.991  0.00  0.00    +0.066 S 
ATOM      2  O   UNL     1      37.047 -18.743 -21.446  0.00  0.00    -0.152 OA
ATOM      3  O   UNL     1      35.413 -18.758 -23.375  0.00  0.00    -0.152 OA
ENDROOT
BRANCH   1   5
ATOM      4  S   UNL     1      35.362 -20.807 -20.280  0.00  0.00    -0.047 S 
ATOM      5  C   UNL     1      34.602 -19.509 -21.070  0.00  0.00    +0.153 C 
ATOM      6  C   UNL     1      33.859 -21.336 -19.657  0.00  0.00    +0.152 C 
ATOM      7  C   UNL     1      33.263 -19.456 -20.884  0.00  0.00    +0.029 C 
ATOM      8  C   UNL     1      32.819 -20.526 -20.056  0.00  0.00    +0.028 C 
BRANCH   6   9
ATOM      9  S   UNL     1      33.945 -22.779 -18.655  0.00  0.00    +0.063 S 
ATOM     10  O   UNL     1      33.960 -23.934 -19.536  0.00  0.00    -0.153 OA
ATOM     11  O   UNL     1      35.002 -22.588 -17.679  0.00  0.00    -0.153 OA
BRANCH   9  12
ATOM     12  N   UNL     1      32.435 -22.701 -17.863  0.00  0.00    -0.203 NA
ATOM     13  H   UNL     1      31.798 -23.382 -18.278  0.00  0.00    +0.144 HD
ATOM     14  H   UNL     1      32.045 -21.764 -17.966  0.00  0.00    +0.144 HD
ENDBRANCH   9  12
ENDBRANCH   6   9
ENDBRANCH   1   5
BRANCH   1  15
ATOM     15  N   UNL     1      35.311 -16.840 -21.650  0.00  0.00    -0.174 NA
ATOM     16  H   UNL     1      36.136 -16.389 -21.256  0.00  0.00    +0.149 HD
BRANCH  15  17
ATOM     17  C   UNL     1      34.842 -15.997 -22.767  0.00  0.00    +0.124 C 
BRANCH  17  19
ATOM     18  S   UNL     1      33.326 -13.789 -23.429  0.00  0.00    -0.089 S 
ATOM     19  C   UNL     1      33.864 -14.954 -22.311  0.00  0.00    +0.025 C 
ATOM     20  C   UNL     1      33.322 -14.803 -21.068  0.00  0.00    +0.004 C 
ATOM     21  C   UNL     1      32.431 -13.692 -21.023  0.00  0.00    +0.007 C 
ATOM     22  C   UNL     1      32.340 -13.052 -22.240  0.00  0.00    +0.035 C 
ENDBRANCH  17  19
ENDBRANCH  15  17
ENDBRANCH   1  15
TORSDOF 6
ENDMDL
MODEL 4
REMARK VINA RESULT:      -8.2      6.596      8.381
REMARK  Name = 4293
REMARK  6 active torsions:
REMARK  status: ('A' for Active; 'I' for Inactive)
REMARK    1  A    between atoms: S_1  and  C_5
REMARK    2  A    between atoms: S_1  and  N_15
REMARK    3  A    between atoms: C_6  and  S_9
REMARK    4  A    between atoms: S_9  and  N_12
REMARK    5  A    between atoms: N_15  and  C_17
REMARK    6  A    between atoms: C_17  and  C_19
REMARK                            x       y       z     vdW  Elec       q    Type
REMARK                         _______ _______ _______ _____ _____    ______ ____
ROOT
ATOM      1  S   UNL     1      33.830 -22.813 -18.571  0.00  0.00    +0.066 S 
ATOM      2  O   UNL     1      33.865 -23.953 -19.467  0.00  0.00    -0.152 OA
ATOM      3  O   UNL     1      34.921 -22.539 -17.655  0.00  0.00    -0.152 OA
ENDROOT
BRANCH   1   5
ATOM      4  S   UNL     1      35.343 -20.848 -20.118  0.00  0.00    -0.047 S 
ATOM      5  C   UNL     1      33.801 -21.370 -19.634  0.00  0.00    +0.153 C 
ATOM      6  C   UNL     1      34.651 -19.568 -21.020  0.00  0.00    +0.152 C 
ATOM      7  C   UNL     1      32.785 -20.621 -20.122  0.00  0.00    +0.029 C 
ATOM      8  C   UNL     1      33.277 -19.561 -20.936  0.00  0.00    +0.028 C 
BRANCH   6   9
ATOM      9  S   UNL     1      35.812 -18.542 -21.850  0.00  0.00    +0.063 S 
ATOM     10  O   UNL     1      37.128 -18.819 -21.300  0.00  0.00    -0.153 OA
ATOM     11  O   UNL     1      35.576 -18.658 -23.279  0.00  0.00    -0.153 OA
BRANCH   9  12
ATOM     12  N   UNL     1      35.301 -17.001 -21.325  0.00  0.00    -0.203 NA
ATOM     13  H   UNL     1      35.757 -16.282 -21.887  0.00  0.00    +0.144 HD
ATOM     14  H   UNL     1      35.552 -16.876 -20.344  0.00  0.00    +0.144 HD
ENDBRANCH   9  12
ENDBRANCH   6   9
ENDBRANCH   1   5
BRANCH   1  15
ATOM     15  N   UNL     1      32.355 -22.826 -17.698  0.00  0.00    -0.174 NA
ATOM     16  H   UNL     1      31.687 -23.377 -18.238  0.00  0.00    +0.149 HD
BRANCH  15  17
ATOM     17  C   UNL     1      32.367 -23.374 -16.327  0.00  0.00    +0.124 C 
BRANCH  17  19
ATOM     18  S   UNL     1      30.846 -24.978 -14.677  0.00  0.00    -0.089 S 
ATOM     19  C   UNL     1      30.994 -23.775 -15.871  0.00  0.00    +0.025 C 
ATOM     20  C   UNL     1      29.795 -23.287 -16.301  0.00  0.00    +0.004 C 
ATOM     21  C   UNL     1      28.708 -23.919 -15.630  0.00  0.00    +0.007 C 
ATOM     22  C   UNL     1      29.138 -24.859 -14.720  0.00  0.00    +0.035 C 
ENDBRANCH  17  19
ENDBRANCH  15  17
ENDBRANCH   1  15
TORSDOF 6
ENDMDL
MODEL 5
REMARK VINA RESULT:      -8.2      8.735     10.529
REMARK  Name = 4293
REMARK  6 active torsions:
REMARK  status: ('A' for Active; 'I' for Inactive)
REMARK    1  A    between atoms: S_1  and  C_5
REMARK    2  A    between atoms: S_1  and  N_15
REMARK    3  A    between atoms: C_6  and  S_9
REMARK    4  A    between atoms: S_9  and  N_12
REMARK    5  A    between atoms: N_15  and  C_17
REMARK    6  A    between atoms: C_17  and  C_19
REMARK                            x       y       z     vdW  Elec       q    Type
REMARK                         _______ _______ _______ _____ _____    ______ ____
ROOT
ATOM      1  S   UNL     1      35.161 -18.552 -22.051  0.00  0.00    +0.066 S 
ATOM      2  O   UNL     1      36.459 -17.921 -22.190  0.00  0.00    -0.152 OA
ATOM      3  O   UNL     1      34.532 -19.236 -23.164  0.00  0.00    -0.152 OA
ENDROOT
BRANCH   1   5
ATOM      4  S   UNL     1      33.941 -20.608 -20.370  0.00  0.00    -0.047 S 
ATOM      5  C   UNL     1      35.387 -19.849 -20.834  0.00  0.00    +0.153 C 
ATOM      6  C   UNL     1      34.797 -21.635 -19.301  0.00  0.00    +0.152 C 
ATOM      7  C   UNL     1      36.490 -20.336 -20.219  0.00  0.00    +0.029 C 
ATOM      8  C   UNL     1      36.151 -21.385 -19.317  0.00  0.00    +0.028 C 
BRANCH   6   9
ATOM      9  S   UNL     1      33.794 -22.778 -18.417  0.00  0.00    +0.063 S 
ATOM     10  O   UNL     1      34.482 -23.114 -17.183  0.00  0.00    -0.153 OA
ATOM     11  O   UNL     1      32.439 -22.256 -18.382  0.00  0.00    -0.153 OA
BRANCH   9  12
ATOM     12  N   UNL     1      33.847 -24.120 -19.469  0.00  0.00    -0.203 NA
ATOM     13  H   UNL     1      34.133 -23.813 -20.399  0.00  0.00    +0.144 HD
ATOM     14  H   UNL     1      32.923 -24.548 -19.521  0.00  0.00    +0.144 HD
ENDBRANCH   9  12
ENDBRANCH   6   9
ENDBRANCH   1   5
BRANCH   1  15
ATOM     15  N   UNL     1      34.053 -17.425 -21.387  0.00  0.00    -0.174 NA
ATOM     16  H   UNL     1      33.624 -17.864 -20.573  0.00  0.00    +0.149 HD
BRANCH  15  17
ATOM     17  C   UNL     1      34.575 -16.114 -20.954  0.00  0.00    +0.124 C 
BRANCH  17  19
ATOM     18  S   UNL     1      33.877 -14.522 -23.097  0.00  0.00    -0.089 S 
ATOM     19  C   UNL     1      33.734 -14.979 -21.464  0.00  0.00    +0.025 C 
ATOM     20  C   UNL     1      32.830 -14.231 -20.768  0.00  0.00    +0.004 C 
ATOM     21  C   UNL     1      32.228 -13.242 -21.599  0.00  0.00    +0.007 C 
ATOM     22  C   UNL     1      32.706 -13.289 -22.890  0.00  0.00    +0.035 C 
ENDBRANCH  17  19
ENDBRANCH  15  17
ENDBRANCH   1  15
TORSDOF 6
ENDMDL
MODEL 6
REMARK VINA RESULT:      -8.1     13.407     15.058
REMARK  Name = 4293
REMARK  6 active torsions:
REMARK  status: ('A' for Active; 'I' for Inactive)
REMARK    1  A    between atoms: S_1  and  C_5
REMARK    2  A    between atoms: S_1  and  N_15
REMARK    3  A    between atoms: C_6  and  S_9
REMARK    4  A    between atoms: S_9  and  N_12
REMARK    5  A    between atoms: N_15  and  C_17
REMARK    6  A    between atoms: C_17  and  C_19
REMARK                            x       y       z     vdW  Elec       q    Type
REMARK                         _______ _______ _______ _____ _____    ______ ____
ROOT
ATOM      1  S   UNL     1      33.013 -13.422 -23.443  0.00  0.00    +0.066 S 
ATOM      2  O   UNL     1      32.724 -14.144 -24.667  0.00  0.00    -0.152 OA
ATOM      3  O   UNL     1      31.955 -12.823 -22.653  0.00  0.00    -0.152 OA
ENDROOT
BRANCH   1   5
ATOM      4  S   UNL     1      34.161 -16.087 -23.096  0.00  0.00    -0.047 S 
ATOM      5  C   UNL     1      33.734 -14.631 -22.333  0.00  0.00    +0.153 C 
ATOM      6  C   UNL     1      34.731 -16.722 -21.612  0.00  0.00    +0.152 C 
ATOM      7  C   UNL     1      34.002 -14.600 -21.007  0.00  0.00    +0.029 C 
ATOM      8  C   UNL     1      34.587 -15.826 -20.577  0.00  0.00    +0.028 C 
BRANCH   6   9
ATOM      9  S   UNL     1      35.369 -18.358 -21.708  0.00  0.00    +0.063 S 
ATOM     10  O   UNL     1      36.154 -18.603 -20.511  0.00  0.00    -0.153 OA
ATOM     11  O   UNL     1      34.277 -19.248 -22.063  0.00  0.00    -0.153 OA
BRANCH   9  12
ATOM     12  N   UNL     1      36.420 -18.206 -23.044  0.00  0.00    -0.203 NA
ATOM     13  H   UNL     1      36.331 -19.028 -23.641  0.00  0.00    +0.144 HD
ATOM     14  H   UNL     1      37.382 -18.128 -22.712  0.00  0.00    +0.144 HD
ENDBRANCH   9  12
ENDBRANCH   6   9
ENDBRANCH   1   5
BRANCH   1  15
ATOM     15  N   UNL     1      34.216 -12.241 -23.755  0.00  0.00    -0.174 NA
ATOM     16  H   UNL     1      35.033 -12.729 -24.122  0.00  0.00    +0.149 HD
BRANCH  15  17
ATOM     17  C   UNL     1      33.892 -11.155 -24.700  0.00  0.00    +0.124 C 
BRANCH  17  19
ATOM     18  S   UNL     1      32.669  -9.276 -23.093  0.00  0.00    -0.089 S 
ATOM     19  C   UNL     1      33.972  -9.803 -24.051  0.00  0.00    +0.025 C 
ATOM     20  C   UNL     1      34.991  -8.899 -24.127  0.00  0.00    +0.004 C 
ATOM     21  C   UNL     1      34.699  -7.726 -23.373  0.00  0.00    +0.007 C 
ATOM     22  C   UNL     1      33.467  -7.798 -22.759  0.00  0.00    +0.035 C 
ENDBRANCH  17  19
ENDBRANCH  15  17
ENDBRANCH   1  15
TORSDOF 6
ENDMDL
MODEL 7
REMARK VINA RESULT:      -8.1      6.320      8.277
REMARK  Name = 4293
REMARK  6 active torsions:
REMARK  status: ('A' for Active; 'I' for Inactive)
REMARK    1  A    between atoms: S_1  and  C_5
REMARK    2  A    between atoms: S_1  and  N_15
REMARK    3  A    between atoms: C_6  and  S_9
REMARK    4  A    between atoms: S_9  and  N_12
REMARK    5  A    between atoms: N_15  and  C_17
REMARK    6  A    between atoms: C_17  and  C_19
REMARK                            x       y       z     vdW  Elec       q    Type
REMARK                         _______ _______ _______ _____ _____    ______ ____
ROOT
ATOM      1  S   UNL     1      33.656 -22.946 -18.504  0.00  0.00    +0.066 S 
ATOM      2  O   UNL     1      32.387 -22.894 -17.804  0.00  0.00    -0.152 OA
ATOM      3  O   UNL     1      33.960 -24.017 -19.435  0.00  0.00    -0.152 OA
ENDROOT
BRANCH   1   5
ATOM      4  S   UNL     1      35.271 -20.937 -19.881  0.00  0.00    -0.047 S 
ATOM      5  C   UNL     1      33.699 -21.475 -19.527  0.00  0.00    +0.153 C 
ATOM      6  C   UNL     1      34.643 -19.634 -20.796  0.00  0.00    +0.152 C 
ATOM      7  C   UNL     1      32.719 -20.715 -20.069  0.00  0.00    +0.029 C 
ATOM      8  C   UNL     1      33.266 -19.632 -20.815  0.00  0.00    +0.028 C 
BRANCH   6   9
ATOM      9  S   UNL     1      35.858 -18.583 -21.510  0.00  0.00    +0.063 S 
ATOM     10  O   UNL     1      37.160 -19.015 -21.032  0.00  0.00    -0.153 OA
ATOM     11  O   UNL     1      35.594 -18.492 -22.935  0.00  0.00    -0.153 OA
BRANCH   9  12
ATOM     12  N   UNL     1      35.458 -17.097 -20.774  0.00  0.00    -0.203 NA
ATOM     13  H   UNL     1      35.879 -17.054 -19.845  0.00  0.00    +0.144 HD
ATOM     14  H   UNL     1      34.445 -17.019 -20.693  0.00  0.00    +0.144 HD
ENDBRANCH   9  12
ENDBRANCH   6   9
ENDBRANCH   1   5
BRANCH   1  15
ATOM     15  N   UNL     1      34.933 -22.811 -17.369  0.00  0.00    -0.174 NA
ATOM     16  H   UNL     1      35.207 -21.829 -17.336  0.00  0.00    +0.149 HD
BRANCH  15  17
ATOM     17  C   UNL     1      34.674 -23.240 -15.981  0.00  0.00    +0.124 C 
BRANCH  17  19
ATOM     18  S   UNL     1      37.329 -23.360 -15.239  0.00  0.00    -0.089 S 
ATOM     19  C   UNL     1      35.797 -24.074 -15.434  0.00  0.00    +0.025 C 
ATOM     20  C   UNL     1      35.756 -25.384 -15.053  0.00  0.00    +0.004 C 
ATOM     21  C   UNL     1      37.026 -25.826 -14.583  0.00  0.00    +0.007 C 
ATOM     22  C   UNL     1      37.973 -24.825 -14.630  0.00  0.00    +0.035 C 
ENDBRANCH  17  19
ENDBRANCH  15  17
ENDBRANCH   1  15
TORSDOF 6
ENDMDL
MODEL 8
REMARK VINA RESULT:      -8.1      9.338     11.252
REMARK  Name = 4293
REMARK  6 active torsions:
REMARK  status: ('A' for Active; 'I' for Inactive)
REMARK    1  A    between atoms: S_1  and  C_5
REMARK    2  A    between atoms: S_1  and  N_15
REMARK    3  A    between atoms: C_6  and  S_9
REMARK    4  A    between atoms: S_9  and  N_12
REMARK    5  A    between atoms: N_15  and  C_17
REMARK    6  A    between atoms: C_17  and  C_19
REMARK                            x       y       z     vdW  Elec       q    Type
REMARK                         _______ _______ _______ _____ _____    ______ ____
ROOT
ATOM      1  S   UNL     1      35.077 -18.486 -22.332  0.00  0.00    +0.066 S 
ATOM      2  O   UNL     1      36.407 -18.387 -21.763  0.00  0.00    -0.152 OA
ATOM      3  O   UNL     1      34.854 -19.101 -23.627  0.00  0.00    -0.152 OA
ENDROOT
BRANCH   1   5
ATOM      4  S   UNL     1      35.093 -20.720 -20.448  0.00  0.00    -0.047 S 
ATOM      5  C   UNL     1      34.150 -19.528 -21.206  0.00  0.00    +0.153 C 
ATOM      6  C   UNL     1      33.723 -21.294 -19.598  0.00  0.00    +0.152 C 
ATOM      7  C   UNL     1      32.846 -19.542 -20.846  0.00  0.00    +0.029 C 
ATOM      8  C   UNL     1      32.587 -20.577 -19.903  0.00  0.00    +0.028 C 
BRANCH   6   9
ATOM      9  S   UNL     1      34.036 -22.656 -18.531  0.00  0.00    +0.063 S 
ATOM     10  O   UNL     1      35.389 -22.520 -18.018  0.00  0.00    -0.153 OA
ATOM     11  O   UNL     1      32.914 -22.781 -17.617  0.00  0.00    -0.153 OA
BRANCH   9  12
ATOM     12  N   UNL     1      33.991 -23.945 -19.647  0.00  0.00    -0.203 NA
ATOM     13  H   UNL     1      34.933 -24.130 -19.992  0.00  0.00    +0.144 HD
ATOM     14  H   UNL     1      33.385 -23.697 -20.429  0.00  0.00    +0.144 HD
ENDBRANCH   9  12
ENDBRANCH   6   9
ENDBRANCH   1   5
BRANCH   1  15
ATOM     15  N   UNL     1      34.339 -16.939 -22.313  0.00  0.00    -0.174 NA
ATOM     16  H   UNL     1      34.286 -16.640 -21.339  0.00  0.00    +0.149 HD
BRANCH  15  17
ATOM     17  C   UNL     1      34.988 -15.852 -23.070  0.00  0.00    +0.124 C 
BRANCH  17  19
ATOM     18  S   UNL     1      33.450 -13.875 -24.227  0.00  0.00    -0.089 S 
ATOM     19  C   UNL     1      34.165 -15.419 -24.249  0.00  0.00    +0.025 C 
ATOM     20  C   UNL     1      33.899 -16.124 -25.386  0.00  0.00    +0.004 C 
ATOM     21  C   UNL     1      33.078 -15.376 -26.279  0.00  0.00    +0.007 C 
ATOM     22  C   UNL     1      32.760 -14.134 -25.772  0.00  0.00    +0.035 C 
ENDBRANCH  17  19
ENDBRANCH  15  17
ENDBRANCH   1  15
TORSDOF 6
ENDMDL
MODEL 9
REMARK VINA RESULT:      -8.0      4.551      8.032
REMARK  Name = 4293
REMARK  6 active torsions:
REMARK  status: ('A' for Active; 'I' for Inactive)
REMARK    1  A    between atoms: S_1  and  C_5
REMARK    2  A    between atoms: S_1  and  N_15
REMARK    3  A    between atoms: C_6  and  S_9
REMARK    4  A    between atoms: S_9  and  N_12
REMARK    5  A    between atoms: N_15  and  C_17
REMARK    6  A    between atoms: C_17  and  C_19
REMARK                            x       y       z     vdW  Elec       q    Type
REMARK                         _______ _______ _______ _____ _____    ______ ____
ROOT
ATOM      1  S   UNL     1      33.426 -23.984 -14.210  0.00  0.00    +0.066 S 
ATOM      2  O   UNL     1      33.821 -22.872 -15.052  0.00  0.00    -0.152 OA
ATOM      3  O   UNL     1      33.448 -23.881 -12.764  0.00  0.00    -0.152 OA
ENDROOT
BRANCH   1   5
ATOM      4  S   UNL     1      31.069 -23.232 -15.766  0.00  0.00    -0.047 S 
ATOM      5  C   UNL     1      31.699 -24.279 -14.585  0.00  0.00    +0.153 C 
ATOM      6  C   UNL     1      29.538 -23.990 -15.652  0.00  0.00    +0.152 C 
ATOM      7  C   UNL     1      30.805 -25.176 -14.108  0.00  0.00    +0.029 C 
ATOM      8  C   UNL     1      29.534 -25.012 -14.729  0.00  0.00    +0.028 C 
BRANCH   6   9
ATOM      9  S   UNL     1      28.306 -23.321 -16.713  0.00  0.00    +0.063 S 
ATOM     10  O   UNL     1      28.868 -22.155 -17.372  0.00  0.00    -0.153 OA
ATOM     11  O   UNL     1      27.747 -24.408 -17.497  0.00  0.00    -0.153 OA
BRANCH   9  12
ATOM     12  N   UNL     1      27.149 -22.809 -15.567  0.00  0.00    -0.203 NA
ATOM     13  H   UNL     1      26.434 -22.251 -16.032  0.00  0.00    +0.144 HD
ATOM     14  H   UNL     1      27.607 -22.247 -14.850  0.00  0.00    +0.144 HD
ENDBRANCH   9  12
ENDBRANCH   6   9
ENDBRANCH   1   5
BRANCH   1  15
ATOM     15  N   UNL     1      34.292 -25.386 -14.684  0.00  0.00    -0.174 NA
ATOM     16  H   UNL     1      33.769 -25.824 -15.442  0.00  0.00    +0.149 HD
BRANCH  15  17
ATOM     17  C   UNL     1      35.682 -25.216 -15.150  0.00  0.00    +0.124 C 
BRANCH  17  19
ATOM     18  S   UNL     1      37.207 -23.603 -13.512  0.00  0.00    -0.089 S 
ATOM     19  C   UNL     1      36.652 -25.133 -14.007  0.00  0.00    +0.025 C 
ATOM     20  C   UNL     1      37.173 -26.161 -13.277  0.00  0.00    +0.004 C 
ATOM     21  C   UNL     1      38.063 -25.684 -12.272  0.00  0.00    +0.007 C 
ATOM     22  C   UNL     1      38.173 -24.310 -12.288  0.00  0.00    +0.035 C 
ENDBRANCH  17  19
ENDBRANCH  15  17
ENDBRANCH   1  15
TORSDOF 6
ENDMDL
