MODEL 1
REMARK VINA RESULT:      -9.8      0.000      0.000
REMARK  Name = 54680692
REMARK  4 active torsions:
REMARK  status: ('A' for Active; 'I' for Inactive)
REMARK    1  A    between atoms: C_3  and  C_14
REMARK    2  A    between atoms: C_4  and  O_12
REMARK    3  A    between atoms: C_14  and  C_15
REMARK    4  A    between atoms: C_14  and  C_21
REMARK                            x       y       z     vdW  Elec       q    Type
REMARK                         _______ _______ _______ _____ _____    ______ ____
ROOT
ATOM      1  O   UNL     1      36.514 -20.132 -20.019  0.00  0.00    -0.421 OA
ATOM      2  O   UNL     1      36.878 -18.573 -21.636  0.00  0.00    -0.245 OA
ATOM      3  C   UNL     1      34.652 -19.395 -21.450  0.00  0.00    +0.091 A 
ATOM      4  C   UNL     1      33.814 -20.221 -20.795  0.00  0.00    +0.139 A 
ATOM      5  C   UNL     1      34.294 -21.064 -19.698  0.00  0.00    +0.068 A 
ATOM      6  C   UNL     1      36.091 -19.319 -21.063  0.00  0.00    +0.345 A 
ATOM      7  C   UNL     1      35.636 -20.994 -19.341  0.00  0.00    +0.152 A 
ATOM      8  C   UNL     1      33.471 -21.944 -18.981  0.00  0.00    +0.006 C 
ATOM      9  C   UNL     1      36.174 -21.763 -18.309  0.00  0.00    +0.038 C 
ATOM     10  C   UNL     1      33.995 -22.724 -17.943  0.00  0.00    +0.000 C 
ATOM     11  C   UNL     1      35.345 -22.633 -17.608  0.00  0.00    +0.003 C 
ENDROOT
BRANCH   4  12
ATOM     12  O   UNL     1      32.470 -20.355 -21.074  0.00  0.00    -0.506 OA
ATOM     13  H   UNL     1      31.832 -20.132 -20.425  0.00  0.00    +0.292 HD
ENDBRANCH   4  12
BRANCH   3  14
ATOM     14  C   UNL     1      34.275 -18.494 -22.595  0.00  0.00    +0.054 C 
BRANCH  14  15
ATOM     15  C   UNL     1      34.241 -17.043 -22.151  0.00  0.00    -0.018 C 
ATOM     16  C   UNL     1      33.785 -16.714 -20.875  0.00  0.00    -0.004 C 
ATOM     17  C   UNL     1      34.667 -16.038 -23.021  0.00  0.00    -0.004 C 
ATOM     18  C   UNL     1      33.753 -15.380 -20.468  0.00  0.00    -0.000 C 
ATOM     19  C   UNL     1      34.636 -14.704 -22.614  0.00  0.00    -0.000 C 
ATOM     20  C   UNL     1      34.179 -14.375 -21.338  0.00  0.00    -0.000 C 
ENDBRANCH  14  15
BRANCH  14  21
ATOM     21  C   UNL     1      35.197 -18.745 -23.806  0.00  0.00    +0.009 C 
ATOM     22  C   UNL     1      34.427 -19.061 -25.083  0.00  0.00    +0.001 C 
ENDBRANCH  14  21
ENDBRANCH   3  14
TORSDOF 4
ENDMDL
MODEL 2
REMARK VINA RESULT:      -9.3      2.296      6.424
REMARK  Name = 54680692
REMARK  4 active torsions:
REMARK  status: ('A' for Active; 'I' for Inactive)
REMARK    1  A    between atoms: C_3  and  C_14
REMARK    2  A    between atoms: C_4  and  O_12
REMARK    3  A    between atoms: C_14  and  C_15
REMARK    4  A    between atoms: C_14  and  C_21
REMARK                            x       y       z     vdW  Elec       q    Type
REMARK                         _______ _______ _______ _____ _____    ______ ____
ROOT
ATOM      1  O   UNL     1      34.055 -14.870 -22.139  0.00  0.00    -0.421 OA
ATOM      2  O   UNL     1      35.025 -15.829 -20.318  0.00  0.00    -0.245 OA
ATOM      3  C   UNL     1      35.101 -17.090 -22.336  0.00  0.00    +0.091 A 
ATOM      4  C   UNL     1      34.776 -17.134 -23.642  0.00  0.00    +0.139 A 
ATOM      5  C   UNL     1      34.057 -16.027 -24.276  0.00  0.00    +0.068 A 
ATOM      6  C   UNL     1      34.738 -15.902 -21.509  0.00  0.00    +0.345 A 
ATOM      7  C   UNL     1      33.716 -14.923 -23.502  0.00  0.00    +0.152 A 
ATOM      8  C   UNL     1      33.689 -16.016 -25.628  0.00  0.00    +0.006 C 
ATOM      9  C   UNL     1      33.030 -13.827 -24.027  0.00  0.00    +0.038 C 
ATOM     10  C   UNL     1      33.000 -14.925 -26.171  0.00  0.00    +0.000 C 
ATOM     11  C   UNL     1      32.672 -13.832 -25.371  0.00  0.00    +0.003 C 
ENDROOT
BRANCH   4  12
ATOM     12  O   UNL     1      35.073 -18.182 -24.488  0.00  0.00    -0.506 OA
ATOM     13  H   UNL     1      35.353 -18.011 -25.365  0.00  0.00    +0.292 HD
ENDBRANCH   4  12
BRANCH   3  14
ATOM     14  C   UNL     1      35.827 -18.169 -21.577  0.00  0.00    +0.054 C 
BRANCH  14  15
ATOM     15  C   UNL     1      34.846 -19.168 -20.991  0.00  0.00    -0.018 C 
ATOM     16  C   UNL     1      33.474 -18.953 -21.111  0.00  0.00    -0.004 C 
ATOM     17  C   UNL     1      35.319 -20.304 -20.333  0.00  0.00    -0.004 C 
ATOM     18  C   UNL     1      32.574 -19.871 -20.571  0.00  0.00    -0.000 C 
ATOM     19  C   UNL     1      34.419 -21.223 -19.794  0.00  0.00    -0.000 C 
ATOM     20  C   UNL     1      33.046 -21.007 -19.913  0.00  0.00    -0.000 C 
ENDBRANCH  14  15
BRANCH  14  21
ATOM     21  C   UNL     1      36.910 -18.817 -22.464  0.00  0.00    +0.009 C 
ATOM     22  C   UNL     1      38.303 -18.739 -21.851  0.00  0.00    +0.001 C 
ENDBRANCH  14  21
ENDBRANCH   3  14
TORSDOF 4
ENDMDL
MODEL 3
REMARK VINA RESULT:      -9.1      0.691      2.169
REMARK  Name = 54680692
REMARK  4 active torsions:
REMARK  status: ('A' for Active; 'I' for Inactive)
REMARK    1  A    between atoms: C_3  and  C_14
REMARK    2  A    between atoms: C_4  and  O_12
REMARK    3  A    between atoms: C_14  and  C_15
REMARK    4  A    between atoms: C_14  and  C_21
REMARK                            x       y       z     vdW  Elec       q    Type
REMARK                         _______ _______ _______ _____ _____    ______ ____
ROOT
ATOM      1  O   UNL     1      33.207 -21.155 -19.776  0.00  0.00    -0.421 OA
ATOM      2  O   UNL     1      32.054 -20.092 -21.425  0.00  0.00    -0.245 OA
ATOM      3  C   UNL     1      34.392 -19.657 -21.328  0.00  0.00    +0.091 A 
ATOM      4  C   UNL     1      35.554 -19.914 -20.698  0.00  0.00    +0.139 A 
ATOM      5  C   UNL     1      35.603 -20.821 -19.550  0.00  0.00    +0.068 A 
ATOM      6  C   UNL     1      33.128 -20.301 -20.868  0.00  0.00    +0.345 A 
ATOM      7  C   UNL     1      34.422 -21.417 -19.121  0.00  0.00    +0.152 A 
ATOM      8  C   UNL     1      36.780 -21.125 -18.853  0.00  0.00    +0.006 C 
ATOM      9  C   UNL     1      34.380 -22.293 -18.035  0.00  0.00    +0.038 C 
ATOM     10  C   UNL     1      36.756 -22.001 -17.761  0.00  0.00    +0.000 C 
ATOM     11  C   UNL     1      35.557 -22.584 -17.353  0.00  0.00    +0.003 C 
ENDROOT
BRANCH   4  12
ATOM     12  O   UNL     1      36.773 -19.374 -21.052  0.00  0.00    -0.506 OA
ATOM     13  H   UNL     1      37.486 -19.936 -21.281  0.00  0.00    +0.292 HD
ENDBRANCH   4  12
BRANCH   3  14
ATOM     14  C   UNL     1      34.220 -18.737 -22.507  0.00  0.00    +0.054 C 
BRANCH  14  15
ATOM     15  C   UNL     1      34.338 -17.285 -22.080  0.00  0.00    -0.018 C 
ATOM     16  C   UNL     1      34.312 -16.951 -20.726  0.00  0.00    -0.004 C 
ATOM     17  C   UNL     1      34.474 -16.284 -23.043  0.00  0.00    -0.004 C 
ATOM     18  C   UNL     1      34.421 -15.617 -20.334  0.00  0.00    -0.000 C 
ATOM     19  C   UNL     1      34.582 -14.950 -22.651  0.00  0.00    -0.000 C 
ATOM     20  C   UNL     1      34.555 -14.616 -21.297  0.00  0.00    -0.000 C 
ENDBRANCH  14  15
BRANCH  14  21
ATOM     21  C   UNL     1      35.191 -19.125 -23.641  0.00  0.00    +0.009 C 
ATOM     22  C   UNL     1      34.496 -19.282 -24.989  0.00  0.00    +0.001 C 
ENDBRANCH  14  21
ENDBRANCH   3  14
TORSDOF 4
ENDMDL
MODEL 4
REMARK VINA RESULT:      -8.9      8.584     11.787
REMARK  Name = 54680692
REMARK  4 active torsions:
REMARK  status: ('A' for Active; 'I' for Inactive)
REMARK    1  A    between atoms: C_3  and  C_14
REMARK    2  A    between atoms: C_4  and  O_12
REMARK    3  A    between atoms: C_14  and  C_15
REMARK    4  A    between atoms: C_14  and  C_21
REMARK                            x       y       z     vdW  Elec       q    Type
REMARK                         _______ _______ _______ _____ _____    ______ ____
ROOT
ATOM      1  O   UNL     1      32.358  -8.676 -19.569  0.00  0.00    -0.421 OA
ATOM      2  O   UNL     1      32.642  -6.420 -19.640  0.00  0.00    -0.245 OA
ATOM      3  C   UNL     1      31.979  -7.461 -21.675  0.00  0.00    +0.091 A 
ATOM      4  C   UNL     1      31.658  -8.615 -22.291  0.00  0.00    +0.139 A 
ATOM      5  C   UNL     1      31.674  -9.885 -21.562  0.00  0.00    +0.068 A 
ATOM      6  C   UNL     1      32.351  -7.455 -20.231  0.00  0.00    +0.345 A 
ATOM      7  C   UNL     1      32.025  -9.878 -20.217  0.00  0.00    +0.152 A 
ATOM      8  C   UNL     1      31.353 -11.117 -22.148  0.00  0.00    +0.006 C 
ATOM      9  C   UNL     1      32.066 -11.043 -19.451  0.00  0.00    +0.038 C 
ATOM     10  C   UNL     1      31.390 -12.296 -21.394  0.00  0.00    +0.000 C 
ATOM     11  C   UNL     1      31.746 -12.258 -20.047  0.00  0.00    +0.003 C 
ENDROOT
BRANCH   4  12
ATOM     12  O   UNL     1      31.295  -8.720 -23.617  0.00  0.00    -0.506 OA
ATOM     13  H   UNL     1      30.905  -7.990 -24.055  0.00  0.00    +0.292 HD
ENDBRANCH   4  12
BRANCH   3  14
ATOM     14  C   UNL     1      32.008  -6.102 -22.323  0.00  0.00    +0.054 C 
BRANCH  14  15
ATOM     15  C   UNL     1      32.864  -6.121 -23.576  0.00  0.00    -0.018 C 
ATOM     16  C   UNL     1      34.041  -6.868 -23.607  0.00  0.00    -0.004 C 
ATOM     17  C   UNL     1      32.472  -5.390 -24.699  0.00  0.00    -0.004 C 
ATOM     18  C   UNL     1      34.827  -6.884 -24.759  0.00  0.00    -0.000 C 
ATOM     19  C   UNL     1      33.258  -5.406 -25.851  0.00  0.00    -0.000 C 
ATOM     20  C   UNL     1      34.436  -6.153 -25.881  0.00  0.00    -0.000 C 
ENDBRANCH  14  15
BRANCH  14  21
ATOM     21  C   UNL     1      30.574  -5.588 -22.565  0.00  0.00    +0.009 C 
ATOM     22  C   UNL     1      29.999  -4.843 -21.366  0.00  0.00    +0.001 C 
ENDBRANCH  14  21
ENDBRANCH   3  14
TORSDOF 4
ENDMDL
MODEL 5
REMARK VINA RESULT:      -8.9      4.285      6.658
REMARK  Name = 54680692
REMARK  4 active torsions:
REMARK  status: ('A' for Active; 'I' for Inactive)
REMARK    1  A    between atoms: C_3  and  C_14
REMARK    2  A    between atoms: C_4  and  O_12
REMARK    3  A    between atoms: C_14  and  C_15
REMARK    4  A    between atoms: C_14  and  C_21
REMARK                            x       y       z     vdW  Elec       q    Type
REMARK                         _______ _______ _______ _____ _____    ______ ____
ROOT
ATOM      1  O   UNL     1      33.365 -15.790 -25.825  0.00  0.00    -0.421 OA
ATOM      2  O   UNL     1      32.470 -13.821 -26.529  0.00  0.00    -0.245 OA
ATOM      3  C   UNL     1      33.625 -13.767 -24.448  0.00  0.00    +0.091 A 
ATOM      4  C   UNL     1      34.323 -14.470 -23.536  0.00  0.00    +0.139 A 
ATOM      5  C   UNL     1      34.581 -15.899 -23.724  0.00  0.00    +0.068 A 
ATOM      6  C   UNL     1      33.104 -14.434 -25.676  0.00  0.00    +0.345 A 
ATOM      7  C   UNL     1      34.092 -16.519 -24.868  0.00  0.00    +0.152 A 
ATOM      8  C   UNL     1      35.298 -16.683 -22.810  0.00  0.00    +0.006 C 
ATOM      9  C   UNL     1      34.292 -17.876 -25.124  0.00  0.00    +0.038 C 
ATOM     10  C   UNL     1      35.508 -18.046 -23.051  0.00  0.00    +0.000 C 
ATOM     11  C   UNL     1      35.005 -18.641 -24.207  0.00  0.00    +0.003 C 
ENDROOT
BRANCH   4  12
ATOM     12  O   UNL     1      34.849 -13.941 -22.376  0.00  0.00    -0.506 OA
ATOM     13  H   UNL     1      35.648 -13.453 -22.404  0.00  0.00    +0.292 HD
ENDBRANCH   4  12
BRANCH   3  14
ATOM     14  C   UNL     1      33.290 -12.302 -24.355  0.00  0.00    +0.054 C 
BRANCH  14  15
ATOM     15  C   UNL     1      32.589 -11.991 -23.045  0.00  0.00    -0.018 C 
ATOM     16  C   UNL     1      32.208 -13.027 -22.194  0.00  0.00    -0.004 C 
ATOM     17  C   UNL     1      32.326 -10.666 -22.693  0.00  0.00    -0.004 C 
ATOM     18  C   UNL     1      31.563 -12.741 -20.991  0.00  0.00    -0.000 C 
ATOM     19  C   UNL     1      31.681 -10.380 -21.490  0.00  0.00    -0.000 C 
ATOM     20  C   UNL     1      31.300 -11.417 -20.639  0.00  0.00    -0.000 C 
ENDBRANCH  14  15
BRANCH  14  21
ATOM     21  C   UNL     1      34.548 -11.444 -24.598  0.00  0.00    +0.009 C 
ATOM     22  C   UNL     1      34.761 -11.106 -26.069  0.00  0.00    +0.001 C 
ENDBRANCH  14  21
ENDBRANCH   3  14
TORSDOF 4
ENDMDL
MODEL 6
REMARK VINA RESULT:      -8.7      2.238      6.312
REMARK  Name = 54680692
REMARK  4 active torsions:
REMARK  status: ('A' for Active; 'I' for Inactive)
REMARK    1  A    between atoms: C_3  and  C_14
REMARK    2  A    between atoms: C_4  and  O_12
REMARK    3  A    between atoms: C_14  and  C_15
REMARK    4  A    between atoms: C_14  and  C_21
REMARK                            x       y       z     vdW  Elec       q    Type
REMARK                         _______ _______ _______ _____ _____    ______ ____
ROOT
ATOM      1  O   UNL     1      33.975 -14.839 -20.358  0.00  0.00    -0.421 OA
ATOM      2  O   UNL     1      35.305 -16.634 -19.932  0.00  0.00    -0.245 OA
ATOM      3  C   UNL     1      34.565 -16.384 -22.180  0.00  0.00    +0.091 A 
ATOM      4  C   UNL     1      33.849 -15.643 -23.048  0.00  0.00    +0.139 A 
ATOM      5  C   UNL     1      33.143 -14.440 -22.605  0.00  0.00    +0.068 A 
ATOM      6  C   UNL     1      34.657 -15.984 -20.746  0.00  0.00    +0.345 A 
ATOM      7  C   UNL     1      33.227 -14.071 -21.267  0.00  0.00    +0.152 A 
ATOM      8  C   UNL     1      32.381 -13.631 -23.460  0.00  0.00    +0.006 C 
ATOM      9  C   UNL     1      32.584 -12.940 -20.764  0.00  0.00    +0.038 C 
ATOM     10  C   UNL     1      31.729 -12.493 -22.971  0.00  0.00    +0.000 C 
ATOM     11  C   UNL     1      31.831 -12.148 -21.624  0.00  0.00    +0.003 C 
ENDROOT
BRANCH   4  12
ATOM     12  O   UNL     1      33.711 -15.927 -24.391  0.00  0.00    -0.506 OA
ATOM     13  H   UNL     1      33.739 -15.235 -25.021  0.00  0.00    +0.292 HD
ENDBRANCH   4  12
BRANCH   3  14
ATOM     14  C   UNL     1      35.320 -17.642 -22.518  0.00  0.00    +0.054 C 
BRANCH  14  15
ATOM     15  C   UNL     1      34.867 -18.794 -21.640  0.00  0.00    -0.018 C 
ATOM     16  C   UNL     1      33.507 -19.045 -21.463  0.00  0.00    -0.004 C 
ATOM     17  C   UNL     1      35.814 -19.604 -21.011  0.00  0.00    -0.004 C 
ATOM     18  C   UNL     1      33.093 -20.104 -20.655  0.00  0.00    -0.000 C 
ATOM     19  C   UNL     1      35.399 -20.663 -20.204  0.00  0.00    -0.000 C 
ATOM     20  C   UNL     1      34.039 -20.913 -20.026  0.00  0.00    -0.000 C 
ENDBRANCH  14  15
BRANCH  14  21
ATOM     21  C   UNL     1      35.221 -17.942 -24.027  0.00  0.00    +0.009 C 
ATOM     22  C   UNL     1      34.890 -19.401 -24.322  0.00  0.00    +0.001 C 
ENDBRANCH  14  21
ENDBRANCH   3  14
TORSDOF 4
ENDMDL
MODEL 7
REMARK VINA RESULT:      -8.6      4.971      9.362
REMARK  Name = 54680692
REMARK  4 active torsions:
REMARK  status: ('A' for Active; 'I' for Inactive)
REMARK    1  A    between atoms: C_3  and  C_14
REMARK    2  A    between atoms: C_4  and  O_12
REMARK    3  A    between atoms: C_14  and  C_15
REMARK    4  A    between atoms: C_14  and  C_21
REMARK                            x       y       z     vdW  Elec       q    Type
REMARK                         _______ _______ _______ _____ _____    ______ ____
ROOT
ATOM      1  O   UNL     1      31.903 -11.011 -22.363  0.00  0.00    -0.421 OA
ATOM      2  O   UNL     1      31.782 -13.275 -22.559  0.00  0.00    -0.245 OA
ATOM      3  C   UNL     1      33.501 -12.201 -23.808  0.00  0.00    +0.091 A 
ATOM      4  C   UNL     1      34.092 -11.033 -24.126  0.00  0.00    +0.139 A 
ATOM      5  C   UNL     1      33.607  -9.769 -23.569  0.00  0.00    +0.068 A 
ATOM      6  C   UNL     1      32.339 -12.227 -22.873  0.00  0.00    +0.345 A 
ATOM      7  C   UNL     1      32.522  -9.795 -22.700  0.00  0.00    +0.152 A 
ATOM      8  C   UNL     1      34.179  -8.524 -23.864  0.00  0.00    +0.006 C 
ATOM      9  C   UNL     1      31.998  -8.637 -22.126  0.00  0.00    +0.038 C 
ATOM     10  C   UNL     1      33.665  -7.351 -23.298  0.00  0.00    +0.000 C 
ATOM     11  C   UNL     1      32.576  -7.409 -22.430  0.00  0.00    +0.003 C 
ENDROOT
BRANCH   4  12
ATOM     12  O   UNL     1      35.173 -10.909 -24.974  0.00  0.00    -0.506 OA
ATOM     13  H   UNL     1      35.611 -11.674 -25.290  0.00  0.00    +0.292 HD
ENDBRANCH   4  12
BRANCH   3  14
ATOM     14  C   UNL     1      33.904 -13.556 -24.326  0.00  0.00    +0.054 C 
BRANCH  14  15
ATOM     15  C   UNL     1      34.187 -14.509 -23.179  0.00  0.00    -0.018 C 
ATOM     16  C   UNL     1      34.484 -14.008 -21.912  0.00  0.00    -0.004 C 
ATOM     17  C   UNL     1      34.149 -15.887 -23.394  0.00  0.00    -0.004 C 
ATOM     18  C   UNL     1      34.745 -14.885 -20.859  0.00  0.00    -0.000 C 
ATOM     19  C   UNL     1      34.410 -16.764 -22.341  0.00  0.00    -0.000 C 
ATOM     20  C   UNL     1      34.708 -16.263 -21.073  0.00  0.00    -0.000 C 
ENDBRANCH  14  15
BRANCH  14  21
ATOM     21  C   UNL     1      32.854 -14.087 -25.323  0.00  0.00    +0.009 C 
ATOM     22  C   UNL     1      33.179 -13.738 -26.771  0.00  0.00    +0.001 C 
ENDBRANCH  14  21
ENDBRANCH   3  14
TORSDOF 4
ENDMDL
MODEL 8
REMARK VINA RESULT:      -8.5      2.173      6.294
REMARK  Name = 54680692
REMARK  4 active torsions:
REMARK  status: ('A' for Active; 'I' for Inactive)
REMARK    1  A    between atoms: C_3  and  C_14
REMARK    2  A    between atoms: C_4  and  O_12
REMARK    3  A    between atoms: C_14  and  C_15
REMARK    4  A    between atoms: C_14  and  C_21
REMARK                            x       y       z     vdW  Elec       q    Type
REMARK                         _______ _______ _______ _____ _____    ______ ____
ROOT
ATOM      1  O   UNL     1      33.682 -15.752 -23.729  0.00  0.00    -0.421 OA
ATOM      2  O   UNL     1      34.859 -17.668 -24.077  0.00  0.00    -0.245 OA
ATOM      3  C   UNL     1      34.813 -16.853 -21.841  0.00  0.00    +0.091 A 
ATOM      4  C   UNL     1      34.361 -15.898 -21.005  0.00  0.00    +0.139 A 
ATOM      5  C   UNL     1      33.532 -14.797 -21.500  0.00  0.00    +0.068 A 
ATOM      6  C   UNL     1      34.468 -16.810 -23.291  0.00  0.00    +0.345 A 
ATOM      7  C   UNL     1      33.216 -14.757 -22.853  0.00  0.00    +0.152 A 
ATOM      8  C   UNL     1      33.036 -13.774 -20.681  0.00  0.00    +0.006 C 
ATOM      9  C   UNL     1      32.433 -13.743 -23.406  0.00  0.00    +0.038 C 
ATOM     10  C   UNL     1      32.249 -12.748 -21.219  0.00  0.00    +0.000 C 
ATOM     11  C   UNL     1      31.948 -12.734 -22.580  0.00  0.00    +0.003 C 
ENDROOT
BRANCH   4  12
ATOM     12  O   UNL     1      34.620 -15.856 -19.651  0.00  0.00    -0.506 OA
ATOM     13  H   UNL     1      34.020 -16.247 -19.048  0.00  0.00    +0.292 HD
ENDBRANCH   4  12
BRANCH   3  14
ATOM     14  C   UNL     1      35.678 -18.021 -21.449  0.00  0.00    +0.054 C 
BRANCH  14  15
ATOM     15  C   UNL     1      34.834 -19.154 -20.893  0.00  0.00    -0.018 C 
ATOM     16  C   UNL     1      33.444 -19.104 -20.993  0.00  0.00    -0.004 C 
ATOM     17  C   UNL     1      35.451 -20.247 -20.281  0.00  0.00    -0.004 C 
ATOM     18  C   UNL     1      32.670 -20.146 -20.482  0.00  0.00    -0.000 C 
ATOM     19  C   UNL     1      34.676 -21.288 -19.770  0.00  0.00    -0.000 C 
ATOM     20  C   UNL     1      33.286 -21.238 -19.870  0.00  0.00    -0.000 C 
ENDBRANCH  14  15
BRANCH  14  21
ATOM     21  C   UNL     1      36.578 -18.446 -22.626  0.00  0.00    +0.009 C 
ATOM     22  C   UNL     1      38.021 -18.707 -22.207  0.00  0.00    +0.001 C 
ENDBRANCH  14  21
ENDBRANCH   3  14
TORSDOF 4
ENDMDL
MODEL 9
REMARK VINA RESULT:      -8.5      5.805      9.882
REMARK  Name = 54680692
REMARK  4 active torsions:
REMARK  status: ('A' for Active; 'I' for Inactive)
REMARK    1  A    between atoms: C_3  and  C_14
REMARK    2  A    between atoms: C_4  and  O_12
REMARK    3  A    between atoms: C_14  and  C_15
REMARK    4  A    between atoms: C_14  and  C_21
REMARK                            x       y       z     vdW  Elec       q    Type
REMARK                         _______ _______ _______ _____ _____    ______ ____
ROOT
ATOM      1  O   UNL     1      31.467  -9.689 -22.250  0.00  0.00    -0.421 OA
ATOM      2  O   UNL     1      30.484 -11.582 -21.460  0.00  0.00    -0.245 OA
ATOM      3  C   UNL     1      32.505 -11.878 -22.683  0.00  0.00    +0.091 A 
ATOM      4  C   UNL     1      33.507 -11.276 -23.352  0.00  0.00    +0.139 A 
ATOM      5  C   UNL     1      33.539  -9.821 -23.511  0.00  0.00    +0.068 A 
ATOM      6  C   UNL     1      31.408 -11.066 -22.081  0.00  0.00    +0.345 A 
ATOM      7  C   UNL     1      32.513  -9.067 -22.953  0.00  0.00    +0.152 A 
ATOM      8  C   UNL     1      34.553  -9.140 -24.198  0.00  0.00    +0.006 C 
ATOM      9  C   UNL     1      32.468  -7.677 -23.058  0.00  0.00    +0.038 C 
ATOM     10  C   UNL     1      34.523  -7.745 -24.315  0.00  0.00    +0.000 C 
ATOM     11  C   UNL     1      33.481  -7.015 -23.745  0.00  0.00    +0.003 C 
ENDROOT
BRANCH   4  12
ATOM     12  O   UNL     1      34.567 -11.939 -23.935  0.00  0.00    -0.506 OA
ATOM     13  H   UNL     1      34.414 -12.710 -24.445  0.00  0.00    +0.292 HD
ENDBRANCH   4  12
BRANCH   3  14
ATOM     14  C   UNL     1      32.362 -13.360 -22.467  0.00  0.00    +0.054 C 
BRANCH  14  15
ATOM     15  C   UNL     1      32.796 -14.129 -23.702  0.00  0.00    -0.018 C 
ATOM     16  C   UNL     1      32.314 -13.763 -24.957  0.00  0.00    -0.004 C 
ATOM     17  C   UNL     1      33.680 -15.202 -23.579  0.00  0.00    -0.004 C 
ATOM     18  C   UNL     1      32.713 -14.471 -26.091  0.00  0.00    -0.000 C 
ATOM     19  C   UNL     1      34.080 -15.909 -24.713  0.00  0.00    -0.000 C 
ATOM     20  C   UNL     1      33.596 -15.544 -25.969  0.00  0.00    -0.000 C 
ENDBRANCH  14  15
BRANCH  14  21
ATOM     21  C   UNL     1      33.098 -13.793 -21.182  0.00  0.00    +0.009 C 
ATOM     22  C   UNL     1      32.400 -14.936 -20.454  0.00  0.00    +0.001 C 
ENDBRANCH  14  21
ENDBRANCH   3  14
TORSDOF 4
ENDMDL
