MODEL 1
REMARK VINA RESULT:     -11.3      0.000      0.000
REMARK  Name = 46937117
REMARK  6 active torsions:
REMARK  status: ('A' for Active; 'I' for Inactive)
REMARK    1  A    between atoms: N_1  and  C_21
REMARK    2  A    between atoms: C_4  and  C_9
REMARK    3  A    between atoms: C_9  and  C_12
REMARK    4  A    between atoms: C_9  and  C_20
REMARK    5  A    between atoms: C_21  and  C_22
REMARK    6  A    between atoms: C_22  and  C_24
REMARK                            x       y       z     vdW  Elec       q    Type
REMARK                         _______ _______ _______ _____ _____    ______ ____
ROOT
ATOM      1  N   UNL     1      35.259 -17.064 -24.010  0.00  0.00    -0.268 N 
ATOM      2  N   UNL     1      33.822 -15.273 -23.527  0.00  0.00    -0.341 NA
ATOM      3  N   UNL     1      34.177 -15.997 -25.798  0.00  0.00    -0.170 NA
ATOM      4  C   UNL     1      32.984 -14.326 -24.000  0.00  0.00    +0.144 C 
ATOM      5  C   UNL     1      34.376 -16.062 -24.468  0.00  0.00    +0.144 C 
ATOM      6  C   UNL     1      32.697 -14.156 -25.339  0.00  0.00    +0.052 C 
ATOM      7  C   UNL     1      33.327 -15.029 -26.201  0.00  0.00    +0.114 C 
ATOM      8  H   UNL     1      35.680 -17.657 -24.672  0.00  0.00    +0.159 HD
ENDROOT
BRANCH   4   9
ATOM      9  C   UNL     1      32.327 -13.402 -22.960  0.00  0.00    +0.202 C 
BRANCH   9  12
ATOM     10  S   UNL     1      31.833 -10.774 -22.305  0.00  0.00    -0.056 S 
ATOM     11  N   UNL     1      33.759 -11.581 -23.819  0.00  0.00    -0.402 NA
ATOM     12  C   UNL     1      32.734 -11.987 -23.105  0.00  0.00    +0.159 C 
ATOM     13  C   UNL     1      32.888  -9.575 -22.955  0.00  0.00    +0.057 C 
ATOM     14  C   UNL     1      33.860 -10.199 -23.742  0.00  0.00    +0.120 C 
ATOM     15  C   UNL     1      32.857  -8.182 -22.780  0.00  0.00    +0.008 C 
ATOM     16  C   UNL     1      34.835  -9.399 -24.375  0.00  0.00    +0.085 C 
ATOM     17  C   UNL     1      33.834  -7.413 -23.417  0.00  0.00    -0.004 C 
ATOM     18  C   UNL     1      34.811  -8.012 -24.205  0.00  0.00    -0.019 C 
ENDBRANCH   9  12
BRANCH   9  20
ATOM     19  N   UNL     1      32.602 -14.352 -20.493  0.00  0.00    -0.195 NA
ATOM     20  C   UNL     1      32.480 -13.952 -21.576  0.00  0.00    +0.087 C 
ENDBRANCH   9  20
ENDBRANCH   4   9
BRANCH   1  21
ATOM     21  C   UNL     1      35.566 -17.252 -22.628  0.00  0.00    +0.103 C 
BRANCH  21  22
ATOM     22  C   UNL     1      36.057 -18.675 -22.366  0.00  0.00    +0.050 C 
BRANCH  22  24
ATOM     23  N   UNL     1      34.859 -21.176 -19.783  0.00  0.00    -0.243 NA
ATOM     24  C   UNL     1      35.135 -19.463 -21.467  0.00  0.00    -0.001 C 
ATOM     25  C   UNL     1      33.763 -19.236 -21.472  0.00  0.00    -0.001 C 
ATOM     26  C   UNL     1      35.628 -20.435 -20.612  0.00  0.00    +0.095 C 
ATOM     27  C   UNL     1      32.939 -19.978 -20.634  0.00  0.00    +0.020 C 
ATOM     28  C   UNL     1      33.530 -20.927 -19.816  0.00  0.00    +0.099 C 
ENDBRANCH  22  24
ENDBRANCH  21  22
ENDBRANCH   1  21
TORSDOF 6
ENDMDL
MODEL 2
REMARK VINA RESULT:     -11.3      2.383      9.008
REMARK  Name = 46937117
REMARK  6 active torsions:
REMARK  status: ('A' for Active; 'I' for Inactive)
REMARK    1  A    between atoms: N_1  and  C_21
REMARK    2  A    between atoms: C_4  and  C_9
REMARK    3  A    between atoms: C_9  and  C_12
REMARK    4  A    between atoms: C_9  and  C_20
REMARK    5  A    between atoms: C_21  and  C_22
REMARK    6  A    between atoms: C_22  and  C_24
REMARK                            x       y       z     vdW  Elec       q    Type
REMARK                         _______ _______ _______ _____ _____    ______ ____
ROOT
ATOM      1  N   UNL     1      33.242 -14.170 -25.400  0.00  0.00    -0.268 N 
ATOM      2  N   UNL     1      34.254 -15.466 -23.726  0.00  0.00    -0.341 NA
ATOM      3  N   UNL     1      33.726 -16.416 -25.877  0.00  0.00    -0.170 NA
ATOM      4  C   UNL     1      34.747 -16.667 -23.358  0.00  0.00    +0.144 C 
ATOM      5  C   UNL     1      33.767 -15.412 -24.980  0.00  0.00    +0.144 C 
ATOM      6  C   UNL     1      34.763 -17.774 -24.182  0.00  0.00    +0.052 C 
ATOM      7  C   UNL     1      34.235 -17.588 -25.443  0.00  0.00    +0.114 C 
ATOM      8  H   UNL     1      32.878 -14.097 -26.311  0.00  0.00    +0.159 HD
ENDROOT
BRANCH   4   9
ATOM      9  C   UNL     1      35.316 -16.775 -21.933  0.00  0.00    +0.202 C 
BRANCH   9  12
ATOM     10  S   UNL     1      36.483 -19.099 -21.029  0.00  0.00    -0.056 S 
ATOM     11  N   UNL     1      33.950 -18.613 -21.005  0.00  0.00    -0.402 NA
ATOM     12  C   UNL     1      35.119 -18.112 -21.332  0.00  0.00    +0.159 C 
ATOM     13  C   UNL     1      35.446 -20.323 -20.399  0.00  0.00    +0.057 C 
ATOM     14  C   UNL     1      34.121 -19.881 -20.468  0.00  0.00    +0.120 C 
ATOM     15  C   UNL     1      35.780 -21.585 -19.881  0.00  0.00    +0.008 C 
ATOM     16  C   UNL     1      33.097 -20.733 -20.002  0.00  0.00    +0.085 C 
ATOM     17  C   UNL     1      34.747 -22.409 -19.426  0.00  0.00    -0.004 C 
ATOM     18  C   UNL     1      33.423 -21.990 -19.485  0.00  0.00    -0.019 C 
ENDBRANCH   9  12
BRANCH   9  20
ATOM     19  N   UNL     1      34.516 -14.756 -20.402  0.00  0.00    -0.195 NA
ATOM     20  C   UNL     1      34.852 -15.637 -21.079  0.00  0.00    +0.087 C 
ENDBRANCH   9  20
ENDBRANCH   4   9
BRANCH   1  21
ATOM     21  C   UNL     1      33.218 -13.016 -24.559  0.00  0.00    +0.103 C 
BRANCH  21  22
ATOM     22  C   UNL     1      34.081 -11.897 -25.140  0.00  0.00    +0.050 C 
BRANCH  22  24
ATOM     23  N   UNL     1      32.736  -9.243 -22.794  0.00  0.00    -0.243 NA
ATOM     24  C   UNL     1      33.957 -10.599 -24.379  0.00  0.00    -0.001 C 
ATOM     25  C   UNL     1      34.896  -9.584 -24.536  0.00  0.00    -0.001 C 
ATOM     26  C   UNL     1      32.906 -10.381 -23.504  0.00  0.00    +0.095 C 
ATOM     27  C   UNL     1      34.755  -8.400 -23.823  0.00  0.00    +0.020 C 
ATOM     28  C   UNL     1      33.668  -8.279 -22.972  0.00  0.00    +0.099 C 
ENDBRANCH  22  24
ENDBRANCH  21  22
ENDBRANCH   1  21
TORSDOF 6
ENDMDL
MODEL 3
REMARK VINA RESULT:     -10.6      2.491      8.540
REMARK  Name = 46937117
REMARK  6 active torsions:
REMARK  status: ('A' for Active; 'I' for Inactive)
REMARK    1  A    between atoms: N_1  and  C_21
REMARK    2  A    between atoms: C_4  and  C_9
REMARK    3  A    between atoms: C_9  and  C_12
REMARK    4  A    between atoms: C_9  and  C_20
REMARK    5  A    between atoms: C_21  and  C_22
REMARK    6  A    between atoms: C_22  and  C_24
REMARK                            x       y       z     vdW  Elec       q    Type
REMARK                         _______ _______ _______ _____ _____    ______ ____
ROOT
ATOM      1  N   UNL     1      33.294 -14.271 -25.253  0.00  0.00    -0.268 N 
ATOM      2  N   UNL     1      34.274 -15.602 -23.587  0.00  0.00    -0.341 NA
ATOM      3  N   UNL     1      33.816 -16.498 -25.777  0.00  0.00    -0.170 NA
ATOM      4  C   UNL     1      34.769 -16.808 -23.238  0.00  0.00    +0.144 C 
ATOM      5  C   UNL     1      33.821 -15.518 -24.853  0.00  0.00    +0.144 C 
ATOM      6  C   UNL     1      34.821 -17.892 -24.092  0.00  0.00    +0.052 C 
ATOM      7  C   UNL     1      34.326 -17.676 -25.362  0.00  0.00    +0.114 C 
ATOM      8  H   UNL     1      32.955 -14.177 -26.172  0.00  0.00    +0.159 HD
ENDROOT
BRANCH   4   9
ATOM      9  C   UNL     1      35.299 -16.950 -21.802  0.00  0.00    +0.202 C 
BRANCH   9  12
ATOM     10  S   UNL     1      33.361 -18.744 -21.025  0.00  0.00    -0.056 S 
ATOM     11  N   UNL     1      35.902 -19.117 -20.778  0.00  0.00    -0.402 NA
ATOM     12  C   UNL     1      34.994 -18.266 -21.200  0.00  0.00    +0.159 C 
ATOM     13  C   UNL     1      33.881 -20.229 -20.320  0.00  0.00    +0.057 C 
ATOM     14  C   UNL     1      35.278 -20.248 -20.271  0.00  0.00    +0.120 C 
ATOM     15  C   UNL     1      33.108 -21.301 -19.845  0.00  0.00    +0.008 C 
ATOM     16  C   UNL     1      35.922 -21.380 -19.727  0.00  0.00    +0.085 C 
ATOM     17  C   UNL     1      33.771 -22.410 -19.311  0.00  0.00    -0.004 C 
ATOM     18  C   UNL     1      35.159 -22.450 -19.252  0.00  0.00    -0.019 C 
ENDBRANCH   9  12
BRANCH   9  20
ATOM     19  N   UNL     1      34.565 -14.872 -20.315  0.00  0.00    -0.195 NA
ATOM     20  C   UNL     1      34.901 -15.776 -20.961  0.00  0.00    +0.087 C 
ENDBRANCH   9  20
ENDBRANCH   4   9
BRANCH   1  21
ATOM     21  C   UNL     1      33.234 -13.141 -24.381  0.00  0.00    +0.103 C 
BRANCH  21  22
ATOM     22  C   UNL     1      32.314 -13.416 -23.192  0.00  0.00    +0.050 C 
BRANCH  22  24
ATOM     23  N   UNL     1      32.128  -9.798 -22.080  0.00  0.00    -0.243 NA
ATOM     24  C   UNL     1      32.098 -12.204 -22.318  0.00  0.00    -0.001 C 
ATOM     25  C   UNL     1      31.688 -12.337 -20.996  0.00  0.00    -0.001 C 
ATOM     26  C   UNL     1      32.302 -10.924 -22.808  0.00  0.00    +0.095 C 
ATOM     27  C   UNL     1      31.498 -11.203 -20.216  0.00  0.00    +0.020 C 
ATOM     28  C   UNL     1      31.729  -9.967 -20.800  0.00  0.00    +0.099 C 
ENDBRANCH  22  24
ENDBRANCH  21  22
ENDBRANCH   1  21
TORSDOF 6
ENDMDL
MODEL 4
REMARK VINA RESULT:     -10.2      8.426     13.315
REMARK  Name = 46937117
REMARK  6 active torsions:
REMARK  status: ('A' for Active; 'I' for Inactive)
REMARK    1  A    between atoms: N_1  and  C_21
REMARK    2  A    between atoms: C_4  and  C_9
REMARK    3  A    between atoms: C_9  and  C_12
REMARK    4  A    between atoms: C_9  and  C_20
REMARK    5  A    between atoms: C_21  and  C_22
REMARK    6  A    between atoms: C_22  and  C_24
REMARK                            x       y       z     vdW  Elec       q    Type
REMARK                         _______ _______ _______ _____ _____    ______ ____
ROOT
ATOM      1  N   UNL     1      37.859 -22.829 -16.385  0.00  0.00    -0.268 N 
ATOM      2  N   UNL     1      36.733 -23.885 -14.619  0.00  0.00    -0.341 NA
ATOM      3  N   UNL     1      39.104 -24.182 -14.927  0.00  0.00    -0.170 NA
ATOM      4  C   UNL     1      36.808 -24.697 -13.544  0.00  0.00    +0.144 C 
ATOM      5  C   UNL     1      37.901 -23.674 -15.255  0.00  0.00    +0.144 C 
ATOM      6  C   UNL     1      37.979 -25.281 -13.105  0.00  0.00    +0.052 C 
ATOM      7  C   UNL     1      39.107 -24.985 -13.842  0.00  0.00    +0.114 C 
ATOM      8  H   UNL     1      38.697 -22.654 -16.873  0.00  0.00    +0.159 HD
ENDROOT
BRANCH   4   9
ATOM      9  C   UNL     1      35.497 -24.966 -12.785  0.00  0.00    +0.202 C 
BRANCH   9  12
ATOM     10  S   UNL     1      34.294 -24.484 -15.214  0.00  0.00    -0.056 S 
ATOM     11  N   UNL     1      33.222 -24.012 -12.915  0.00  0.00    -0.402 NA
ATOM     12  C   UNL     1      34.302 -24.472 -13.503  0.00  0.00    +0.159 C 
ATOM     13  C   UNL     1      32.704 -23.817 -15.200  0.00  0.00    +0.057 C 
ATOM     14  C   UNL     1      32.295 -23.633 -13.876  0.00  0.00    +0.120 C 
ATOM     15  C   UNL     1      31.878 -23.479 -16.285  0.00  0.00    +0.008 C 
ATOM     16  C   UNL     1      31.015 -23.093 -13.630  0.00  0.00    +0.085 C 
ATOM     17  C   UNL     1      30.614 -22.947 -16.014  0.00  0.00    -0.004 C 
ATOM     18  C   UNL     1      30.187 -22.756 -14.705  0.00  0.00    -0.019 C 
ENDBRANCH   9  12
BRANCH   9  20
ATOM     19  N   UNL     1      35.680 -24.190 -10.249  0.00  0.00    -0.195 NA
ATOM     20  C   UNL     1      35.596 -24.514 -11.361  0.00  0.00    +0.087 C 
ENDBRANCH   9  20
ENDBRANCH   4   9
BRANCH   1  21
ATOM     21  C   UNL     1      36.655 -22.218 -16.852  0.00  0.00    +0.103 C 
BRANCH  21  22
ATOM     22  C   UNL     1      36.806 -21.744 -18.296  0.00  0.00    +0.050 C 
BRANCH  22  24
ATOM     23  N   UNL     1      33.142 -22.049 -19.212  0.00  0.00    -0.243 NA
ATOM     24  C   UNL     1      35.483 -21.493 -18.978  0.00  0.00    -0.001 C 
ATOM     25  C   UNL     1      35.358 -20.520 -19.964  0.00  0.00    -0.001 C 
ATOM     26  C   UNL     1      34.355 -22.223 -18.641  0.00  0.00    +0.095 C 
ATOM     27  C   UNL     1      34.127 -20.312 -20.575  0.00  0.00    +0.020 C 
ATOM     28  C   UNL     1      33.059 -21.096 -20.166  0.00  0.00    +0.099 C 
ENDBRANCH  22  24
ENDBRANCH  21  22
ENDBRANCH   1  21
TORSDOF 6
ENDMDL
MODEL 5
REMARK VINA RESULT:     -10.0      1.512      2.879
REMARK  Name = 46937117
REMARK  6 active torsions:
REMARK  status: ('A' for Active; 'I' for Inactive)
REMARK    1  A    between atoms: N_1  and  C_21
REMARK    2  A    between atoms: C_4  and  C_9
REMARK    3  A    between atoms: C_9  and  C_12
REMARK    4  A    between atoms: C_9  and  C_20
REMARK    5  A    between atoms: C_21  and  C_22
REMARK    6  A    between atoms: C_22  and  C_24
REMARK                            x       y       z     vdW  Elec       q    Type
REMARK                         _______ _______ _______ _____ _____    ______ ____
ROOT
ATOM      1  N   UNL     1      34.395 -16.821 -21.010  0.00  0.00    -0.268 N 
ATOM      2  N   UNL     1      34.106 -14.968 -22.420  0.00  0.00    -0.341 NA
ATOM      3  N   UNL     1      32.908 -15.136 -20.336  0.00  0.00    -0.170 NA
ATOM      4  C   UNL     1      33.492 -13.786 -22.635  0.00  0.00    +0.144 C 
ATOM      5  C   UNL     1      33.772 -15.580 -21.268  0.00  0.00    +0.144 C 
ATOM      6  C   UNL     1      32.587 -13.221 -21.759  0.00  0.00    +0.052 C 
ATOM      7  C   UNL     1      32.331 -13.948 -20.614  0.00  0.00    +0.114 C 
ATOM      8  H   UNL     1      34.172 -17.294 -20.176  0.00  0.00    +0.159 HD
ENDROOT
BRANCH   4   9
ATOM      9  C   UNL     1      33.844 -13.049 -23.939  0.00  0.00    +0.202 C 
BRANCH   9  12
ATOM     10  S   UNL     1      34.893 -10.566 -24.500  0.00  0.00    -0.056 S 
ATOM     11  N   UNL     1      32.672 -10.984 -23.255  0.00  0.00    -0.402 NA
ATOM     12  C   UNL     1      33.688 -11.582 -23.834  0.00  0.00    +0.159 C 
ATOM     13  C   UNL     1      34.001  -9.185 -23.981  0.00  0.00    +0.057 C 
ATOM     14  C   UNL     1      32.837  -9.609 -23.332  0.00  0.00    +0.120 C 
ATOM     15  C   UNL     1      34.309  -7.824 -24.137  0.00  0.00    +0.008 C 
ATOM     16  C   UNL     1      31.952  -8.635 -22.822  0.00  0.00    +0.085 C 
ATOM     17  C   UNL     1      33.416  -6.880 -23.624  0.00  0.00    -0.004 C 
ATOM     18  C   UNL     1      32.253  -7.278 -22.974  0.00  0.00    -0.019 C 
ENDBRANCH   9  12
BRANCH   9  20
ATOM     19  N   UNL     1      32.630 -14.149 -26.032  0.00  0.00    -0.195 NA
ATOM     20  C   UNL     1      33.146 -13.665 -25.112  0.00  0.00    +0.087 C 
ENDBRANCH   9  20
ENDBRANCH   4   9
BRANCH   1  21
ATOM     21  C   UNL     1      35.333 -17.418 -21.907  0.00  0.00    +0.103 C 
BRANCH  21  22
ATOM     22  C   UNL     1      34.812 -18.754 -22.434  0.00  0.00    +0.050 C 
BRANCH  22  24
ATOM     23  N   UNL     1      32.756 -20.825 -20.017  0.00  0.00    -0.243 NA
ATOM     24  C   UNL     1      34.460 -19.726 -21.334  0.00  0.00    -0.001 C 
ATOM     25  C   UNL     1      35.450 -20.408 -20.636  0.00  0.00    -0.001 C 
ATOM     26  C   UNL     1      33.140 -19.969 -20.990  0.00  0.00    +0.095 C 
ATOM     27  C   UNL     1      35.095 -21.297 -19.628  0.00  0.00    +0.020 C 
ATOM     28  C   UNL     1      33.746 -21.469 -19.359  0.00  0.00    +0.099 C 
ENDBRANCH  22  24
ENDBRANCH  21  22
ENDBRANCH   1  21
TORSDOF 6
ENDMDL
MODEL 6
REMARK VINA RESULT:      -9.9      9.598     13.112
REMARK  Name = 46937117
REMARK  6 active torsions:
REMARK  status: ('A' for Active; 'I' for Inactive)
REMARK    1  A    between atoms: N_1  and  C_21
REMARK    2  A    between atoms: C_4  and  C_9
REMARK    3  A    between atoms: C_9  and  C_12
REMARK    4  A    between atoms: C_9  and  C_20
REMARK    5  A    between atoms: C_21  and  C_22
REMARK    6  A    between atoms: C_22  and  C_24
REMARK                            x       y       z     vdW  Elec       q    Type
REMARK                         _______ _______ _______ _____ _____    ______ ____
ROOT
ATOM      1  N   UNL     1      33.181 -24.673 -12.980  0.00  0.00    -0.268 N 
ATOM      2  N   UNL     1      35.313 -24.115 -13.784  0.00  0.00    -0.341 NA
ATOM      3  N   UNL     1      34.914 -24.394 -11.424  0.00  0.00    -0.170 NA
ATOM      4  C   UNL     1      36.602 -23.837 -13.496  0.00  0.00    +0.144 C 
ATOM      5  C   UNL     1      34.536 -24.379 -12.716  0.00  0.00    +0.144 C 
ATOM      6  C   UNL     1      37.114 -23.819 -12.214  0.00  0.00    +0.052 C 
ATOM      7  C   UNL     1      36.216 -24.108 -11.208  0.00  0.00    +0.114 C 
ATOM      8  H   UNL     1      32.586 -24.871 -12.221  0.00  0.00    +0.159 HD
ENDROOT
BRANCH   4   9
ATOM      9  C   UNL     1      37.527 -23.530 -14.685  0.00  0.00    +0.202 C 
BRANCH   9  12
ATOM     10  S   UNL     1      37.587 -21.969 -16.952  0.00  0.00    -0.056 S 
ATOM     11  N   UNL     1      35.558 -23.355 -16.168  0.00  0.00    -0.402 NA
ATOM     12  C   UNL     1      36.797 -23.034 -15.872  0.00  0.00    +0.159 C 
ATOM     13  C   UNL     1      36.163 -21.911 -17.922  0.00  0.00    +0.057 C 
ATOM     14  C   UNL     1      35.180 -22.719 -17.341  0.00  0.00    +0.120 C 
ATOM     15  C   UNL     1      35.931 -21.202 -19.112  0.00  0.00    +0.008 C 
ATOM     16  C   UNL     1      33.923 -22.818 -17.975  0.00  0.00    +0.085 C 
ATOM     17  C   UNL     1      34.679 -21.318 -19.719  0.00  0.00    -0.004 C 
ATOM     18  C   UNL     1      33.686 -22.115 -19.160  0.00  0.00    -0.019 C 
ENDBRANCH   9  12
BRANCH   9  20
ATOM     19  N   UNL     1      39.164 -25.572 -15.147  0.00  0.00    -0.195 NA
ATOM     20  C   UNL     1      38.452 -24.675 -14.960  0.00  0.00    +0.087 C 
ENDBRANCH   9  20
ENDBRANCH   4   9
BRANCH   1  21
ATOM     21  C   UNL     1      32.636 -24.695 -14.301  0.00  0.00    +0.103 C 
BRANCH  21  22
ATOM     22  C   UNL     1      32.059 -23.331 -14.677  0.00  0.00    +0.050 C 
BRANCH  22  24
ATOM     23  N   UNL     1      29.251 -22.556 -17.100  0.00  0.00    -0.243 NA
ATOM     24  C   UNL     1      30.742 -23.427 -15.408  0.00  0.00    -0.001 C 
ATOM     25  C   UNL     1      29.822 -24.424 -15.100  0.00  0.00    -0.001 C 
ATOM     26  C   UNL     1      30.412 -22.527 -16.408  0.00  0.00    +0.095 C 
ATOM     27  C   UNL     1      28.617 -24.486 -15.790  0.00  0.00    +0.020 C 
ATOM     28  C   UNL     1      28.381 -23.537 -16.772  0.00  0.00    +0.099 C 
ENDBRANCH  22  24
ENDBRANCH  21  22
ENDBRANCH   1  21
TORSDOF 6
ENDMDL
MODEL 7
REMARK VINA RESULT:      -9.8      3.069      9.766
REMARK  Name = 46937117
REMARK  6 active torsions:
REMARK  status: ('A' for Active; 'I' for Inactive)
REMARK    1  A    between atoms: N_1  and  C_21
REMARK    2  A    between atoms: C_4  and  C_9
REMARK    3  A    between atoms: C_9  and  C_12
REMARK    4  A    between atoms: C_9  and  C_20
REMARK    5  A    between atoms: C_21  and  C_22
REMARK    6  A    between atoms: C_22  and  C_24
REMARK                            x       y       z     vdW  Elec       q    Type
REMARK                         _______ _______ _______ _____ _____    ______ ____
ROOT
ATOM      1  N   UNL     1      32.032  -8.498 -20.295  0.00  0.00    -0.268 N 
ATOM      2  N   UNL     1      32.533 -10.030 -22.000  0.00  0.00    -0.341 NA
ATOM      3  N   UNL     1      31.217 -10.689 -20.092  0.00  0.00    -0.170 NA
ATOM      4  C   UNL     1      32.408 -11.288 -22.473  0.00  0.00    +0.144 C 
ATOM      5  C   UNL     1      31.922  -9.803 -20.822  0.00  0.00    +0.144 C 
ATOM      6  C   UNL     1      31.713 -12.286 -21.822  0.00  0.00    +0.052 C 
ATOM      7  C   UNL     1      31.131 -11.926 -20.624  0.00  0.00    +0.114 C 
ATOM      8  H   UNL     1      31.597  -8.299 -19.435  0.00  0.00    +0.159 HD
ENDROOT
BRANCH   4   9
ATOM      9  C   UNL     1      33.089 -11.592 -23.818  0.00  0.00    +0.202 C 
BRANCH   9  12
ATOM     10  S   UNL     1      33.067 -13.853 -25.390  0.00  0.00    -0.056 S 
ATOM     11  N   UNL     1      34.139 -13.692 -23.048  0.00  0.00    -0.402 NA
ATOM     12  C   UNL     1      33.482 -13.012 -23.959  0.00  0.00    +0.159 C 
ATOM     13  C   UNL     1      33.825 -15.269 -24.764  0.00  0.00    +0.057 C 
ATOM     14  C   UNL     1      34.344 -14.990 -23.496  0.00  0.00    +0.120 C 
ATOM     15  C   UNL     1      33.952 -16.538 -25.354  0.00  0.00    +0.008 C 
ATOM     16  C   UNL     1      35.012 -16.016 -22.796  0.00  0.00    +0.085 C 
ATOM     17  C   UNL     1      34.619 -17.536 -24.639  0.00  0.00    -0.004 C 
ATOM     18  C   UNL     1      35.142 -17.281 -23.377  0.00  0.00    -0.019 C 
ENDBRANCH   9  12
BRANCH   9  20
ATOM     19  N   UNL     1      35.037  -9.847 -24.293  0.00  0.00    -0.195 NA
ATOM     20  C   UNL     1      34.188 -10.614 -24.101  0.00  0.00    +0.087 C 
ENDBRANCH   9  20
ENDBRANCH   4   9
BRANCH   1  21
ATOM     21  C   UNL     1      32.749  -7.454 -20.957  0.00  0.00    +0.103 C 
BRANCH  21  22
ATOM     22  C   UNL     1      31.897  -6.191 -21.067  0.00  0.00    +0.050 C 
BRANCH  22  24
ATOM     23  N   UNL     1      30.838  -4.072 -24.025  0.00  0.00    -0.243 NA
ATOM     24  C   UNL     1      31.777  -5.679 -22.482  0.00  0.00    -0.001 C 
ATOM     25  C   UNL     1      32.456  -6.297 -23.528  0.00  0.00    -0.001 C 
ATOM     26  C   UNL     1      30.989  -4.580 -22.781  0.00  0.00    +0.095 C 
ATOM     27  C   UNL     1      32.326  -5.804 -24.821  0.00  0.00    +0.020 C 
ATOM     28  C   UNL     1      31.512  -4.698 -25.015  0.00  0.00    +0.099 C 
ENDBRANCH  22  24
ENDBRANCH  21  22
ENDBRANCH   1  21
TORSDOF 6
ENDMDL
MODEL 8
REMARK VINA RESULT:      -9.8      3.624      6.772
REMARK  Name = 46937117
REMARK  6 active torsions:
REMARK  status: ('A' for Active; 'I' for Inactive)
REMARK    1  A    between atoms: N_1  and  C_21
REMARK    2  A    between atoms: C_4  and  C_9
REMARK    3  A    between atoms: C_9  and  C_12
REMARK    4  A    between atoms: C_9  and  C_20
REMARK    5  A    between atoms: C_21  and  C_22
REMARK    6  A    between atoms: C_22  and  C_24
REMARK                            x       y       z     vdW  Elec       q    Type
REMARK                         _______ _______ _______ _____ _____    ______ ____
ROOT
ATOM      1  N   UNL     1      35.102 -22.008 -18.783  0.00  0.00    -0.268 N 
ATOM      2  N   UNL     1      35.352 -20.057 -20.064  0.00  0.00    -0.341 NA
ATOM      3  N   UNL     1      33.238 -21.209 -19.963  0.00  0.00    -0.170 NA
ATOM      4  C   UNL     1      34.779 -19.155 -20.887  0.00  0.00    +0.144 C 
ATOM      5  C   UNL     1      34.536 -21.044 -19.646  0.00  0.00    +0.144 C 
ATOM      6  C   UNL     1      33.460 -19.211 -21.287  0.00  0.00    +0.052 C 
ATOM      7  C   UNL     1      32.729 -20.270 -20.789  0.00  0.00    +0.114 C 
ATOM      8  H   UNL     1      34.532 -22.742 -18.460  0.00  0.00    +0.159 HD
ENDROOT
BRANCH   4   9
ATOM      9  C   UNL     1      35.674 -18.008 -21.388  0.00  0.00    +0.202 C 
BRANCH   9  12
ATOM     10  S   UNL     1      34.967 -17.807 -24.042  0.00  0.00    -0.056 S 
ATOM     11  N   UNL     1      34.501 -16.011 -22.249  0.00  0.00    -0.402 NA
ATOM     12  C   UNL     1      35.034 -17.196 -22.446  0.00  0.00    +0.159 C 
ATOM     13  C   UNL     1      34.152 -16.375 -24.546  0.00  0.00    +0.057 C 
ATOM     14  C   UNL     1      33.990 -15.528 -23.445  0.00  0.00    +0.120 C 
ATOM     15  C   UNL     1      33.688 -16.025 -25.825  0.00  0.00    +0.008 C 
ATOM     16  C   UNL     1      33.342 -14.288 -23.633  0.00  0.00    +0.085 C 
ATOM     17  C   UNL     1      33.049 -14.792 -25.983  0.00  0.00    -0.004 C 
ATOM     18  C   UNL     1      32.878 -13.934 -24.903  0.00  0.00    -0.019 C 
ENDBRANCH   9  12
BRANCH   9  20
ATOM     19  N   UNL     1      38.115 -18.885 -21.971  0.00  0.00    -0.195 NA
ATOM     20  C   UNL     1      37.045 -18.504 -21.732  0.00  0.00    +0.087 C 
ENDBRANCH   9  20
ENDBRANCH   4   9
BRANCH   1  21
ATOM     21  C   UNL     1      36.466 -21.963 -18.361  0.00  0.00    +0.103 C 
BRANCH  21  22
ATOM     22  C   UNL     1      36.566 -21.644 -16.870  0.00  0.00    +0.050 C 
BRANCH  22  24
ATOM     23  N   UNL     1      37.687 -24.558 -14.724  0.00  0.00    -0.243 NA
ATOM     24  C   UNL     1      36.510 -22.874 -15.997  0.00  0.00    -0.001 C 
ATOM     25  C   UNL     1      35.293 -23.456 -15.657  0.00  0.00    -0.001 C 
ATOM     26  C   UNL     1      37.667 -23.457 -15.508  0.00  0.00    +0.095 C 
ATOM     27  C   UNL     1      35.273 -24.589 -14.852  0.00  0.00    +0.020 C 
ATOM     28  C   UNL     1      36.486 -25.097 -14.414  0.00  0.00    +0.099 C 
ENDBRANCH  22  24
ENDBRANCH  21  22
ENDBRANCH   1  21
TORSDOF 6
ENDMDL
MODEL 9
REMARK VINA RESULT:      -9.7      6.197     10.158
REMARK  Name = 46937117
REMARK  6 active torsions:
REMARK  status: ('A' for Active; 'I' for Inactive)
REMARK    1  A    between atoms: N_1  and  C_21
REMARK    2  A    between atoms: C_4  and  C_9
REMARK    3  A    between atoms: C_9  and  C_12
REMARK    4  A    between atoms: C_9  and  C_20
REMARK    5  A    between atoms: C_21  and  C_22
REMARK    6  A    between atoms: C_22  and  C_24
REMARK                            x       y       z     vdW  Elec       q    Type
REMARK                         _______ _______ _______ _____ _____    ______ ____
ROOT
ATOM      1  N   UNL     1      35.913 -23.839 -14.297  0.00  0.00    -0.268 N 
ATOM      2  N   UNL     1      35.279 -23.127 -16.441  0.00  0.00    -0.341 NA
ATOM      3  N   UNL     1      37.349 -22.387 -15.453  0.00  0.00    -0.170 NA
ATOM      4  C   UNL     1      35.580 -22.390 -17.531  0.00  0.00    +0.144 C 
ATOM      5  C   UNL     1      36.194 -23.080 -15.454  0.00  0.00    +0.144 C 
ATOM      6  C   UNL     1      36.729 -21.636 -17.654  0.00  0.00    +0.052 C 
ATOM      7  C   UNL     1      37.586 -21.673 -16.573  0.00  0.00    +0.114 C 
ATOM      8  H   UNL     1      36.562 -23.826 -13.557  0.00  0.00    +0.159 HD
ENDROOT
BRANCH   4   9
ATOM      9  C   UNL     1      34.563 -22.415 -18.685  0.00  0.00    +0.202 C 
BRANCH   9  12
ATOM     10  S   UNL     1      33.290 -20.524 -20.229  0.00  0.00    -0.056 S 
ATOM     11  N   UNL     1      35.848 -20.746 -19.978  0.00  0.00    -0.402 NA
ATOM     12  C   UNL     1      34.700 -21.261 -19.601  0.00  0.00    +0.159 C 
ATOM     13  C   UNL     1      34.274 -19.403 -21.095  0.00  0.00    +0.057 C 
ATOM     14  C   UNL     1      35.620 -19.679 -20.835  0.00  0.00    +0.120 C 
ATOM     15  C   UNL     1      33.883 -18.354 -21.943  0.00  0.00    +0.008 C 
ATOM     16  C   UNL     1      36.607 -18.877 -21.446  0.00  0.00    +0.085 C 
ATOM     17  C   UNL     1      34.880 -17.574 -22.535  0.00  0.00    -0.004 C 
ATOM     18  C   UNL     1      36.225 -17.831 -22.291  0.00  0.00    -0.019 C 
ENDBRANCH   9  12
BRANCH   9  20
ATOM     19  N   UNL     1      32.103 -22.802 -17.757  0.00  0.00    -0.195 NA
ATOM     20  C   UNL     1      33.173 -22.640 -18.176  0.00  0.00    +0.087 C 
ENDBRANCH   9  20
ENDBRANCH   4   9
BRANCH   1  21
ATOM     21  C   UNL     1      34.727 -24.623 -14.155  0.00  0.00    +0.103 C 
BRANCH  21  22
ATOM     22  C   UNL     1      33.698 -23.906 -13.283  0.00  0.00    +0.050 C 
BRANCH  22  24
ATOM     23  N   UNL     1      30.388 -25.304 -14.485  0.00  0.00    -0.243 NA
ATOM     24  C   UNL     1      32.299 -23.968 -13.847  0.00  0.00    -0.001 C 
ATOM     25  C   UNL     1      31.632 -22.813 -14.241  0.00  0.00    -0.001 C 
ATOM     26  C   UNL     1      31.638 -25.178 -13.987  0.00  0.00    +0.095 C 
ATOM     27  C   UNL     1      30.345 -22.902 -14.757  0.00  0.00    +0.020 C 
ATOM     28  C   UNL     1      29.772 -24.160 -14.858  0.00  0.00    +0.099 C 
ENDBRANCH  22  24
ENDBRANCH  21  22
ENDBRANCH   1  21
TORSDOF 6
ENDMDL
