MODEL 1
REMARK VINA RESULT:      -9.0      0.000      0.000
REMARK  Name = 24741806
REMARK  1 active torsions:
REMARK  status: ('A' for Active; 'I' for Inactive)
REMARK    1  A    between atoms: N_6  and  C_14
REMARK                            x       y       z     vdW  Elec       q    Type
REMARK                         _______ _______ _______ _____ _____    ______ ____
ROOT
ATOM      1  O   UNL     1      36.971 -21.810 -18.764  0.00  0.00    -0.209 OA
ATOM      2  N   UNL     1      36.299 -17.928 -22.241  0.00  0.00    -0.305 N 
ATOM      3  N   UNL     1      33.052 -21.410 -19.485  0.00  0.00    -0.275 N 
ATOM      4  N   UNL     1      34.118 -17.731 -22.620  0.00  0.00    -0.305 N 
ATOM      5  N   UNL     1      34.832 -22.512 -18.351  0.00  0.00    -0.302 NA
ATOM      6  N   UNL     1      32.592 -23.121 -18.027  0.00  0.00    -0.320 N 
ATOM      7  C   UNL     1      35.704 -18.884 -21.456  0.00  0.00    +0.061 C 
ATOM      8  C   UNL     1      33.921 -20.548 -20.161  0.00  0.00    +0.064 C 
ATOM      9  C   UNL     1      35.300 -20.662 -19.931  0.00  0.00    +0.110 C 
ATOM     10  C   UNL     1      34.344 -18.740 -21.710  0.00  0.00    +0.061 C 
ATOM     11  C   UNL     1      36.229 -19.830 -20.575  0.00  0.00    +0.030 C 
ATOM     12  C   UNL     1      33.429 -19.583 -21.055  0.00  0.00    +0.031 C 
ATOM     13  C   UNL     1      35.311 -17.267 -22.915  0.00  0.00    +0.204 C 
ATOM     14  C   UNL     1      35.767 -21.704 -18.972  0.00  0.00    +0.208 C 
ATOM     15  C   UNL     1      33.562 -22.347 -18.614  0.00  0.00    +0.248 C 
ATOM     16  H   UNL     1      37.265 -17.750 -22.305  0.00  0.00    +0.150 HD
ATOM     17  H   UNL     1      32.081 -21.349 -19.631  0.00  0.00    +0.156 HD
ATOM     18  H   UNL     1      33.252 -17.425 -22.972  0.00  0.00    +0.150 HD
ATOM     19  H   UNL     1      31.644 -22.973 -18.247  0.00  0.00    +0.146 HD
ATOM     20  H   UNL     1      32.845 -23.824 -17.386  0.00  0.00    +0.146 HD
ENDROOT
BRANCH  13  21
ATOM     21  N   UNL     1      35.666 -16.271 -23.758  0.00  0.00    -0.291 NA
ATOM     22  H   UNL     1      36.330 -16.439 -24.465  0.00  0.00    +0.122 HD
ATOM     23  H   UNL     1      35.260 -15.380 -23.665  0.00  0.00    +0.122 HD
ENDBRANCH  13  21
TORSDOF 1
ENDMDL
MODEL 2
REMARK VINA RESULT:      -8.6      1.522      2.498
REMARK  Name = 24741806
REMARK  1 active torsions:
REMARK  status: ('A' for Active; 'I' for Inactive)
REMARK    1  A    between atoms: N_6  and  C_14
REMARK                            x       y       z     vdW  Elec       q    Type
REMARK                         _______ _______ _______ _____ _____    ______ ____
ROOT
ATOM      1  O   UNL     1      33.055 -22.181 -19.417  0.00  0.00    -0.209 OA
ATOM      2  N   UNL     1      34.298 -18.572 -23.027  0.00  0.00    -0.305 N 
ATOM      3  N   UNL     1      36.830 -20.999 -18.789  0.00  0.00    -0.275 N 
ATOM      4  N   UNL     1      36.394 -17.937 -22.653  0.00  0.00    -0.305 N 
ATOM      5  N   UNL     1      34.972 -22.355 -18.177  0.00  0.00    -0.302 NA
ATOM      6  N   UNL     1      36.998 -22.428 -17.002  0.00  0.00    -0.320 N 
ATOM      7  C   UNL     1      34.712 -19.300 -21.941  0.00  0.00    +0.061 C 
ATOM      8  C   UNL     1      36.142 -20.412 -19.856  0.00  0.00    +0.064 C 
ATOM      9  C   UNL     1      34.817 -20.803 -20.102  0.00  0.00    +0.110 C 
ATOM     10  C   UNL     1      36.023 -18.887 -21.728  0.00  0.00    +0.061 C 
ATOM     11  C   UNL     1      34.067 -20.256 -21.154  0.00  0.00    +0.030 C 
ATOM     12  C   UNL     1      36.758 -19.447 -20.669  0.00  0.00    +0.031 C 
ATOM     13  C   UNL     1      35.337 -17.773 -23.416  0.00  0.00    +0.204 C 
ATOM     14  C   UNL     1      34.213 -21.832 -19.208  0.00  0.00    +0.208 C 
ATOM     15  C   UNL     1      36.200 -21.942 -18.008  0.00  0.00    +0.248 C 
ATOM     16  H   UNL     1      33.411 -18.616 -23.451  0.00  0.00    +0.150 HD
ATOM     17  H   UNL     1      37.760 -20.740 -18.597  0.00  0.00    +0.156 HD
ATOM     18  H   UNL     1      37.263 -17.480 -22.727  0.00  0.00    +0.150 HD
ATOM     19  H   UNL     1      37.919 -22.096 -16.901  0.00  0.00    +0.146 HD
ATOM     20  H   UNL     1      36.649 -23.108 -16.382  0.00  0.00    +0.146 HD
ENDROOT
BRANCH  13  21
ATOM     21  N   UNL     1      35.156 -16.957 -24.478  0.00  0.00    -0.291 NA
ATOM     22  H   UNL     1      35.645 -17.125 -25.316  0.00  0.00    +0.122 HD
ATOM     23  H   UNL     1      34.535 -16.197 -24.415  0.00  0.00    +0.122 HD
ENDBRANCH  13  21
TORSDOF 1
ENDMDL
MODEL 3
REMARK VINA RESULT:      -8.6      4.003      5.774
REMARK  Name = 24741806
REMARK  1 active torsions:
REMARK  status: ('A' for Active; 'I' for Inactive)
REMARK    1  A    between atoms: N_6  and  C_14
REMARK                            x       y       z     vdW  Elec       q    Type
REMARK                         _______ _______ _______ _____ _____    ______ ____
ROOT
ATOM      1  O   UNL     1      34.968 -17.357 -24.695  0.00  0.00    -0.209 OA
ATOM      2  N   UNL     1      32.173 -13.249 -22.988  0.00  0.00    -0.305 N 
ATOM      3  N   UNL     1      35.192 -17.237 -20.699  0.00  0.00    -0.275 N 
ATOM      4  N   UNL     1      32.316 -13.210 -20.770  0.00  0.00    -0.305 N 
ATOM      5  N   UNL     1      35.772 -18.277 -22.759  0.00  0.00    -0.302 NA
ATOM      6  N   UNL     1      36.522 -19.106 -20.700  0.00  0.00    -0.320 N 
ATOM      7  C   UNL     1      32.962 -14.321 -22.653  0.00  0.00    +0.061 C 
ATOM      8  C   UNL     1      34.436 -16.244 -21.330  0.00  0.00    +0.064 C 
ATOM      9  C   UNL     1      34.337 -16.258 -22.729  0.00  0.00    +0.110 C 
ATOM     10  C   UNL     1      33.037 -14.273 -21.265  0.00  0.00    +0.061 C 
ATOM     11  C   UNL     1      33.595 -15.293 -23.428  0.00  0.00    +0.030 C 
ATOM     12  C   UNL     1      33.785 -15.249 -20.583  0.00  0.00    +0.031 C 
ATOM     13  C   UNL     1      31.813 -12.618 -21.830  0.00  0.00    +0.204 C 
ATOM     14  C   UNL     1      35.049 -17.338 -23.471  0.00  0.00    +0.208 C 
ATOM     15  C   UNL     1      35.820 -18.201 -21.456  0.00  0.00    +0.248 C 
ATOM     16  H   UNL     1      31.912 -12.983 -23.899  0.00  0.00    +0.150 HD
ATOM     17  H   UNL     1      35.275 -17.247 -19.718  0.00  0.00    +0.156 HD
ATOM     18  H   UNL     1      32.202 -12.950 -19.828  0.00  0.00    +0.150 HD
ATOM     19  H   UNL     1      36.538 -19.022 -19.719  0.00  0.00    +0.146 HD
ATOM     20  H   UNL     1      37.010 -19.840 -21.139  0.00  0.00    +0.146 HD
ENDROOT
BRANCH  13  21
ATOM     21  N   UNL     1      31.025 -11.523 -21.915  0.00  0.00    -0.291 NA
ATOM     22  H   UNL     1      31.042 -10.848 -21.199  0.00  0.00    +0.122 HD
ATOM     23  H   UNL     1      30.435 -11.400 -22.693  0.00  0.00    +0.122 HD
ENDBRANCH  13  21
TORSDOF 1
ENDMDL
MODEL 4
REMARK VINA RESULT:      -8.4      3.720      7.242
REMARK  Name = 24741806
REMARK  1 active torsions:
REMARK  status: ('A' for Active; 'I' for Inactive)
REMARK    1  A    between atoms: N_6  and  C_14
REMARK                            x       y       z     vdW  Elec       q    Type
REMARK                         _______ _______ _______ _____ _____    ______ ____
ROOT
ATOM      1  O   UNL     1      33.516 -15.931 -26.353  0.00  0.00    -0.209 OA
ATOM      2  N   UNL     1      35.199 -19.069 -22.489  0.00  0.00    -0.305 N 
ATOM      3  N   UNL     1      34.096 -13.711 -23.071  0.00  0.00    -0.275 N 
ATOM      4  N   UNL     1      35.512 -17.810 -20.685  0.00  0.00    -0.305 N 
ATOM      5  N   UNL     1      33.453 -13.871 -25.357  0.00  0.00    -0.302 NA
ATOM      6  N   UNL     1      33.438 -11.829 -24.206  0.00  0.00    -0.320 N 
ATOM      7  C   UNL     1      34.865 -17.794 -22.871  0.00  0.00    +0.061 C 
ATOM      8  C   UNL     1      34.362 -15.080 -22.975  0.00  0.00    +0.064 C 
ATOM      9  C   UNL     1      34.170 -15.886 -24.107  0.00  0.00    +0.110 C 
ATOM     10  C   UNL     1      35.068 -17.028 -21.728  0.00  0.00    +0.061 C 
ATOM     11  C   UNL     1      34.416 -17.267 -24.083  0.00  0.00    +0.030 C 
ATOM     12  C   UNL     1      34.815 -15.646 -21.772  0.00  0.00    +0.031 C 
ATOM     13  C   UNL     1      35.578 -19.027 -21.177  0.00  0.00    +0.204 C 
ATOM     14  C   UNL     1      33.688 -15.233 -25.358  0.00  0.00    +0.208 C 
ATOM     15  C   UNL     1      33.654 -13.183 -24.263  0.00  0.00    +0.248 C 
ATOM     16  H   UNL     1      35.170 -19.871 -23.059  0.00  0.00    +0.150 HD
ATOM     17  H   UNL     1      34.225 -13.126 -22.289  0.00  0.00    +0.156 HD
ATOM     18  H   UNL     1      35.732 -17.520 -19.771  0.00  0.00    +0.150 HD
ATOM     19  H   UNL     1      33.600 -11.340 -23.367  0.00  0.00    +0.146 HD
ATOM     20  H   UNL     1      33.120 -11.347 -25.004  0.00  0.00    +0.146 HD
ENDROOT
BRANCH  13  21
ATOM     21  N   UNL     1      35.955 -20.180 -20.581  0.00  0.00    -0.291 NA
ATOM     22  H   UNL     1      35.380 -20.589 -19.894  0.00  0.00    +0.122 HD
ATOM     23  H   UNL     1      36.803 -20.611 -20.834  0.00  0.00    +0.122 HD
ENDBRANCH  13  21
TORSDOF 1
ENDMDL
MODEL 5
REMARK VINA RESULT:      -8.4      6.291      7.790
REMARK  Name = 24741806
REMARK  1 active torsions:
REMARK  status: ('A' for Active; 'I' for Inactive)
REMARK    1  A    between atoms: N_6  and  C_14
REMARK                            x       y       z     vdW  Elec       q    Type
REMARK                         _______ _______ _______ _____ _____    ______ ____
ROOT
ATOM      1  O   UNL     1      34.602 -22.862 -17.499  0.00  0.00    -0.209 OA
ATOM      2  N   UNL     1      29.384 -22.558 -16.963  0.00  0.00    -0.305 N 
ATOM      3  N   UNL     1      33.565 -24.673 -14.080  0.00  0.00    -0.275 N 
ATOM      4  N   UNL     1      28.841 -23.570 -15.061  0.00  0.00    -0.305 N 
ATOM      5  N   UNL     1      35.250 -24.000 -15.621  0.00  0.00    -0.302 NA
ATOM      6  N   UNL     1      35.764 -25.170 -13.656  0.00  0.00    -0.320 N 
ATOM      7  C   UNL     1      30.570 -22.997 -16.431  0.00  0.00    +0.061 C 
ATOM      8  C   UNL     1      32.538 -24.118 -14.850  0.00  0.00    +0.064 C 
ATOM      9  C   UNL     1      32.868 -23.477 -16.054  0.00  0.00    +0.110 C 
ATOM     10  C   UNL     1      30.204 -23.624 -15.244  0.00  0.00    +0.061 C 
ATOM     11  C   UNL     1      31.889 -22.898 -16.876  0.00  0.00    +0.030 C 
ATOM     12  C   UNL     1      31.200 -24.198 -14.434  0.00  0.00    +0.031 C 
ATOM     13  C   UNL     1      28.382 -22.924 -16.109  0.00  0.00    +0.204 C 
ATOM     14  C   UNL     1      34.305 -23.422 -16.448  0.00  0.00    +0.208 C 
ATOM     15  C   UNL     1      34.869 -24.581 -14.514  0.00  0.00    +0.248 C 
ATOM     16  H   UNL     1      29.275 -22.067 -17.809  0.00  0.00    +0.150 HD
ATOM     17  H   UNL     1      33.357 -25.128 -13.232  0.00  0.00    +0.156 HD
ATOM     18  H   UNL     1      28.323 -23.936 -14.309  0.00  0.00    +0.150 HD
ATOM     19  H   UNL     1      35.445 -25.600 -12.830  0.00  0.00    +0.146 HD
ATOM     20  H   UNL     1      36.725 -25.164 -13.868  0.00  0.00    +0.146 HD
ENDROOT
BRANCH  13  21
ATOM     21  N   UNL     1      27.112 -22.595 -16.433  0.00  0.00    -0.291 NA
ATOM     22  H   UNL     1      26.442 -23.302 -16.577  0.00  0.00    +0.122 HD
ATOM     23  H   UNL     1      26.856 -21.648 -16.523  0.00  0.00    +0.122 HD
ENDBRANCH  13  21
TORSDOF 1
ENDMDL
MODEL 6
REMARK VINA RESULT:      -8.4      3.434      5.401
REMARK  Name = 24741806
REMARK  1 active torsions:
REMARK  status: ('A' for Active; 'I' for Inactive)
REMARK    1  A    between atoms: N_6  and  C_14
REMARK                            x       y       z     vdW  Elec       q    Type
REMARK                         _______ _______ _______ _____ _____    ______ ____
ROOT
ATOM      1  O   UNL     1      34.821 -15.306 -20.253  0.00  0.00    -0.209 OA
ATOM      2  N   UNL     1      33.311 -13.594 -24.986  0.00  0.00    -0.305 N 
ATOM      3  N   UNL     1      35.028 -18.358 -22.838  0.00  0.00    -0.275 N 
ATOM      4  N   UNL     1      33.437 -15.307 -26.395  0.00  0.00    -0.305 N 
ATOM      5  N   UNL     1      35.308 -17.511 -20.632  0.00  0.00    -0.302 NA
ATOM      6  N   UNL     1      35.767 -19.746 -21.167  0.00  0.00    -0.320 N 
ATOM      7  C   UNL     1      33.754 -14.653 -24.234  0.00  0.00    +0.061 C 
ATOM      8  C   UNL     1      34.597 -17.124 -23.335  0.00  0.00    +0.064 C 
ATOM      9  C   UNL     1      34.513 -16.034 -22.455  0.00  0.00    +0.110 C 
ATOM     10  C   UNL     1      33.824 -15.710 -25.137  0.00  0.00    +0.061 C 
ATOM     11  C   UNL     1      34.088 -14.768 -22.885  0.00  0.00    +0.030 C 
ATOM     12  C   UNL     1      34.252 -16.971 -24.687  0.00  0.00    +0.031 C 
ATOM     13  C   UNL     1      33.136 -14.034 -26.267  0.00  0.00    +0.204 C 
ATOM     14  C   UNL     1      34.892 -16.254 -21.029  0.00  0.00    +0.208 C 
ATOM     15  C   UNL     1      35.361 -18.480 -21.508  0.00  0.00    +0.248 C 
ATOM     16  H   UNL     1      33.147 -12.680 -24.659  0.00  0.00    +0.150 HD
ATOM     17  H   UNL     1      35.095 -19.137 -23.437  0.00  0.00    +0.156 HD
ATOM     18  H   UNL     1      33.395 -15.853 -27.213  0.00  0.00    +0.150 HD
ATOM     19  H   UNL     1      35.796 -20.454 -21.851  0.00  0.00    +0.146 HD
ATOM     20  H   UNL     1      36.029 -19.946 -20.240  0.00  0.00    +0.146 HD
ENDROOT
BRANCH  13  21
ATOM     21  N   UNL     1      32.699 -13.153 -27.194  0.00  0.00    -0.291 NA
ATOM     22  H   UNL     1      31.736 -12.972 -27.286  0.00  0.00    +0.122 HD
ATOM     23  H   UNL     1      33.345 -12.691 -27.777  0.00  0.00    +0.122 HD
ENDBRANCH  13  21
TORSDOF 1
ENDMDL
MODEL 7
REMARK VINA RESULT:      -8.3      1.260      5.352
REMARK  Name = 24741806
REMARK  1 active torsions:
REMARK  status: ('A' for Active; 'I' for Inactive)
REMARK    1  A    between atoms: N_6  and  C_14
REMARK                            x       y       z     vdW  Elec       q    Type
REMARK                         _______ _______ _______ _____ _____    ______ ____
ROOT
ATOM      1  O   UNL     1      37.847 -19.039 -21.365  0.00  0.00    -0.209 OA
ATOM      2  N   UNL     1      35.007 -22.428 -18.526  0.00  0.00    -0.305 N 
ATOM      3  N   UNL     1      33.967 -18.403 -22.129  0.00  0.00    -0.275 N 
ATOM      4  N   UNL     1      32.863 -22.051 -18.971  0.00  0.00    -0.305 N 
ATOM      5  N   UNL     1      36.253 -17.848 -22.497  0.00  0.00    -0.302 NA
ATOM      6  N   UNL     1      34.513 -16.717 -23.585  0.00  0.00    -0.320 N 
ATOM      7  C   UNL     1      34.998 -21.399 -19.434  0.00  0.00    +0.061 C 
ATOM      8  C   UNL     1      34.285 -19.417 -21.220  0.00  0.00    +0.064 C 
ATOM      9  C   UNL     1      35.635 -19.665 -20.929  0.00  0.00    +0.110 C 
ATOM     10  C   UNL     1      33.648 -21.183 -19.696  0.00  0.00    +0.061 C 
ATOM     11  C   UNL     1      36.026 -20.666 -20.027  0.00  0.00    +0.030 C 
ATOM     12  C   UNL     1      33.277 -20.176 -20.603  0.00  0.00    +0.031 C 
ATOM     13  C   UNL     1      33.710 -22.782 -18.282  0.00  0.00    +0.204 C 
ATOM     14  C   UNL     1      36.664 -18.829 -21.613  0.00  0.00    +0.208 C 
ATOM     15  C   UNL     1      34.976 -17.674 -22.718  0.00  0.00    +0.248 C 
ATOM     16  H   UNL     1      35.806 -22.838 -18.123  0.00  0.00    +0.150 HD
ATOM     17  H   UNL     1      33.027 -18.211 -22.348  0.00  0.00    +0.156 HD
ATOM     18  H   UNL     1      31.880 -22.109 -18.969  0.00  0.00    +0.150 HD
ATOM     19  H   UNL     1      33.545 -16.610 -23.730  0.00  0.00    +0.146 HD
ATOM     20  H   UNL     1      35.149 -16.136 -24.063  0.00  0.00    +0.146 HD
ENDROOT
BRANCH  13  21
ATOM     21  N   UNL     1      33.472 -23.785 -17.408  0.00  0.00    -0.291 NA
ATOM     22  H   UNL     1      32.588 -24.217 -17.384  0.00  0.00    +0.122 HD
ATOM     23  H   UNL     1      34.183 -24.086 -16.798  0.00  0.00    +0.122 HD
ENDBRANCH  13  21
TORSDOF 1
ENDMDL
MODEL 8
REMARK VINA RESULT:      -8.3      3.935      7.147
REMARK  Name = 24741806
REMARK  1 active torsions:
REMARK  status: ('A' for Active; 'I' for Inactive)
REMARK    1  A    between atoms: N_6  and  C_14
REMARK                            x       y       z     vdW  Elec       q    Type
REMARK                         _______ _______ _______ _____ _____    ______ ____
ROOT
ATOM      1  O   UNL     1      32.697 -13.377 -22.225  0.00  0.00    -0.209 OA
ATOM      2  N   UNL     1      35.396 -17.609 -20.672  0.00  0.00    -0.305 N 
ATOM      3  N   UNL     1      33.733 -15.488 -25.467  0.00  0.00    -0.275 N 
ATOM      4  N   UNL     1      35.955 -18.758 -22.490  0.00  0.00    -0.305 N 
ATOM      5  N   UNL     1      32.654 -13.598 -24.504  0.00  0.00    -0.302 NA
ATOM      6  N   UNL     1      32.692 -13.955 -26.819  0.00  0.00    -0.320 N 
ATOM      7  C   UNL     1      34.881 -16.898 -21.726  0.00  0.00    +0.061 C 
ATOM      8  C   UNL     1      34.132 -15.985 -24.223  0.00  0.00    +0.064 C 
ATOM      9  C   UNL     1      33.785 -15.270 -23.067  0.00  0.00    +0.110 C 
ATOM     10  C   UNL     1      35.244 -17.635 -22.849  0.00  0.00    +0.061 C 
ATOM     11  C   UNL     1      34.152 -15.710 -21.786  0.00  0.00    +0.030 C 
ATOM     12  C   UNL     1      34.867 -17.178 -24.123  0.00  0.00    +0.031 C 
ATOM     13  C   UNL     1      36.028 -18.710 -21.179  0.00  0.00    +0.204 C 
ATOM     14  C   UNL     1      33.004 -14.010 -23.231  0.00  0.00    +0.208 C 
ATOM     15  C   UNL     1      33.013 -14.316 -25.535  0.00  0.00    +0.248 C 
ATOM     16  H   UNL     1      35.324 -17.369 -19.720  0.00  0.00    +0.150 HD
ATOM     17  H   UNL     1      33.965 -15.974 -26.292  0.00  0.00    +0.156 HD
ATOM     18  H   UNL     1      36.328 -19.447 -23.086  0.00  0.00    +0.150 HD
ATOM     19  H   UNL     1      32.976 -14.518 -27.575  0.00  0.00    +0.146 HD
ATOM     20  H   UNL     1      32.177 -13.132 -26.985  0.00  0.00    +0.146 HD
ENDROOT
BRANCH  13  21
ATOM     21  N   UNL     1      36.616 -19.567 -20.315  0.00  0.00    -0.291 NA
ATOM     22  H   UNL     1      36.159 -20.402 -20.063  0.00  0.00    +0.122 HD
ATOM     23  H   UNL     1      37.500 -19.356 -19.938  0.00  0.00    +0.122 HD
ENDBRANCH  13  21
TORSDOF 1
ENDMDL
MODEL 9
REMARK VINA RESULT:      -8.2      4.434      8.208
REMARK  Name = 24741806
REMARK  1 active torsions:
REMARK  status: ('A' for Active; 'I' for Inactive)
REMARK    1  A    between atoms: N_6  and  C_14
REMARK                            x       y       z     vdW  Elec       q    Type
REMARK                         _______ _______ _______ _____ _____    ______ ____
ROOT
ATOM      1  O   UNL     1      32.861 -23.361 -17.799  0.00  0.00    -0.209 OA
ATOM      2  N   UNL     1      34.398 -24.571 -12.922  0.00  0.00    -0.305 N 
ATOM      3  N   UNL     1      36.608 -22.044 -17.281  0.00  0.00    -0.275 N 
ATOM      4  N   UNL     1      36.476 -23.829 -12.666  0.00  0.00    -0.305 N 
ATOM      5  N   UNL     1      34.692 -22.297 -18.670  0.00  0.00    -0.302 NA
ATOM      6  N   UNL     1      36.637 -21.230 -19.425  0.00  0.00    -0.320 N 
ATOM      7  C   UNL     1      34.728 -23.988 -14.120  0.00  0.00    +0.061 C 
ATOM      8  C   UNL     1      36.000 -22.693 -16.202  0.00  0.00    +0.064 C 
ATOM      9  C   UNL     1      34.688 -23.168 -16.351  0.00  0.00    +0.110 C 
ATOM     10  C   UNL     1      36.029 -23.532 -13.934  0.00  0.00    +0.061 C 
ATOM     11  C   UNL     1      34.017 -23.828 -15.310  0.00  0.00    +0.030 C 
ATOM     12  C   UNL     1      36.684 -22.873 -14.989  0.00  0.00    +0.031 C 
ATOM     13  C   UNL     1      35.473 -24.450 -12.088  0.00  0.00    +0.204 C 
ATOM     14  C   UNL     1      34.009 -22.950 -17.661  0.00  0.00    +0.208 C 
ATOM     15  C   UNL     1      35.914 -21.883 -18.459  0.00  0.00    +0.248 C 
ATOM     16  H   UNL     1      33.539 -24.999 -12.704  0.00  0.00    +0.150 HD
ATOM     17  H   UNL     1      37.528 -21.704 -17.199  0.00  0.00    +0.156 HD
ATOM     18  H   UNL     1      37.356 -23.621 -12.278  0.00  0.00    +0.150 HD
ATOM     19  H   UNL     1      37.556 -20.931 -19.235  0.00  0.00    +0.146 HD
ATOM     20  H   UNL     1      36.237 -21.061 -20.309  0.00  0.00    +0.146 HD
ENDROOT
BRANCH  13  21
ATOM     21  N   UNL     1      35.376 -24.959 -10.840  0.00  0.00    -0.291 NA
ATOM     22  H   UNL     1      36.150 -24.923 -10.233  0.00  0.00    +0.122 HD
ATOM     23  H   UNL     1      34.532 -25.363 -10.537  0.00  0.00    +0.122 HD
ENDBRANCH  13  21
TORSDOF 1
ENDMDL
