MODEL 1
REMARK VINA RESULT:     -10.4      0.000      0.000
REMARK  Name = 24812721
REMARK  6 active torsions:
REMARK  status: ('A' for Active; 'I' for Inactive)
REMARK    1  A    between atoms: C_1  and  N_8
REMARK    2  A    between atoms: C_4  and  N_26
REMARK    3  A    between atoms: C_5  and  C_23
REMARK    4  A    between atoms: N_26  and  C_28
REMARK    5  A    between atoms: C_28  and  C_29
REMARK    6  A    between atoms: C_29  and  O_30
REMARK                            x       y       z     vdW  Elec       q    Type
REMARK                         _______ _______ _______ _____ _____    ______ ____
ROOT
ATOM      1  C   UNL     1      35.666 -23.585 -16.017  0.00  0.00    +0.065 C 
ATOM      2  C   UNL     1      35.728 -24.751 -15.255  0.00  0.00    +0.032 C 
ATOM      3  C   UNL     1      36.822 -22.840 -16.248  0.00  0.00    +0.018 C 
ATOM      4  C   UNL     1      36.947 -25.171 -14.723  0.00  0.00    +0.051 C 
ATOM      5  C   UNL     1      38.103 -24.426 -14.952  0.00  0.00    +0.066 C 
ATOM      6  C   UNL     1      38.040 -23.260 -15.715  0.00  0.00    +0.007 C 
ENDROOT
BRANCH   1   8
ATOM      7  O   UNL     1      29.969 -22.407 -17.145  0.00  0.00    -0.291 OA
ATOM      8  N   UNL     1      34.444 -23.163 -16.551  0.00  0.00    -0.310 N 
ATOM      9  C   UNL     1      33.221 -23.362 -15.979  0.00  0.00    +0.044 A 
ATOM     10  C   UNL     1      32.258 -22.823 -16.805  0.00  0.00    +0.048 A 
ATOM     11  C   UNL     1      32.990 -24.050 -14.683  0.00  0.00    +0.045 C 
ATOM     12  C   UNL     1      31.632 -23.601 -14.121  0.00  0.00    +0.014 C 
ATOM     13  C   UNL     1      32.925 -22.259 -17.929  0.00  0.00    +0.020 A 
ATOM     14  C   UNL     1      34.294 -22.488 -17.744  0.00  0.00    +0.064 A 
ATOM     15  C   UNL     1      30.515 -23.673 -15.173  0.00  0.00    +0.070 C 
ATOM     16  C   UNL     1      30.851 -22.893 -16.443  0.00  0.00    +0.174 C 
ATOM     17  C   UNL     1      32.508 -21.576 -19.091  0.00  0.00    +0.002 C 
ATOM     18  C   UNL     1      35.262 -22.067 -18.664  0.00  0.00    +0.018 C 
ATOM     19  C   UNL     1      33.466 -21.150 -20.018  0.00  0.00    +0.000 C 
ATOM     20  C   UNL     1      34.820 -21.392 -19.806  0.00  0.00    +0.001 C 
ENDBRANCH   1   8
BRANCH   5  23
ATOM     21  O   UNL     1      39.725 -24.553 -13.250  0.00  0.00    -0.270 OA
ATOM     22  N   UNL     1      40.228 -25.583 -15.235  0.00  0.00    -0.325 N 
ATOM     23  C   UNL     1      39.392 -24.839 -14.411  0.00  0.00    +0.244 C 
ATOM     24  H   UNL     1      41.107 -25.880 -14.905  0.00  0.00    +0.145 HD
ATOM     25  H   UNL     1      39.942 -25.813 -16.149  0.00  0.00    +0.145 HD
ENDBRANCH   5  23
BRANCH   4  26
ATOM     26  N   UNL     1      36.990 -26.355 -13.951  0.00  0.00    -0.330 N 
ATOM     27  H   UNL     1      36.954 -27.222 -14.415  0.00  0.00    +0.147 HD
BRANCH  26  28
ATOM     28  C   UNL     1      37.081 -26.346 -12.525  0.00  0.00    +0.120 C 
BRANCH  28  29
ATOM     29  C   UNL     1      36.301 -25.170 -11.962  0.00  0.00    +0.163 C 
BRANCH  29  30
ATOM     30  O   UNL     1      37.172 -24.344 -11.200  0.00  0.00    -0.349 OA
ATOM     31  C   UNL     1      37.090 -22.986 -11.605  0.00  0.00    +0.174 C 
ENDBRANCH  29  30
ENDBRANCH  28  29
ENDBRANCH  26  28
ENDBRANCH   4  26
TORSDOF 6
ENDMDL
MODEL 2
REMARK VINA RESULT:     -10.3      9.661     13.079
REMARK  Name = 24812721
REMARK  6 active torsions:
REMARK  status: ('A' for Active; 'I' for Inactive)
REMARK    1  A    between atoms: C_1  and  N_8
REMARK    2  A    between atoms: C_4  and  N_26
REMARK    3  A    between atoms: C_5  and  C_23
REMARK    4  A    between atoms: N_26  and  C_28
REMARK    5  A    between atoms: C_28  and  C_29
REMARK    6  A    between atoms: C_29  and  O_30
REMARK                            x       y       z     vdW  Elec       q    Type
REMARK                         _______ _______ _______ _____ _____    ______ ____
ROOT
ATOM      1  C   UNL     1      33.670 -13.680 -23.772  0.00  0.00    +0.065 C 
ATOM      2  C   UNL     1      34.371 -14.493 -22.882  0.00  0.00    +0.032 C 
ATOM      3  C   UNL     1      33.230 -14.195 -24.991  0.00  0.00    +0.018 C 
ATOM      4  C   UNL     1      34.633 -15.823 -23.212  0.00  0.00    +0.051 C 
ATOM      5  C   UNL     1      34.194 -16.339 -24.431  0.00  0.00    +0.066 C 
ATOM      6  C   UNL     1      33.493 -15.525 -25.320  0.00  0.00    +0.007 C 
ENDROOT
BRANCH   1   8
ATOM      7  O   UNL     1      31.739  -8.601 -21.406  0.00  0.00    -0.291 OA
ATOM      8  N   UNL     1      33.407 -12.346 -23.441  0.00  0.00    -0.310 N 
ATOM      9  C   UNL     1      32.587 -11.929 -22.433  0.00  0.00    +0.044 A 
ATOM     10  C   UNL     1      32.567 -10.551 -22.428  0.00  0.00    +0.048 A 
ATOM     11  C   UNL     1      31.848 -12.828 -21.510  0.00  0.00    +0.045 C 
ATOM     12  C   UNL     1      31.511 -12.050 -20.229  0.00  0.00    +0.014 C 
ATOM     13  C   UNL     1      33.422 -10.105 -23.475  0.00  0.00    +0.020 A 
ATOM     14  C   UNL     1      33.935 -11.252 -24.093  0.00  0.00    +0.064 A 
ATOM     15  C   UNL     1      30.894 -10.676 -20.527  0.00  0.00    +0.070 C 
ATOM     16  C   UNL     1      31.766  -9.827 -21.452  0.00  0.00    +0.174 C 
ATOM     17  C   UNL     1      33.817  -8.843 -23.965  0.00  0.00    +0.002 C 
ATOM     18  C   UNL     1      34.820 -11.194 -25.177  0.00  0.00    +0.018 C 
ATOM     19  C   UNL     1      34.701  -8.772 -25.048  0.00  0.00    +0.000 C 
ATOM     20  C   UNL     1      35.194  -9.930 -25.642  0.00  0.00    +0.001 C 
ENDBRANCH   1   8
BRANCH   5  23
ATOM     21  O   UNL     1      35.507 -18.293 -24.486  0.00  0.00    -0.270 OA
ATOM     22  N   UNL     1      33.460 -18.394 -25.514  0.00  0.00    -0.325 N 
ATOM     23  C   UNL     1      34.450 -17.724 -24.805  0.00  0.00    +0.244 C 
ATOM     24  H   UNL     1      33.597 -19.331 -25.784  0.00  0.00    +0.145 HD
ATOM     25  H   UNL     1      32.623 -17.932 -25.747  0.00  0.00    +0.145 HD
ENDBRANCH   5  23
BRANCH   4  26
ATOM     26  N   UNL     1      35.346 -16.631 -22.298  0.00  0.00    -0.330 N 
ATOM     27  H   UNL     1      36.293 -16.830 -22.483  0.00  0.00    +0.147 HD
BRANCH  26  28
ATOM     28  C   UNL     1      34.752 -17.173 -21.117  0.00  0.00    +0.120 C 
BRANCH  28  29
ATOM     29  C   UNL     1      34.953 -18.679 -21.079  0.00  0.00    +0.163 C 
BRANCH  29  30
ATOM     30  O   UNL     1      33.814 -19.323 -21.637  0.00  0.00    -0.349 OA
ATOM     31  C   UNL     1      33.072 -20.019 -20.646  0.00  0.00    +0.174 C 
ENDBRANCH  29  30
ENDBRANCH  28  29
ENDBRANCH  26  28
ENDBRANCH   4  26
TORSDOF 6
ENDMDL
MODEL 3
REMARK VINA RESULT:      -9.9     10.821     14.242
REMARK  Name = 24812721
REMARK  6 active torsions:
REMARK  status: ('A' for Active; 'I' for Inactive)
REMARK    1  A    between atoms: C_1  and  N_8
REMARK    2  A    between atoms: C_4  and  N_26
REMARK    3  A    between atoms: C_5  and  C_23
REMARK    4  A    between atoms: N_26  and  C_28
REMARK    5  A    between atoms: C_28  and  C_29
REMARK    6  A    between atoms: C_29  and  O_30
REMARK                            x       y       z     vdW  Elec       q    Type
REMARK                         _______ _______ _______ _____ _____    ______ ____
ROOT
ATOM      1  C   UNL     1      33.159 -12.112 -23.687  0.00  0.00    +0.065 C 
ATOM      2  C   UNL     1      33.341 -13.321 -23.014  0.00  0.00    +0.032 C 
ATOM      3  C   UNL     1      33.095 -12.091 -25.081  0.00  0.00    +0.018 C 
ATOM      4  C   UNL     1      33.460 -14.508 -23.736  0.00  0.00    +0.051 C 
ATOM      5  C   UNL     1      33.397 -14.489 -25.129  0.00  0.00    +0.066 C 
ATOM      6  C   UNL     1      33.215 -13.280 -25.801  0.00  0.00    +0.007 C 
ENDROOT
BRANCH   1   8
ATOM      7  O   UNL     1      31.900  -7.852 -19.765  0.00  0.00    -0.291 OA
ATOM      8  N   UNL     1      33.040 -10.921 -22.964  0.00  0.00    -0.310 N 
ATOM      9  C   UNL     1      32.367 -10.776 -21.786  0.00  0.00    +0.044 A 
ATOM     10  C   UNL     1      32.457  -9.459 -21.389  0.00  0.00    +0.048 A 
ATOM     11  C   UNL     1      31.659 -11.868 -21.070  0.00  0.00    +0.045 C 
ATOM     12  C   UNL     1      31.522 -11.480 -19.590  0.00  0.00    +0.014 C 
ATOM     13  C   UNL     1      33.231  -8.770 -22.366  0.00  0.00    +0.020 A 
ATOM     14  C   UNL     1      33.582  -9.711 -23.341  0.00  0.00    +0.064 A 
ATOM     15  C   UNL     1      30.989 -10.051 -19.410  0.00  0.00    +0.070 C 
ATOM     16  C   UNL     1      31.824  -9.012 -20.159  0.00  0.00    +0.174 C 
ATOM     17  C   UNL     1      33.672  -7.439 -22.525  0.00  0.00    +0.002 C 
ATOM     18  C   UNL     1      34.351  -9.383 -24.465  0.00  0.00    +0.018 C 
ATOM     19  C   UNL     1      34.441  -7.099 -23.644  0.00  0.00    +0.000 C 
ATOM     20  C   UNL     1      34.774  -8.057 -24.597  0.00  0.00    +0.001 C 
ENDBRANCH   1   8
BRANCH   5  23
ATOM     21  O   UNL     1      34.557 -16.389 -25.894  0.00  0.00    -0.270 OA
ATOM     22  N   UNL     1      32.415 -16.106 -26.664  0.00  0.00    -0.325 N 
ATOM     23  C   UNL     1      33.516 -15.712 -25.912  0.00  0.00    +0.244 C 
ATOM     24  H   UNL     1      32.458 -16.927 -27.205  0.00  0.00    +0.145 HD
ATOM     25  H   UNL     1      31.594 -15.564 -26.655  0.00  0.00    +0.145 HD
ENDBRANCH   5  23
BRANCH   4  26
ATOM     26  N   UNL     1      33.645 -15.722 -23.037  0.00  0.00    -0.330 N 
ATOM     27  H   UNL     1      32.876 -16.326 -22.927  0.00  0.00    +0.147 HD
BRANCH  26  28
ATOM     28  C   UNL     1      34.903 -16.111 -22.482  0.00  0.00    +0.120 C 
BRANCH  28  29
ATOM     29  C   UNL     1      34.759 -16.352 -20.988  0.00  0.00    +0.163 C 
BRANCH  29  30
ATOM     30  O   UNL     1      35.431 -17.554 -20.635  0.00  0.00    -0.349 OA
ATOM     31  C   UNL     1      34.888 -18.674 -21.318  0.00  0.00    +0.174 C 
ENDBRANCH  29  30
ENDBRANCH  28  29
ENDBRANCH  26  28
ENDBRANCH   4  26
TORSDOF 6
ENDMDL
MODEL 4
REMARK VINA RESULT:      -9.7      1.351      2.478
REMARK  Name = 24812721
REMARK  6 active torsions:
REMARK  status: ('A' for Active; 'I' for Inactive)
REMARK    1  A    between atoms: C_1  and  N_8
REMARK    2  A    between atoms: C_4  and  N_26
REMARK    3  A    between atoms: C_5  and  C_23
REMARK    4  A    between atoms: N_26  and  C_28
REMARK    5  A    between atoms: C_28  and  C_29
REMARK    6  A    between atoms: C_29  and  O_30
REMARK                            x       y       z     vdW  Elec       q    Type
REMARK                         _______ _______ _______ _____ _____    ______ ____
ROOT
ATOM      1  C   UNL     1      34.473 -24.015 -14.648  0.00  0.00    +0.065 C 
ATOM      2  C   UNL     1      35.305 -25.065 -15.038  0.00  0.00    +0.032 C 
ATOM      3  C   UNL     1      34.639 -23.420 -13.397  0.00  0.00    +0.018 C 
ATOM      4  C   UNL     1      36.302 -25.520 -14.175  0.00  0.00    +0.051 C 
ATOM      5  C   UNL     1      36.468 -24.927 -12.924  0.00  0.00    +0.066 C 
ATOM      6  C   UNL     1      35.636 -23.877 -12.535  0.00  0.00    +0.007 C 
ENDROOT
BRANCH   1   8
ATOM      7  O   UNL     1      29.387 -22.554 -17.316  0.00  0.00    -0.291 OA
ATOM      8  N   UNL     1      33.472 -23.558 -15.512  0.00  0.00    -0.310 N 
ATOM      9  C   UNL     1      32.131 -23.625 -15.272  0.00  0.00    +0.044 A 
ATOM     10  C   UNL     1      31.465 -23.093 -16.356  0.00  0.00    +0.048 A 
ATOM     11  C   UNL     1      31.513 -24.183 -14.042  0.00  0.00    +0.045 C 
ATOM     12  C   UNL     1      30.101 -23.597 -13.889  0.00  0.00    +0.014 C 
ATOM     13  C   UNL     1      32.447 -22.673 -17.297  0.00  0.00    +0.020 A 
ATOM     14  C   UNL     1      33.696 -22.977 -16.742  0.00  0.00    +0.064 A 
ATOM     15  C   UNL     1      29.292 -23.682 -15.192  0.00  0.00    +0.070 C 
ATOM     16  C   UNL     1      30.012 -23.037 -16.376  0.00  0.00    +0.174 C 
ATOM     17  C   UNL     1      32.406 -22.064 -18.569  0.00  0.00    +0.002 C 
ATOM     18  C   UNL     1      34.901 -22.702 -17.399  0.00  0.00    +0.018 C 
ATOM     19  C   UNL     1      33.604 -21.784 -19.235  0.00  0.00    +0.000 C 
ATOM     20  C   UNL     1      34.831 -22.098 -18.658  0.00  0.00    +0.001 C 
ENDBRANCH   1   8
BRANCH   5  23
ATOM     21  O   UNL     1      37.555 -26.560 -11.623  0.00  0.00    -0.270 OA
ATOM     22  N   UNL     1      38.438 -24.444 -11.575  0.00  0.00    -0.325 N 
ATOM     23  C   UNL     1      37.501 -25.378 -12.002  0.00  0.00    +0.244 C 
ATOM     24  H   UNL     1      39.151 -24.712 -10.952  0.00  0.00    +0.145 HD
ATOM     25  H   UNL     1      38.388 -23.515 -11.896  0.00  0.00    +0.145 HD
ENDBRANCH   5  23
BRANCH   4  26
ATOM     26  N   UNL     1      37.134 -26.585 -14.588  0.00  0.00    -0.330 N 
ATOM     27  H   UNL     1      36.808 -27.508 -14.480  0.00  0.00    +0.147 HD
BRANCH  26  28
ATOM     28  C   UNL     1      38.429 -26.381 -15.155  0.00  0.00    +0.120 C 
BRANCH  28  29
ATOM     29  C   UNL     1      38.763 -24.898 -15.167  0.00  0.00    +0.163 C 
BRANCH  29  30
ATOM     30  O   UNL     1      39.943 -24.671 -14.408  0.00  0.00    -0.349 OA
ATOM     31  C   UNL     1      40.653 -25.880 -14.175  0.00  0.00    +0.174 C 
ENDBRANCH  29  30
ENDBRANCH  28  29
ENDBRANCH  26  28
ENDBRANCH   4  26
TORSDOF 6
ENDMDL
MODEL 5
REMARK VINA RESULT:      -9.7     11.212     15.559
REMARK  Name = 24812721
REMARK  6 active torsions:
REMARK  status: ('A' for Active; 'I' for Inactive)
REMARK    1  A    between atoms: C_1  and  N_8
REMARK    2  A    between atoms: C_4  and  N_26
REMARK    3  A    between atoms: C_5  and  C_23
REMARK    4  A    between atoms: N_26  and  C_28
REMARK    5  A    between atoms: C_28  and  C_29
REMARK    6  A    between atoms: C_29  and  O_30
REMARK                            x       y       z     vdW  Elec       q    Type
REMARK                         _______ _______ _______ _____ _____    ______ ____
ROOT
ATOM      1  C   UNL     1      32.879 -12.318 -22.884  0.00  0.00    +0.065 C 
ATOM      2  C   UNL     1      33.368 -11.240 -23.622  0.00  0.00    +0.032 C 
ATOM      3  C   UNL     1      32.003 -12.096 -21.821  0.00  0.00    +0.018 C 
ATOM      4  C   UNL     1      32.980  -9.940 -23.296  0.00  0.00    +0.051 C 
ATOM      5  C   UNL     1      32.105  -9.718 -22.234  0.00  0.00    +0.066 C 
ATOM      6  C   UNL     1      31.617 -10.796 -21.496  0.00  0.00    +0.007 C 
ENDROOT
BRANCH   1   8
ATOM      7  O   UNL     1      34.053 -17.492 -25.524  0.00  0.00    -0.291 OA
ATOM      8  N   UNL     1      33.267 -13.621 -23.210  0.00  0.00    -0.310 N 
ATOM      9  C   UNL     1      33.159 -14.192 -24.445  0.00  0.00    +0.044 A 
ATOM     10  C   UNL     1      33.626 -15.487 -24.371  0.00  0.00    +0.048 A 
ATOM     11  C   UNL     1      32.622 -13.514 -25.652  0.00  0.00    +0.045 C 
ATOM     12  C   UNL     1      33.160 -14.230 -26.901  0.00  0.00    +0.014 C 
ATOM     13  C   UNL     1      34.049 -15.714 -23.031  0.00  0.00    +0.020 A 
ATOM     14  C   UNL     1      33.811 -14.528 -22.326  0.00  0.00    +0.064 A 
ATOM     15  C   UNL     1      32.999 -15.755 -26.812  0.00  0.00    +0.070 C 
ATOM     16  C   UNL     1      33.628 -16.341 -25.548  0.00  0.00    +0.174 C 
ATOM     17  C   UNL     1      34.610 -16.808 -22.338  0.00  0.00    +0.002 C 
ATOM     18  C   UNL     1      34.108 -14.386 -20.964  0.00  0.00    +0.018 C 
ATOM     19  C   UNL     1      34.910 -16.678 -20.977  0.00  0.00    +0.000 C 
ATOM     20  C   UNL     1      34.663 -15.486 -20.303  0.00  0.00    +0.001 C 
ENDBRANCH   1   8
BRANCH   5  23
ATOM     21  O   UNL     1      31.033  -7.664 -22.660  0.00  0.00    -0.270 OA
ATOM     22  N   UNL     1      32.007  -7.915 -20.598  0.00  0.00    -0.325 N 
ATOM     23  C   UNL     1      31.680  -8.372 -21.870  0.00  0.00    +0.244 C 
ATOM     24  H   UNL     1      31.737  -7.011 -20.316  0.00  0.00    +0.145 HD
ATOM     25  H   UNL     1      32.509  -8.495 -19.981  0.00  0.00    +0.145 HD
ENDBRANCH   5  23
BRANCH   4  26
ATOM     26  N   UNL     1      33.487  -8.861 -24.055  0.00  0.00    -0.330 N 
ATOM     27  H   UNL     1      32.997  -8.578 -24.861  0.00  0.00    +0.147 HD
BRANCH  26  28
ATOM     28  C   UNL     1      34.683  -8.162 -23.703  0.00  0.00    +0.120 C 
BRANCH  28  29
ATOM     29  C   UNL     1      34.719  -6.812 -24.400  0.00  0.00    +0.163 C 
BRANCH  29  30
ATOM     30  O   UNL     1      33.394  -6.313 -24.538  0.00  0.00    -0.349 OA
ATOM     31  C   UNL     1      33.259  -5.509 -25.700  0.00  0.00    +0.174 C 
ENDBRANCH  29  30
ENDBRANCH  28  29
ENDBRANCH  26  28
ENDBRANCH   4  26
TORSDOF 6
ENDMDL
MODEL 6
REMARK VINA RESULT:      -9.6      6.031      9.238
REMARK  Name = 24812721
REMARK  6 active torsions:
REMARK  status: ('A' for Active; 'I' for Inactive)
REMARK    1  A    between atoms: C_1  and  N_8
REMARK    2  A    between atoms: C_4  and  N_26
REMARK    3  A    between atoms: C_5  and  C_23
REMARK    4  A    between atoms: N_26  and  C_28
REMARK    5  A    between atoms: C_28  and  C_29
REMARK    6  A    between atoms: C_29  and  O_30
REMARK                            x       y       z     vdW  Elec       q    Type
REMARK                         _______ _______ _______ _____ _____    ______ ____
ROOT
ATOM      1  C   UNL     1      34.564 -17.706 -21.676  0.00  0.00    +0.065 C 
ATOM      2  C   UNL     1      33.742 -18.779 -21.331  0.00  0.00    +0.032 C 
ATOM      3  C   UNL     1      35.936 -17.771 -21.431  0.00  0.00    +0.018 C 
ATOM      4  C   UNL     1      34.293 -19.916 -20.740  0.00  0.00    +0.051 C 
ATOM      5  C   UNL     1      35.664 -19.981 -20.495  0.00  0.00    +0.066 C 
ATOM      6  C   UNL     1      36.485 -18.908 -20.840  0.00  0.00    +0.007 C 
ENDROOT
BRANCH   1   8
ATOM      7  O   UNL     1      32.647 -13.480 -25.361  0.00  0.00    -0.291 OA
ATOM      8  N   UNL     1      34.012 -16.565 -22.268  0.00  0.00    -0.310 N 
ATOM      9  C   UNL     1      33.972 -16.312 -23.609  0.00  0.00    +0.044 A 
ATOM     10  C   UNL     1      33.370 -15.088 -23.805  0.00  0.00    +0.048 A 
ATOM     11  C   UNL     1      34.498 -17.218 -24.662  0.00  0.00    +0.045 C 
ATOM     12  C   UNL     1      33.801 -16.887 -25.991  0.00  0.00    +0.014 C 
ATOM     13  C   UNL     1      33.017 -14.574 -22.525  0.00  0.00    +0.020 A 
ATOM     14  C   UNL     1      33.432 -15.521 -21.581  0.00  0.00    +0.064 A 
ATOM     15  C   UNL     1      33.798 -15.380 -26.286  0.00  0.00    +0.070 C 
ATOM     16  C   UNL     1      33.195 -14.557 -25.148  0.00  0.00    +0.174 C 
ATOM     17  C   UNL     1      32.386 -13.399 -22.067  0.00  0.00    +0.002 C 
ATOM     18  C   UNL     1      33.245 -15.346 -20.204  0.00  0.00    +0.018 C 
ATOM     19  C   UNL     1      32.194 -13.212 -20.693  0.00  0.00    +0.000 C 
ATOM     20  C   UNL     1      32.617 -14.172 -19.778  0.00  0.00    +0.001 C 
ENDBRANCH   1   8
BRANCH   5  23
ATOM     21  O   UNL     1      36.412 -22.214 -20.515  0.00  0.00    -0.270 OA
ATOM     22  N   UNL     1      36.702 -21.044 -18.564  0.00  0.00    -0.325 N 
ATOM     23  C   UNL     1      36.270 -21.155 -19.881  0.00  0.00    +0.244 C 
ATOM     24  H   UNL     1      37.117 -21.816 -18.116  0.00  0.00    +0.145 HD
ATOM     25  H   UNL     1      36.593 -20.193 -18.081  0.00  0.00    +0.145 HD
ENDBRANCH   5  23
BRANCH   4  26
ATOM     26  N   UNL     1      33.444 -20.992 -20.396  0.00  0.00    -0.330 N 
ATOM     27  H   UNL     1      33.071 -21.549 -21.117  0.00  0.00    +0.147 HD
BRANCH  26  28
ATOM     28  C   UNL     1      33.102 -21.307 -19.045  0.00  0.00    +0.120 C 
BRANCH  28  29
ATOM     29  C   UNL     1      33.404 -22.769 -18.759  0.00  0.00    +0.163 C 
BRANCH  29  30
ATOM     30  O   UNL     1      34.386 -22.859 -17.734  0.00  0.00    -0.349 OA
ATOM     31  C   UNL     1      33.825 -23.326 -16.516  0.00  0.00    +0.174 C 
ENDBRANCH  29  30
ENDBRANCH  28  29
ENDBRANCH  26  28
ENDBRANCH   4  26
TORSDOF 6
ENDMDL
MODEL 7
REMARK VINA RESULT:      -9.5     10.090     13.849
REMARK  Name = 24812721
REMARK  6 active torsions:
REMARK  status: ('A' for Active; 'I' for Inactive)
REMARK    1  A    between atoms: C_1  and  N_8
REMARK    2  A    between atoms: C_4  and  N_26
REMARK    3  A    between atoms: C_5  and  C_23
REMARK    4  A    between atoms: N_26  and  C_28
REMARK    5  A    between atoms: C_28  and  C_29
REMARK    6  A    between atoms: C_29  and  O_30
REMARK                            x       y       z     vdW  Elec       q    Type
REMARK                         _______ _______ _______ _____ _____    ______ ____
ROOT
ATOM      1  C   UNL     1      33.550 -13.224 -23.773  0.00  0.00    +0.065 C 
ATOM      2  C   UNL     1      34.261 -14.093 -22.945  0.00  0.00    +0.032 C 
ATOM      3  C   UNL     1      33.073 -13.668 -25.007  0.00  0.00    +0.018 C 
ATOM      4  C   UNL     1      34.496 -15.406 -23.352  0.00  0.00    +0.051 C 
ATOM      5  C   UNL     1      34.020 -15.851 -24.585  0.00  0.00    +0.066 C 
ATOM      6  C   UNL     1      33.309 -14.981 -25.413  0.00  0.00    +0.007 C 
ENDROOT
BRANCH   1   8
ATOM      7  O   UNL     1      33.496  -7.345 -23.025  0.00  0.00    -0.291 OA
ATOM      8  N   UNL     1      33.315 -11.906 -23.366  0.00  0.00    -0.310 N 
ATOM      9  C   UNL     1      33.908 -10.798 -23.898  0.00  0.00    +0.044 A 
ATOM     10  C   UNL     1      33.439  -9.687 -23.229  0.00  0.00    +0.048 A 
ATOM     11  C   UNL     1      34.893 -10.810 -25.010  0.00  0.00    +0.045 C 
ATOM     12  C   UNL     1      34.899  -9.426 -25.678  0.00  0.00    +0.014 C 
ATOM     13  C   UNL     1      32.508 -10.138 -22.250  0.00  0.00    +0.020 A 
ATOM     14  C   UNL     1      32.452 -11.533 -22.359  0.00  0.00    +0.064 A 
ATOM     15  C   UNL     1      34.997  -8.286 -24.654  0.00  0.00    +0.070 C 
ATOM     16  C   UNL     1      33.906  -8.357 -23.587  0.00  0.00    +0.174 C 
ATOM     17  C   UNL     1      31.706  -9.506 -21.278  0.00  0.00    +0.002 C 
ATOM     18  C   UNL     1      31.632 -12.321 -21.542  0.00  0.00    +0.018 C 
ATOM     19  C   UNL     1      30.882 -10.283 -20.456  0.00  0.00    +0.000 C 
ATOM     20  C   UNL     1      30.847 -11.668 -20.587  0.00  0.00    +0.001 C 
ENDBRANCH   1   8
BRANCH   5  23
ATOM     21  O   UNL     1      33.483 -17.762 -25.852  0.00  0.00    -0.270 OA
ATOM     22  N   UNL     1      35.361 -17.884 -24.542  0.00  0.00    -0.325 N 
ATOM     23  C   UNL     1      34.247 -17.217 -25.038  0.00  0.00    +0.244 C 
ATOM     24  H   UNL     1      35.548 -18.808 -24.825  0.00  0.00    +0.145 HD
ATOM     25  H   UNL     1      35.963 -17.432 -23.908  0.00  0.00    +0.145 HD
ENDBRANCH   5  23
BRANCH   4  26
ATOM     26  N   UNL     1      35.219 -16.271 -22.501  0.00  0.00    -0.330 N 
ATOM     27  H   UNL     1      36.115 -16.569 -22.780  0.00  0.00    +0.147 HD
BRANCH  26  28
ATOM     28  C   UNL     1      34.706 -16.733 -21.250  0.00  0.00    +0.120 C 
BRANCH  28  29
ATOM     29  C   UNL     1      35.097 -18.186 -21.032  0.00  0.00    +0.163 C 
BRANCH  29  30
ATOM     30  O   UNL     1      34.259 -19.025 -21.817  0.00  0.00    -0.349 OA
ATOM     31  C   UNL     1      33.376 -19.784 -21.004  0.00  0.00    +0.174 C 
ENDBRANCH  29  30
ENDBRANCH  28  29
ENDBRANCH  26  28
ENDBRANCH   4  26
TORSDOF 6
ENDMDL
MODEL 8
REMARK VINA RESULT:      -9.4      4.903      7.860
REMARK  Name = 24812721
REMARK  6 active torsions:
REMARK  status: ('A' for Active; 'I' for Inactive)
REMARK    1  A    between atoms: C_1  and  N_8
REMARK    2  A    between atoms: C_4  and  N_26
REMARK    3  A    between atoms: C_5  and  C_23
REMARK    4  A    between atoms: N_26  and  C_28
REMARK    5  A    between atoms: C_28  and  C_29
REMARK    6  A    between atoms: C_29  and  O_30
REMARK                            x       y       z     vdW  Elec       q    Type
REMARK                         _______ _______ _______ _____ _____    ______ ____
ROOT
ATOM      1  C   UNL     1      34.112 -19.402 -21.065  0.00  0.00    +0.065 C 
ATOM      2  C   UNL     1      35.247 -19.986 -20.503  0.00  0.00    +0.032 C 
ATOM      3  C   UNL     1      32.848 -19.924 -20.789  0.00  0.00    +0.018 C 
ATOM      4  C   UNL     1      35.117 -21.093 -19.665  0.00  0.00    +0.051 C 
ATOM      5  C   UNL     1      33.854 -21.616 -19.388  0.00  0.00    +0.066 C 
ATOM      6  C   UNL     1      32.720 -21.031 -19.951  0.00  0.00    +0.007 C 
ENDROOT
BRANCH   1   8
ATOM      7  O   UNL     1      34.444 -13.988 -23.453  0.00  0.00    -0.291 OA
ATOM      8  N   UNL     1      34.241 -18.291 -21.906  0.00  0.00    -0.310 N 
ATOM      9  C   UNL     1      34.170 -16.987 -21.509  0.00  0.00    +0.044 A 
ATOM     10  C   UNL     1      34.326 -16.183 -22.618  0.00  0.00    +0.048 A 
ATOM     11  C   UNL     1      33.958 -16.534 -20.111  0.00  0.00    +0.045 C 
ATOM     12  C   UNL     1      34.481 -15.096 -19.973  0.00  0.00    +0.014 C 
ATOM     13  C   UNL     1      34.510 -17.036 -23.743  0.00  0.00    +0.020 A 
ATOM     14  C   UNL     1      34.451 -18.351 -23.267  0.00  0.00    +0.064 A 
ATOM     15  C   UNL     1      33.976 -14.183 -21.101  0.00  0.00    +0.070 C 
ATOM     16  C   UNL     1      34.291 -14.735 -22.491  0.00  0.00    +0.174 C 
ATOM     17  C   UNL     1      34.720 -16.828 -25.122  0.00  0.00    +0.002 C 
ATOM     18  C   UNL     1      34.593 -19.464 -24.105  0.00  0.00    +0.018 C 
ATOM     19  C   UNL     1      34.863 -17.932 -25.969  0.00  0.00    +0.000 C 
ATOM     20  C   UNL     1      34.801 -19.229 -25.467  0.00  0.00    +0.001 C 
ENDBRANCH   1   8
BRANCH   5  23
ATOM     21  O   UNL     1      33.901 -23.924 -18.924  0.00  0.00    -0.270 OA
ATOM     22  N   UNL     1      33.294 -22.535 -17.203  0.00  0.00    -0.325 N 
ATOM     23  C   UNL     1      33.686 -22.771 -18.516  0.00  0.00    +0.244 C 
ATOM     24  H   UNL     1      33.170 -23.290 -16.584  0.00  0.00    +0.145 HD
ATOM     25  H   UNL     1      33.141 -21.614 -16.893  0.00  0.00    +0.145 HD
ENDBRANCH   5  23
BRANCH   4  26
ATOM     26  N   UNL     1      36.279 -21.672 -19.106  0.00  0.00    -0.330 N 
ATOM     27  H   UNL     1      36.685 -22.446 -19.559  0.00  0.00    +0.147 HD
BRANCH  26  28
ATOM     28  C   UNL     1      36.889 -21.183 -17.910  0.00  0.00    +0.120 C 
BRANCH  28  29
ATOM     29  C   UNL     1      37.072 -22.320 -16.918  0.00  0.00    +0.163 C 
BRANCH  29  30
ATOM     30  O   UNL     1      36.058 -22.249 -15.923  0.00  0.00    -0.349 OA
ATOM     31  C   UNL     1      36.105 -23.370 -15.052  0.00  0.00    +0.174 C 
ENDBRANCH  29  30
ENDBRANCH  28  29
ENDBRANCH  26  28
ENDBRANCH   4  26
TORSDOF 6
ENDMDL
MODEL 9
REMARK VINA RESULT:      -9.3      1.014      3.202
REMARK  Name = 24812721
REMARK  6 active torsions:
REMARK  status: ('A' for Active; 'I' for Inactive)
REMARK    1  A    between atoms: C_1  and  N_8
REMARK    2  A    between atoms: C_4  and  N_26
REMARK    3  A    between atoms: C_5  and  C_23
REMARK    4  A    between atoms: N_26  and  C_28
REMARK    5  A    between atoms: C_28  and  C_29
REMARK    6  A    between atoms: C_29  and  O_30
REMARK                            x       y       z     vdW  Elec       q    Type
REMARK                         _______ _______ _______ _____ _____    ______ ____
ROOT
ATOM      1  C   UNL     1      36.062 -23.502 -16.126  0.00  0.00    +0.065 C 
ATOM      2  C   UNL     1      35.900 -24.621 -15.310  0.00  0.00    +0.032 C 
ATOM      3  C   UNL     1      37.310 -22.886 -16.227  0.00  0.00    +0.018 C 
ATOM      4  C   UNL     1      36.986 -25.124 -14.594  0.00  0.00    +0.051 C 
ATOM      5  C   UNL     1      38.234 -24.508 -14.693  0.00  0.00    +0.066 C 
ATOM      6  C   UNL     1      38.395 -23.389 -15.510  0.00  0.00    +0.007 C 
ENDROOT
BRANCH   1   8
ATOM      7  O   UNL     1      32.441 -20.831 -19.983  0.00  0.00    -0.291 OA
ATOM      8  N   UNL     1      34.973 -22.998 -16.845  0.00  0.00    -0.310 N 
ATOM      9  C   UNL     1      35.057 -22.250 -17.984  0.00  0.00    +0.044 A 
ATOM     10  C   UNL     1      33.780 -21.925 -18.389  0.00  0.00    +0.048 A 
ATOM     11  C   UNL     1      36.323 -21.862 -18.656  0.00  0.00    +0.045 C 
ATOM     12  C   UNL     1      36.021 -21.538 -20.127  0.00  0.00    +0.014 C 
ATOM     13  C   UNL     1      32.874 -22.510 -17.459  0.00  0.00    +0.020 A 
ATOM     14  C   UNL     1      33.650 -23.175 -16.502  0.00  0.00    +0.064 A 
ATOM     15  C   UNL     1      34.818 -20.596 -20.281  0.00  0.00    +0.070 C 
ATOM     16  C   UNL     1      33.564 -21.124 -19.583  0.00  0.00    +0.174 C 
ATOM     17  C   UNL     1      31.470 -22.544 -17.329  0.00  0.00    +0.002 C 
ATOM     18  C   UNL     1      33.088 -23.870 -15.424  0.00  0.00    +0.018 C 
ATOM     19  C   UNL     1      30.896 -23.235 -16.255  0.00  0.00    +0.000 C 
ATOM     20  C   UNL     1      31.694 -23.887 -15.320  0.00  0.00    +0.001 C 
ENDBRANCH   1   8
BRANCH   5  23
ATOM     21  O   UNL     1      39.813 -24.425 -12.949  0.00  0.00    -0.270 OA
ATOM     22  N   UNL     1      39.985 -26.179 -14.417  0.00  0.00    -0.325 N 
ATOM     23  C   UNL     1      39.388 -25.010 -13.959  0.00  0.00    +0.244 C 
ATOM     24  H   UNL     1      40.767 -26.548 -13.947  0.00  0.00    +0.145 HD
ATOM     25  H   UNL     1      39.626 -26.636 -15.211  0.00  0.00    +0.145 HD
ENDBRANCH   5  23
BRANCH   4  26
ATOM     26  N   UNL     1      36.802 -26.258 -13.770  0.00  0.00    -0.330 N 
ATOM     27  H   UNL     1      36.567 -27.115 -14.193  0.00  0.00    +0.147 HD
BRANCH  26  28
ATOM     28  C   UNL     1      36.942 -26.213 -12.349  0.00  0.00    +0.120 C 
BRANCH  28  29
ATOM     29  C   UNL     1      36.162 -25.035 -11.787  0.00  0.00    +0.163 C 
BRANCH  29  30
ATOM     30  O   UNL     1      37.034 -24.210 -11.025  0.00  0.00    -0.349 OA
ATOM     31  C   UNL     1      37.112 -22.898 -11.565  0.00  0.00    +0.174 C 
ENDBRANCH  29  30
ENDBRANCH  28  29
ENDBRANCH  26  28
ENDBRANCH   4  26
TORSDOF 6
ENDMDL
