MODEL 1
REMARK VINA RESULT:      -7.1      0.000      0.000
REMARK  Name = 5288545
REMARK  7 active torsions:
REMARK  status: ('A' for Active; 'I' for Inactive)
REMARK    1  A    between atoms: C_1  and  C_13
REMARK    2  A    between atoms: C_3  and  O_7
REMARK    3  A    between atoms: C_5  and  O_9
REMARK    4  A    between atoms: C_6  and  O_11
REMARK    5  A    between atoms: C_14  and  C_15
REMARK    6  A    between atoms: C_15  and  O_16
REMARK    7  A    between atoms: C_15  and  O_18
REMARK                            x       y       z     vdW  Elec       q    Type
REMARK                         _______ _______ _______ _____ _____    ______ ____
ROOT
ATOM      1  C   UNL     1      31.544 -23.566 -15.241  0.00  0.00    +0.006 C 
ATOM      2  C   UNL     1      32.386 -23.243 -16.305  0.00  0.00    +0.040 C 
ATOM      3  C   UNL     1      33.765 -23.411 -16.180  0.00  0.00    +0.175 C 
ATOM      4  C   UNL     1      32.080 -24.058 -14.052  0.00  0.00    +0.040 C 
ATOM      5  C   UNL     1      34.302 -23.903 -14.990  0.00  0.00    +0.202 C 
ATOM      6  C   UNL     1      33.460 -24.226 -13.925  0.00  0.00    +0.171 C 
ENDROOT
BRANCH   3   7
ATOM      7  O   UNL     1      34.577 -23.092 -17.226  0.00  0.00    -0.468 OA
ATOM      8  C   UNL     1      33.943 -22.674 -18.433  0.00  0.00    +0.253 C 
ENDBRANCH   3   7
BRANCH   5   9
ATOM      9  O   UNL     1      35.649 -24.068 -14.866  0.00  0.00    -0.501 OA
ATOM     10  H   UNL     1      36.230 -23.652 -15.474  0.00  0.00    +0.292 HD
ENDBRANCH   5   9
BRANCH   6  11
ATOM     11  O   UNL     1      33.971 -24.707 -12.758  0.00  0.00    -0.503 OA
ATOM     12  H   UNL     1      34.175 -25.618 -12.677  0.00  0.00    +0.292 HD
ENDBRANCH   6  11
BRANCH   1  13
ATOM     13  C   UNL     1      30.106 -23.390 -15.372  0.00  0.00    +0.001 C 
ATOM     14  C   UNL     1      29.439 -23.159 -16.527  0.00  0.00    +0.034 C 
BRANCH  14  15
ATOM     15  C   UNL     1      27.954 -22.975 -16.611  0.00  0.00    +0.253 C 
BRANCH  15  16
ATOM     16  O   UNL     1      27.471 -23.785 -17.675  0.00  0.00    -0.357 OA
ATOM     17  H   UNL     1      26.716 -24.309 -17.366  0.00  0.00    +0.213 HD
ENDBRANCH  15  16
BRANCH  15  18
ATOM     18  O   UNL     1      27.694 -21.600 -16.864  0.00  0.00    -0.357 OA
ATOM     19  H   UNL     1      27.376 -21.493 -17.774  0.00  0.00    +0.213 HD
ENDBRANCH  15  18
ENDBRANCH  14  15
ENDBRANCH   1  13
TORSDOF 7
ENDMDL
MODEL 2
REMARK VINA RESULT:      -7.0      6.444      9.341
REMARK  Name = 5288545
REMARK  7 active torsions:
REMARK  status: ('A' for Active; 'I' for Inactive)
REMARK    1  A    between atoms: C_1  and  C_13
REMARK    2  A    between atoms: C_3  and  O_7
REMARK    3  A    between atoms: C_5  and  O_9
REMARK    4  A    between atoms: C_6  and  O_11
REMARK    5  A    between atoms: C_14  and  C_15
REMARK    6  A    between atoms: C_15  and  O_16
REMARK    7  A    between atoms: C_15  and  O_18
REMARK                            x       y       z     vdW  Elec       q    Type
REMARK                         _______ _______ _______ _____ _____    ______ ____
ROOT
ATOM      1  C   UNL     1      34.791 -18.923 -21.655  0.00  0.00    +0.006 C 
ATOM      2  C   UNL     1      34.822 -17.736 -20.923  0.00  0.00    +0.040 C 
ATOM      3  C   UNL     1      34.889 -16.510 -21.584  0.00  0.00    +0.175 C 
ATOM      4  C   UNL     1      34.828 -18.884 -23.048  0.00  0.00    +0.040 C 
ATOM      5  C   UNL     1      34.925 -16.470 -22.978  0.00  0.00    +0.202 C 
ATOM      6  C   UNL     1      34.896 -17.658 -23.710  0.00  0.00    +0.171 C 
ENDROOT
BRANCH   3   7
ATOM      7  O   UNL     1      34.917 -15.357 -20.858  0.00  0.00    -0.468 OA
ATOM      8  C   UNL     1      33.661 -14.765 -20.533  0.00  0.00    +0.253 C 
ENDBRANCH   3   7
BRANCH   5   9
ATOM      9  O   UNL     1      34.991 -15.272 -23.625  0.00  0.00    -0.501 OA
ATOM     10  H   UNL     1      34.437 -15.107 -24.363  0.00  0.00    +0.292 HD
ENDBRANCH   5   9
BRANCH   6  11
ATOM     11  O   UNL     1      34.931 -17.633 -25.071  0.00  0.00    -0.503 OA
ATOM     12  H   UNL     1      34.147 -17.780 -25.563  0.00  0.00    +0.292 HD
ENDBRANCH   6  11
BRANCH   1  13
ATOM     13  C   UNL     1      34.721 -20.201 -20.965  0.00  0.00    +0.001 C 
ATOM     14  C   UNL     1      33.700 -20.625 -20.185  0.00  0.00    +0.034 C 
BRANCH  14  15
ATOM     15  C   UNL     1      33.676 -21.950 -19.485  0.00  0.00    +0.253 C 
BRANCH  15  16
ATOM     16  O   UNL     1      32.506 -22.000 -18.681  0.00  0.00    -0.357 OA
ATOM     17  H   UNL     1      32.053 -21.143 -18.713  0.00  0.00    +0.213 HD
ENDBRANCH  15  16
BRANCH  15  18
ATOM     18  O   UNL     1      34.846 -22.045 -18.683  0.00  0.00    -0.357 OA
ATOM     19  H   UNL     1      35.531 -21.457 -19.039  0.00  0.00    +0.213 HD
ENDBRANCH  15  18
ENDBRANCH  14  15
ENDBRANCH   1  13
TORSDOF 7
ENDMDL
MODEL 3
REMARK VINA RESULT:      -7.0      4.377      7.135
REMARK  Name = 5288545
REMARK  7 active torsions:
REMARK  status: ('A' for Active; 'I' for Inactive)
REMARK    1  A    between atoms: C_1  and  C_13
REMARK    2  A    between atoms: C_3  and  O_7
REMARK    3  A    between atoms: C_5  and  O_9
REMARK    4  A    between atoms: C_6  and  O_11
REMARK    5  A    between atoms: C_14  and  C_15
REMARK    6  A    between atoms: C_15  and  O_16
REMARK    7  A    between atoms: C_15  and  O_18
REMARK                            x       y       z     vdW  Elec       q    Type
REMARK                         _______ _______ _______ _____ _____    ______ ____
ROOT
ATOM      1  C   UNL     1      35.181 -20.570 -20.212  0.00  0.00    +0.006 C 
ATOM      2  C   UNL     1      36.261 -21.003 -19.444  0.00  0.00    +0.040 C 
ATOM      3  C   UNL     1      36.057 -21.904 -18.399  0.00  0.00    +0.175 C 
ATOM      4  C   UNL     1      33.896 -21.037 -19.937  0.00  0.00    +0.040 C 
ATOM      5  C   UNL     1      34.772 -22.372 -18.123  0.00  0.00    +0.202 C 
ATOM      6  C   UNL     1      33.691 -21.938 -18.891  0.00  0.00    +0.171 C 
ENDROOT
BRANCH   3   7
ATOM      7  O   UNL     1      37.120 -22.321 -17.655  0.00  0.00    -0.468 OA
ATOM      8  C   UNL     1      37.399 -21.593 -16.461  0.00  0.00    +0.253 C 
ENDBRANCH   3   7
BRANCH   5   9
ATOM      9  O   UNL     1      34.571 -23.252 -17.102  0.00  0.00    -0.501 OA
ATOM     10  H   UNL     1      35.018 -24.076 -17.099  0.00  0.00    +0.292 HD
ENDBRANCH   5   9
BRANCH   6  11
ATOM     11  O   UNL     1      32.432 -22.387 -18.632  0.00  0.00    -0.503 OA
ATOM     12  H   UNL     1      31.750 -21.778 -18.428  0.00  0.00    +0.292 HD
ENDBRANCH   6  11
BRANCH   1  13
ATOM     13  C   UNL     1      35.394 -19.631 -21.302  0.00  0.00    +0.001 C 
ATOM     14  C   UNL     1      34.513 -19.351 -22.291  0.00  0.00    +0.034 C 
BRANCH  14  15
ATOM     15  C   UNL     1      34.782 -18.381 -23.401  0.00  0.00    +0.253 C 
BRANCH  15  16
ATOM     16  O   UNL     1      34.611 -19.066 -24.634  0.00  0.00    -0.357 OA
ATOM     17  H   UNL     1      33.850 -19.663 -24.569  0.00  0.00    +0.213 HD
ENDBRANCH  15  16
BRANCH  15  18
ATOM     18  O   UNL     1      36.118 -17.913 -23.262  0.00  0.00    -0.357 OA
ATOM     19  H   UNL     1      36.550 -18.382 -22.532  0.00  0.00    +0.213 HD
ENDBRANCH  15  18
ENDBRANCH  14  15
ENDBRANCH   1  13
TORSDOF 7
ENDMDL
MODEL 4
REMARK VINA RESULT:      -6.9      1.900      5.538
REMARK  Name = 5288545
REMARK  7 active torsions:
REMARK  status: ('A' for Active; 'I' for Inactive)
REMARK    1  A    between atoms: C_1  and  C_13
REMARK    2  A    between atoms: C_3  and  O_7
REMARK    3  A    between atoms: C_5  and  O_9
REMARK    4  A    between atoms: C_6  and  O_11
REMARK    5  A    between atoms: C_14  and  C_15
REMARK    6  A    between atoms: C_15  and  O_16
REMARK    7  A    between atoms: C_15  and  O_18
REMARK                            x       y       z     vdW  Elec       q    Type
REMARK                         _______ _______ _______ _____ _____    ______ ____
ROOT
ATOM      1  C   UNL     1      33.371 -23.711 -14.921  0.00  0.00    +0.006 C 
ATOM      2  C   UNL     1      33.530 -23.333 -16.254  0.00  0.00    +0.040 C 
ATOM      3  C   UNL     1      32.427 -22.913 -16.997  0.00  0.00    +0.175 C 
ATOM      4  C   UNL     1      32.109 -23.670 -14.330  0.00  0.00    +0.040 C 
ATOM      5  C   UNL     1      31.164 -22.872 -16.406  0.00  0.00    +0.202 C 
ATOM      6  C   UNL     1      31.004 -23.251 -15.072  0.00  0.00    +0.171 C 
ENDROOT
BRANCH   3   7
ATOM      7  O   UNL     1      32.595 -22.546 -18.298  0.00  0.00    -0.468 OA
ATOM      8  C   UNL     1      33.923 -22.585 -18.815  0.00  0.00    +0.253 C 
ENDBRANCH   3   7
BRANCH   5   9
ATOM      9  O   UNL     1      30.084 -22.462 -17.131  0.00  0.00    -0.501 OA
ATOM     10  H   UNL     1      29.221 -22.718 -16.870  0.00  0.00    +0.292 HD
ENDBRANCH   5   9
BRANCH   6  11
ATOM     11  O   UNL     1      29.777 -23.215 -14.484  0.00  0.00    -0.503 OA
ATOM     12  H   UNL     1      29.238 -22.454 -14.569  0.00  0.00    +0.292 HD
ENDBRANCH   6  11
BRANCH   1  13
ATOM     13  C   UNL     1      34.522 -24.148 -14.147  0.00  0.00    +0.001 C 
ATOM     14  C   UNL     1      34.574 -24.261 -12.799  0.00  0.00    +0.034 C 
BRANCH  14  15
ATOM     15  C   UNL     1      35.788 -24.707 -12.044  0.00  0.00    +0.253 C 
BRANCH  15  16
ATOM     16  O   UNL     1      36.281 -25.888 -12.662  0.00  0.00    -0.357 OA
ATOM     17  H   UNL     1      37.219 -26.001 -12.444  0.00  0.00    +0.213 HD
ENDBRANCH  15  16
BRANCH  15  18
ATOM     18  O   UNL     1      35.401 -24.964 -10.700  0.00  0.00    -0.357 OA
ATOM     19  H   UNL     1      34.435 -25.044 -10.652  0.00  0.00    +0.213 HD
ENDBRANCH  15  18
ENDBRANCH  14  15
ENDBRANCH   1  13
TORSDOF 7
ENDMDL
MODEL 5
REMARK VINA RESULT:      -6.8      6.912      9.590
REMARK  Name = 5288545
REMARK  7 active torsions:
REMARK  status: ('A' for Active; 'I' for Inactive)
REMARK    1  A    between atoms: C_1  and  C_13
REMARK    2  A    between atoms: C_3  and  O_7
REMARK    3  A    between atoms: C_5  and  O_9
REMARK    4  A    between atoms: C_6  and  O_11
REMARK    5  A    between atoms: C_14  and  C_15
REMARK    6  A    between atoms: C_15  and  O_16
REMARK    7  A    between atoms: C_15  and  O_18
REMARK                            x       y       z     vdW  Elec       q    Type
REMARK                         _______ _______ _______ _____ _____    ______ ____
ROOT
ATOM      1  C   UNL     1      34.763 -18.414 -21.851  0.00  0.00    +0.006 C 
ATOM      2  C   UNL     1      34.817 -18.119 -23.213  0.00  0.00    +0.040 C 
ATOM      3  C   UNL     1      34.862 -16.791 -23.638  0.00  0.00    +0.175 C 
ATOM      4  C   UNL     1      34.755 -17.382 -20.914  0.00  0.00    +0.040 C 
ATOM      5  C   UNL     1      34.854 -15.758 -22.700  0.00  0.00    +0.202 C 
ATOM      6  C   UNL     1      34.799 -16.054 -21.338  0.00  0.00    +0.171 C 
ENDROOT
BRANCH   3   7
ATOM      7  O   UNL     1      34.914 -16.516 -24.971  0.00  0.00    -0.468 OA
ATOM      8  C   UNL     1      33.686 -16.169 -25.609  0.00  0.00    +0.253 C 
ENDBRANCH   3   7
BRANCH   5   9
ATOM      9  O   UNL     1      34.897 -14.461 -23.115  0.00  0.00    -0.501 OA
ATOM     10  H   UNL     1      35.723 -14.029 -23.218  0.00  0.00    +0.292 HD
ENDBRANCH   5   9
BRANCH   6  11
ATOM     11  O   UNL     1      34.791 -15.055 -20.412  0.00  0.00    -0.503 OA
ATOM     12  H   UNL     1      35.158 -15.200 -19.562  0.00  0.00    +0.292 HD
ENDBRANCH   6  11
BRANCH   1  13
ATOM     13  C   UNL     1      34.717 -19.799 -21.409  0.00  0.00    +0.001 C 
ATOM     14  C   UNL     1      34.129 -20.249 -20.276  0.00  0.00    +0.034 C 
BRANCH  14  15
ATOM     15  C   UNL     1      34.115 -21.687 -19.855  0.00  0.00    +0.253 C 
BRANCH  15  16
ATOM     16  O   UNL     1      32.835 -21.972 -19.309  0.00  0.00    -0.357 OA
ATOM     17  H   UNL     1      32.898 -22.741 -18.720  0.00  0.00    +0.213 HD
ENDBRANCH  15  16
BRANCH  15  18
ATOM     18  O   UNL     1      35.134 -21.871 -18.881  0.00  0.00    -0.357 OA
ATOM     19  H   UNL     1      35.972 -22.073 -19.324  0.00  0.00    +0.213 HD
ENDBRANCH  15  18
ENDBRANCH  14  15
ENDBRANCH   1  13
TORSDOF 7
ENDMDL
MODEL 6
REMARK VINA RESULT:      -6.8      6.773     10.061
REMARK  Name = 5288545
REMARK  7 active torsions:
REMARK  status: ('A' for Active; 'I' for Inactive)
REMARK    1  A    between atoms: C_1  and  C_13
REMARK    2  A    between atoms: C_3  and  O_7
REMARK    3  A    between atoms: C_5  and  O_9
REMARK    4  A    between atoms: C_6  and  O_11
REMARK    5  A    between atoms: C_14  and  C_15
REMARK    6  A    between atoms: C_15  and  O_16
REMARK    7  A    between atoms: C_15  and  O_18
REMARK                            x       y       z     vdW  Elec       q    Type
REMARK                         _______ _______ _______ _____ _____    ______ ____
ROOT
ATOM      1  C   UNL     1      34.993 -18.759 -21.926  0.00  0.00    +0.006 C 
ATOM      2  C   UNL     1      34.899 -17.507 -21.318  0.00  0.00    +0.040 C 
ATOM      3  C   UNL     1      34.708 -16.366 -22.097  0.00  0.00    +0.175 C 
ATOM      4  C   UNL     1      34.895 -18.870 -23.312  0.00  0.00    +0.040 C 
ATOM      5  C   UNL     1      34.611 -16.476 -23.484  0.00  0.00    +0.202 C 
ATOM      6  C   UNL     1      34.705 -17.729 -24.092  0.00  0.00    +0.171 C 
ENDROOT
BRANCH   3   7
ATOM      7  O   UNL     1      34.618 -15.148 -21.491  0.00  0.00    -0.468 OA
ATOM      8  C   UNL     1      33.383 -14.833 -20.853  0.00  0.00    +0.253 C 
ENDBRANCH   3   7
BRANCH   5   9
ATOM      9  O   UNL     1      34.425 -15.361 -24.246  0.00  0.00    -0.501 OA
ATOM     10  H   UNL     1      35.137 -14.768 -24.389  0.00  0.00    +0.292 HD
ENDBRANCH   5   9
BRANCH   6  11
ATOM     11  O   UNL     1      34.611 -17.850 -25.445  0.00  0.00    -0.503 OA
ATOM     12  H   UNL     1      33.848 -17.543 -25.892  0.00  0.00    +0.292 HD
ENDBRANCH   6  11
BRANCH   1  13
ATOM     13  C   UNL     1      35.191 -19.949 -21.113  0.00  0.00    +0.001 C 
ATOM     14  C   UNL     1      36.239 -20.179 -20.289  0.00  0.00    +0.034 C 
BRANCH  14  15
ATOM     15  C   UNL     1      36.405 -21.428 -19.477  0.00  0.00    +0.253 C 
BRANCH  15  16
ATOM     16  O   UNL     1      35.174 -22.137 -19.506  0.00  0.00    -0.357 OA
ATOM     17  H   UNL     1      34.523 -21.676 -18.955  0.00  0.00    +0.213 HD
ENDBRANCH  15  16
BRANCH  15  18
ATOM     18  O   UNL     1      36.740 -21.048 -18.149  0.00  0.00    -0.357 OA
ATOM     19  H   UNL     1      37.328 -20.277 -18.172  0.00  0.00    +0.213 HD
ENDBRANCH  15  18
ENDBRANCH  14  15
ENDBRANCH   1  13
TORSDOF 7
ENDMDL
MODEL 7
REMARK VINA RESULT:      -6.8     10.087     12.367
REMARK  Name = 5288545
REMARK  7 active torsions:
REMARK  status: ('A' for Active; 'I' for Inactive)
REMARK    1  A    between atoms: C_1  and  C_13
REMARK    2  A    between atoms: C_3  and  O_7
REMARK    3  A    between atoms: C_5  and  O_9
REMARK    4  A    between atoms: C_6  and  O_11
REMARK    5  A    between atoms: C_14  and  C_15
REMARK    6  A    between atoms: C_15  and  O_16
REMARK    7  A    between atoms: C_15  and  O_18
REMARK                            x       y       z     vdW  Elec       q    Type
REMARK                         _______ _______ _______ _____ _____    ______ ____
ROOT
ATOM      1  C   UNL     1      33.293 -14.038 -23.557  0.00  0.00    +0.006 C 
ATOM      2  C   UNL     1      34.089 -14.958 -22.876  0.00  0.00    +0.040 C 
ATOM      3  C   UNL     1      34.589 -16.076 -23.543  0.00  0.00    +0.175 C 
ATOM      4  C   UNL     1      32.995 -14.236 -24.905  0.00  0.00    +0.040 C 
ATOM      5  C   UNL     1      34.292 -16.275 -24.891  0.00  0.00    +0.202 C 
ATOM      6  C   UNL     1      33.495 -15.355 -25.573  0.00  0.00    +0.171 C 
ENDROOT
BRANCH   3   7
ATOM      7  O   UNL     1      35.367 -16.968 -22.866  0.00  0.00    -0.468 OA
ATOM      8  C   UNL     1      35.110 -17.123 -21.472  0.00  0.00    +0.253 C 
ENDBRANCH   3   7
BRANCH   5   9
ATOM      9  O   UNL     1      34.780 -17.368 -25.543  0.00  0.00    -0.501 OA
ATOM     10  H   UNL     1      34.368 -18.203 -25.432  0.00  0.00    +0.292 HD
ENDBRANCH   5   9
BRANCH   6  11
ATOM     11  O   UNL     1      33.198 -15.537 -26.889  0.00  0.00    -0.503 OA
ATOM     12  H   UNL     1      32.517 -15.033 -27.290  0.00  0.00    +0.292 HD
ENDBRANCH   6  11
BRANCH   1  13
ATOM     13  C   UNL     1      32.772 -12.872 -22.862  0.00  0.00    +0.001 C 
ATOM     14  C   UNL     1      32.090 -12.885 -21.693  0.00  0.00    +0.034 C 
BRANCH  14  15
ATOM     15  C   UNL     1      31.563 -11.655 -21.018  0.00  0.00    +0.253 C 
BRANCH  15  16
ATOM     16  O   UNL     1      31.714 -11.826 -19.616  0.00  0.00    -0.357 OA
ATOM     17  H   UNL     1      31.499 -10.995 -19.164  0.00  0.00    +0.213 HD
ENDBRANCH  15  16
BRANCH  15  18
ATOM     18  O   UNL     1      30.191 -11.515 -21.367  0.00  0.00    -0.357 OA
ATOM     19  H   UNL     1      29.692 -11.208 -20.594  0.00  0.00    +0.213 HD
ENDBRANCH  15  18
ENDBRANCH  14  15
ENDBRANCH   1  13
TORSDOF 7
ENDMDL
MODEL 8
REMARK VINA RESULT:      -6.8      1.061      2.847
REMARK  Name = 5288545
REMARK  7 active torsions:
REMARK  status: ('A' for Active; 'I' for Inactive)
REMARK    1  A    between atoms: C_1  and  C_13
REMARK    2  A    between atoms: C_3  and  O_7
REMARK    3  A    between atoms: C_5  and  O_9
REMARK    4  A    between atoms: C_6  and  O_11
REMARK    5  A    between atoms: C_14  and  C_15
REMARK    6  A    between atoms: C_15  and  O_16
REMARK    7  A    between atoms: C_15  and  O_18
REMARK                            x       y       z     vdW  Elec       q    Type
REMARK                         _______ _______ _______ _____ _____    ______ ____
ROOT
ATOM      1  C   UNL     1      32.069 -23.356 -15.888  0.00  0.00    +0.006 C 
ATOM      2  C   UNL     1      32.939 -23.456 -14.802  0.00  0.00    +0.040 C 
ATOM      3  C   UNL     1      34.316 -23.355 -14.999  0.00  0.00    +0.175 C 
ATOM      4  C   UNL     1      32.576 -23.156 -17.171  0.00  0.00    +0.040 C 
ATOM      5  C   UNL     1      34.824 -23.154 -16.283  0.00  0.00    +0.202 C 
ATOM      6  C   UNL     1      33.954 -23.055 -17.369  0.00  0.00    +0.171 C 
ENDROOT
BRANCH   3   7
ATOM      7  O   UNL     1      35.155 -23.454 -13.930  0.00  0.00    -0.468 OA
ATOM      8  C   UNL     1      34.683 -24.188 -12.802  0.00  0.00    +0.253 C 
ENDBRANCH   3   7
BRANCH   5   9
ATOM      9  O   UNL     1      36.169 -23.056 -16.476  0.00  0.00    -0.501 OA
ATOM     10  H   UNL     1      36.513 -22.402 -17.053  0.00  0.00    +0.292 HD
ENDBRANCH   5   9
BRANCH   6  11
ATOM     11  O   UNL     1      34.437 -22.859 -18.627  0.00  0.00    -0.503 OA
ATOM     12  H   UNL     1      33.892 -22.471 -19.283  0.00  0.00    +0.292 HD
ENDBRANCH   6  11
BRANCH   1  13
ATOM     13  C   UNL     1      30.634 -23.461 -15.682  0.00  0.00    +0.001 C 
ATOM     14  C   UNL     1      29.677 -23.023 -16.534  0.00  0.00    +0.034 C 
BRANCH  14  15
ATOM     15  C   UNL     1      28.207 -23.145 -16.273  0.00  0.00    +0.253 C 
BRANCH  15  16
ATOM     16  O   UNL     1      27.576 -23.527 -17.488  0.00  0.00    -0.357 OA
ATOM     17  H   UNL     1      26.779 -24.042 -17.291  0.00  0.00    +0.213 HD
ENDBRANCH  15  16
BRANCH  15  18
ATOM     18  O   UNL     1      27.732 -21.879 -15.833  0.00  0.00    -0.357 OA
ATOM     19  H   UNL     1      27.112 -22.005 -15.097  0.00  0.00    +0.213 HD
ENDBRANCH  15  18
ENDBRANCH  14  15
ENDBRANCH   1  13
TORSDOF 7
ENDMDL
MODEL 9
REMARK VINA RESULT:      -6.8      3.276      4.855
REMARK  Name = 5288545
REMARK  7 active torsions:
REMARK  status: ('A' for Active; 'I' for Inactive)
REMARK    1  A    between atoms: C_1  and  C_13
REMARK    2  A    between atoms: C_3  and  O_7
REMARK    3  A    between atoms: C_5  and  O_9
REMARK    4  A    between atoms: C_6  and  O_11
REMARK    5  A    between atoms: C_14  and  C_15
REMARK    6  A    between atoms: C_15  and  O_16
REMARK    7  A    between atoms: C_15  and  O_18
REMARK                            x       y       z     vdW  Elec       q    Type
REMARK                         _______ _______ _______ _____ _____    ______ ____
ROOT
ATOM      1  C   UNL     1      35.805 -23.559 -15.096  0.00  0.00    +0.006 C 
ATOM      2  C   UNL     1      37.183 -23.732 -14.968  0.00  0.00    +0.040 C 
ATOM      3  C   UNL     1      37.711 -24.305 -13.812  0.00  0.00    +0.175 C 
ATOM      4  C   UNL     1      34.954 -23.960 -14.066  0.00  0.00    +0.040 C 
ATOM      5  C   UNL     1      36.860 -24.706 -12.781  0.00  0.00    +0.202 C 
ATOM      6  C   UNL     1      35.481 -24.533 -12.908  0.00  0.00    +0.171 C 
ENDROOT
BRANCH   3   7
ATOM      7  O   UNL     1      39.059 -24.468 -13.699  0.00  0.00    -0.468 OA
ATOM      8  C   UNL     1      39.635 -25.579 -14.382  0.00  0.00    +0.253 C 
ENDBRANCH   3   7
BRANCH   5   9
ATOM      9  O   UNL     1      37.375 -25.265 -11.650  0.00  0.00    -0.501 OA
ATOM     10  H   UNL     1      37.796 -26.102 -11.691  0.00  0.00    +0.292 HD
ENDBRANCH   5   9
BRANCH   6  11
ATOM     11  O   UNL     1      34.639 -24.920 -11.910  0.00  0.00    -0.503 OA
ATOM     12  H   UNL     1      34.981 -25.133 -11.065  0.00  0.00    +0.292 HD
ENDBRANCH   6  11
BRANCH   1  13
ATOM     13  C   UNL     1      35.255 -22.962 -16.302  0.00  0.00    +0.001 C 
ATOM     14  C   UNL     1      34.106 -23.331 -16.916  0.00  0.00    +0.034 C 
BRANCH  14  15
ATOM     15  C   UNL     1      33.584 -22.691 -18.166  0.00  0.00    +0.253 C 
BRANCH  15  16
ATOM     16  O   UNL     1      32.185 -22.498 -18.008  0.00  0.00    -0.357 OA
ATOM     17  H   UNL     1      31.712 -23.286 -18.319  0.00  0.00    +0.213 HD
ENDBRANCH  15  16
BRANCH  15  18
ATOM     18  O   UNL     1      33.854 -23.565 -19.254  0.00  0.00    -0.357 OA
ATOM     19  H   UNL     1      33.232 -24.308 -19.234  0.00  0.00    +0.213 HD
ENDBRANCH  15  18
ENDBRANCH  14  15
ENDBRANCH   1  13
TORSDOF 7
ENDMDL
