MODEL 1
REMARK VINA RESULT:      -9.8      0.000      0.000
REMARK  Name = 24836813
REMARK  5 active torsions:
REMARK  status: ('A' for Active; 'I' for Inactive)
REMARK    1  A    between atoms: N_1  and  C_15
REMARK    2  A    between atoms: N_2  and  C_21
REMARK    3  A    between atoms: C_24  and  O_27
REMARK    4  A    between atoms: C_25  and  O_29
REMARK    5  A    between atoms: C_26  and  O_31
REMARK                            x       y       z     vdW  Elec       q    Type
REMARK                         _______ _______ _______ _____ _____    ______ ____
ROOT
ATOM      1  N   UNL     1      34.582 -24.591 -13.053  0.00  0.00    -0.284 N 
ATOM      2  N   UNL     1      32.545 -23.150 -17.062  0.00  0.00    -0.247 N 
ATOM      3  N   UNL     1      33.578 -23.858 -15.077  0.00  0.00    -0.322 NA
ATOM      4  N   UNL     1      31.216 -24.185 -15.429  0.00  0.00    -0.170 NA
ATOM      5  C   UNL     1      33.442 -24.447 -13.872  0.00  0.00    +0.198 C 
ATOM      6  C   UNL     1      32.441 -23.761 -15.793  0.00  0.00    +0.150 C 
ATOM      7  C   UNL     1      32.243 -24.923 -13.381  0.00  0.00    +0.070 C 
ATOM      8  C   UNL     1      31.153 -24.763 -14.211  0.00  0.00    +0.116 C 
ATOM      9  H   UNL     1      34.380 -24.575 -12.089  0.00  0.00    +0.155 HD
ATOM     10  H   UNL     1      31.691 -23.100 -17.549  0.00  0.00    +0.165 HD
ENDROOT
BRANCH   1  15
ATOM     11 CL   UNL     1      36.531 -22.890 -11.434  0.00  0.00    -0.081 Cl
ATOM     12  O   UNL     1      35.542 -26.431 -15.065  0.00  0.00    -0.433 OA
ATOM     13  O   UNL     1      37.870 -26.747 -15.599  0.00  0.00    -0.435 OA
ATOM     14  C   UNL     1      36.357 -25.644 -14.311  0.00  0.00    +0.191 C 
ATOM     15  C   UNL     1      35.950 -24.753 -13.339  0.00  0.00    +0.098 C 
ATOM     16  C   UNL     1      37.687 -25.825 -14.617  0.00  0.00    +0.178 C 
ATOM     17  C   UNL     1      36.939 -24.031 -12.667  0.00  0.00    +0.074 C 
ATOM     18  C   UNL     1      38.682 -25.123 -13.967  0.00  0.00    +0.041 C 
ATOM     19  C   UNL     1      36.508 -27.126 -15.880  0.00  0.00    +0.429 C 
ATOM     20  C   UNL     1      38.297 -24.216 -12.979  0.00  0.00    +0.016 C 
ENDBRANCH   1  15
BRANCH   2  21
ATOM     21  C   UNL     1      33.631 -22.597 -17.767  0.00  0.00    +0.064 C 
ATOM     22  C   UNL     1      34.919 -22.680 -17.239  0.00  0.00    +0.055 C 
ATOM     23  C   UNL     1      33.418 -21.964 -18.991  0.00  0.00    +0.055 C 
ATOM     24  C   UNL     1      35.782 -21.497 -19.160  0.00  0.00    +0.206 C 
ATOM     25  C   UNL     1      34.494 -21.415 -19.688  0.00  0.00    +0.177 C 
ATOM     26  C   UNL     1      35.995 -22.130 -17.936  0.00  0.00    +0.177 C 
BRANCH  24  27
ATOM     27  O   UNL     1      36.834 -20.959 -19.841  0.00  0.00    -0.465 OA
ATOM     28  C   UNL     1      36.765 -19.567 -20.142  0.00  0.00    +0.253 C 
ENDBRANCH  24  27
BRANCH  25  29
ATOM     29  O   UNL     1      34.273 -20.799 -20.883  0.00  0.00    -0.468 OA
ATOM     30  C   UNL     1      33.174 -19.893 -20.952  0.00  0.00    +0.253 C 
ENDBRANCH  25  29
BRANCH  26  31
ATOM     31  O   UNL     1      37.249 -22.218 -17.408  0.00  0.00    -0.468 OA
ATOM     32  C   UNL     1      37.352 -22.269 -15.987  0.00  0.00    +0.253 C 
ENDBRANCH  26  31
ENDBRANCH   2  21
TORSDOF 5
ENDMDL
MODEL 2
REMARK VINA RESULT:      -9.8      0.006      2.343
REMARK  Name = 24836813
REMARK  5 active torsions:
REMARK  status: ('A' for Active; 'I' for Inactive)
REMARK    1  A    between atoms: N_1  and  C_15
REMARK    2  A    between atoms: N_2  and  C_21
REMARK    3  A    between atoms: C_24  and  O_27
REMARK    4  A    between atoms: C_25  and  O_29
REMARK    5  A    between atoms: C_26  and  O_31
REMARK                            x       y       z     vdW  Elec       q    Type
REMARK                         _______ _______ _______ _____ _____    ______ ____
ROOT
ATOM      1  N   UNL     1      34.576 -24.594 -13.054  0.00  0.00    -0.284 N 
ATOM      2  N   UNL     1      32.542 -23.151 -17.065  0.00  0.00    -0.247 N 
ATOM      3  N   UNL     1      33.573 -23.860 -15.079  0.00  0.00    -0.322 NA
ATOM      4  N   UNL     1      31.212 -24.189 -15.434  0.00  0.00    -0.170 NA
ATOM      5  C   UNL     1      33.437 -24.451 -13.874  0.00  0.00    +0.198 C 
ATOM      6  C   UNL     1      32.437 -23.764 -15.797  0.00  0.00    +0.150 C 
ATOM      7  C   UNL     1      32.238 -24.929 -13.386  0.00  0.00    +0.070 C 
ATOM      8  C   UNL     1      31.148 -24.769 -14.217  0.00  0.00    +0.116 C 
ATOM      9  H   UNL     1      34.373 -24.579 -12.091  0.00  0.00    +0.155 HD
ATOM     10  H   UNL     1      31.689 -23.102 -17.552  0.00  0.00    +0.165 HD
ENDROOT
BRANCH   1  15
ATOM     11 CL   UNL     1      36.521 -22.893 -11.431  0.00  0.00    -0.081 Cl
ATOM     12  O   UNL     1      35.541 -26.430 -15.067  0.00  0.00    -0.433 OA
ATOM     13  O   UNL     1      37.870 -26.743 -15.600  0.00  0.00    -0.435 OA
ATOM     14  C   UNL     1      36.354 -25.644 -14.312  0.00  0.00    +0.191 C 
ATOM     15  C   UNL     1      35.944 -24.754 -13.340  0.00  0.00    +0.098 C 
ATOM     16  C   UNL     1      37.684 -25.823 -14.616  0.00  0.00    +0.178 C 
ATOM     17  C   UNL     1      36.932 -24.032 -12.665  0.00  0.00    +0.074 C 
ATOM     18  C   UNL     1      38.678 -25.121 -13.964  0.00  0.00    +0.041 C 
ATOM     19  C   UNL     1      36.508 -27.124 -15.883  0.00  0.00    +0.429 C 
ATOM     20  C   UNL     1      38.290 -24.215 -12.975  0.00  0.00    +0.016 C 
ENDBRANCH   1  15
BRANCH   2  21
ATOM     21  C   UNL     1      33.628 -22.596 -17.767  0.00  0.00    +0.064 C 
ATOM     22  C   UNL     1      33.416 -21.964 -18.992  0.00  0.00    +0.055 C 
ATOM     23  C   UNL     1      34.916 -22.680 -17.239  0.00  0.00    +0.055 C 
ATOM     24  C   UNL     1      35.781 -21.499 -19.162  0.00  0.00    +0.206 C 
ATOM     25  C   UNL     1      35.992 -22.130 -17.937  0.00  0.00    +0.177 C 
ATOM     26  C   UNL     1      34.492 -21.415 -19.690  0.00  0.00    +0.177 C 
BRANCH  24  27
ATOM     27  O   UNL     1      36.833 -20.963 -19.844  0.00  0.00    -0.465 OA
ATOM     28  C   UNL     1      36.763 -19.572 -20.149  0.00  0.00    +0.253 C 
ENDBRANCH  24  27
BRANCH  25  29
ATOM     29  O   UNL     1      37.246 -22.219 -17.410  0.00  0.00    -0.468 OA
ATOM     30  C   UNL     1      37.351 -22.264 -15.989  0.00  0.00    +0.253 C 
ENDBRANCH  25  29
BRANCH  26  31
ATOM     31  O   UNL     1      34.271 -20.801 -20.886  0.00  0.00    -0.468 OA
ATOM     32  C   UNL     1      33.170 -19.896 -20.955  0.00  0.00    +0.253 C 
ENDBRANCH  26  31
ENDBRANCH   2  21
TORSDOF 5
ENDMDL
MODEL 3
REMARK VINA RESULT:      -9.1      1.727      3.220
REMARK  Name = 24836813
REMARK  5 active torsions:
REMARK  status: ('A' for Active; 'I' for Inactive)
REMARK    1  A    between atoms: N_1  and  C_15
REMARK    2  A    between atoms: N_2  and  C_21
REMARK    3  A    between atoms: C_24  and  O_27
REMARK    4  A    between atoms: C_25  and  O_29
REMARK    5  A    between atoms: C_26  and  O_31
REMARK                            x       y       z     vdW  Elec       q    Type
REMARK                         _______ _______ _______ _____ _____    ______ ____
ROOT
ATOM      1  N   UNL     1      34.253 -24.398 -13.422  0.00  0.00    -0.284 N 
ATOM      2  N   UNL     1      32.364 -22.974 -17.509  0.00  0.00    -0.247 N 
ATOM      3  N   UNL     1      33.323 -23.673 -15.484  0.00  0.00    -0.322 NA
ATOM      4  N   UNL     1      30.983 -24.031 -15.934  0.00  0.00    -0.170 NA
ATOM      5  C   UNL     1      33.146 -24.267 -14.287  0.00  0.00    +0.198 C 
ATOM      6  C   UNL     1      32.216 -23.589 -16.246  0.00  0.00    +0.150 C 
ATOM      7  C   UNL     1      31.934 -24.761 -13.847  0.00  0.00    +0.070 C 
ATOM      8  C   UNL     1      30.877 -24.613 -14.721  0.00  0.00    +0.116 C 
ATOM      9  H   UNL     1      34.011 -24.387 -12.467  0.00  0.00    +0.155 HD
ATOM     10  H   UNL     1      31.531 -22.934 -18.030  0.00  0.00    +0.165 HD
ENDROOT
BRANCH   1  15
ATOM     11 CL   UNL     1      35.075 -26.208 -15.738  0.00  0.00    -0.081 Cl
ATOM     12  O   UNL     1      36.245 -23.063 -11.808  0.00  0.00    -0.433 OA
ATOM     13  O   UNL     1      38.621 -23.273 -12.155  0.00  0.00    -0.435 OA
ATOM     14  C   UNL     1      36.545 -23.883 -12.851  0.00  0.00    +0.191 C 
ATOM     15  C   UNL     1      35.634 -24.541 -13.652  0.00  0.00    +0.098 C 
ATOM     16  C   UNL     1      37.902 -24.002 -13.050  0.00  0.00    +0.178 C 
ATOM     17  C   UNL     1      36.135 -25.341 -14.681  0.00  0.00    +0.074 C 
ATOM     18  C   UNL     1      38.421 -24.787 -14.059  0.00  0.00    +0.041 C 
ATOM     19  C   UNL     1      37.565 -22.681 -11.370  0.00  0.00    +0.429 C 
ATOM     20  C   UNL     1      37.520 -25.463 -14.884  0.00  0.00    +0.016 C 
ENDBRANCH   1  15
BRANCH   2  21
ATOM     21  C   UNL     1      33.471 -22.404 -18.166  0.00  0.00    +0.064 C 
ATOM     22  C   UNL     1      33.281 -21.655 -19.327  0.00  0.00    +0.055 C 
ATOM     23  C   UNL     1      34.756 -22.591 -17.658  0.00  0.00    +0.055 C 
ATOM     24  C   UNL     1      35.663 -21.278 -19.472  0.00  0.00    +0.206 C 
ATOM     25  C   UNL     1      35.852 -22.027 -18.311  0.00  0.00    +0.177 C 
ATOM     26  C   UNL     1      34.378 -21.091 -19.980  0.00  0.00    +0.177 C 
BRANCH  24  27
ATOM     27  O   UNL     1      36.735 -20.728 -20.111  0.00  0.00    -0.465 OA
ATOM     28  C   UNL     1      36.709 -19.318 -20.319  0.00  0.00    +0.253 C 
ENDBRANCH  24  27
BRANCH  25  29
ATOM     29  O   UNL     1      37.103 -22.217 -17.805  0.00  0.00    -0.468 OA
ATOM     30  C   UNL     1      37.262 -22.067 -16.395  0.00  0.00    +0.253 C 
ENDBRANCH  25  29
BRANCH  26  31
ATOM     31  O   UNL     1      34.178 -20.362 -21.114  0.00  0.00    -0.468 OA
ATOM     32  C   UNL     1      33.123 -19.403 -21.090  0.00  0.00    +0.253 C 
ENDBRANCH  26  31
ENDBRANCH   2  21
TORSDOF 5
ENDMDL
MODEL 4
REMARK VINA RESULT:      -9.1      1.731      2.226
REMARK  Name = 24836813
REMARK  5 active torsions:
REMARK  status: ('A' for Active; 'I' for Inactive)
REMARK    1  A    between atoms: N_1  and  C_15
REMARK    2  A    between atoms: N_2  and  C_21
REMARK    3  A    between atoms: C_24  and  O_27
REMARK    4  A    between atoms: C_25  and  O_29
REMARK    5  A    between atoms: C_26  and  O_31
REMARK                            x       y       z     vdW  Elec       q    Type
REMARK                         _______ _______ _______ _____ _____    ______ ____
ROOT
ATOM      1  N   UNL     1      34.245 -24.386 -13.442  0.00  0.00    -0.284 N 
ATOM      2  N   UNL     1      32.375 -22.960 -17.537  0.00  0.00    -0.247 N 
ATOM      3  N   UNL     1      33.325 -23.660 -15.509  0.00  0.00    -0.322 NA
ATOM      4  N   UNL     1      30.984 -24.011 -15.965  0.00  0.00    -0.170 NA
ATOM      5  C   UNL     1      33.141 -24.253 -14.311  0.00  0.00    +0.198 C 
ATOM      6  C   UNL     1      32.220 -23.574 -16.274  0.00  0.00    +0.150 C 
ATOM      7  C   UNL     1      31.927 -24.742 -13.875  0.00  0.00    +0.070 C 
ATOM      8  C   UNL     1      30.873 -24.592 -14.753  0.00  0.00    +0.116 C 
ATOM      9  H   UNL     1      34.000 -24.373 -12.488  0.00  0.00    +0.155 HD
ATOM     10  H   UNL     1      31.542 -22.918 -18.061  0.00  0.00    +0.165 HD
ENDROOT
BRANCH   1  15
ATOM     11 CL   UNL     1      35.069 -26.192 -15.760  0.00  0.00    -0.081 Cl
ATOM     12  O   UNL     1      36.236 -23.063 -11.817  0.00  0.00    -0.433 OA
ATOM     13  O   UNL     1      38.612 -23.281 -12.156  0.00  0.00    -0.435 OA
ATOM     14  C   UNL     1      36.537 -23.881 -12.862  0.00  0.00    +0.191 C 
ATOM     15  C   UNL     1      35.626 -24.533 -13.668  0.00  0.00    +0.098 C 
ATOM     16  C   UNL     1      37.894 -24.005 -13.055  0.00  0.00    +0.178 C 
ATOM     17  C   UNL     1      36.128 -25.333 -14.697  0.00  0.00    +0.074 C 
ATOM     18  C   UNL     1      38.414 -24.789 -14.066  0.00  0.00    +0.041 C 
ATOM     19  C   UNL     1      37.556 -22.687 -11.373  0.00  0.00    +0.429 C 
ATOM     20  C   UNL     1      37.513 -25.459 -14.895  0.00  0.00    +0.016 C 
ENDBRANCH   1  15
BRANCH   2  21
ATOM     21  C   UNL     1      33.485 -22.394 -18.191  0.00  0.00    +0.064 C 
ATOM     22  C   UNL     1      34.766 -22.580 -17.675  0.00  0.00    +0.055 C 
ATOM     23  C   UNL     1      33.302 -21.647 -19.355  0.00  0.00    +0.055 C 
ATOM     24  C   UNL     1      35.685 -21.271 -19.486  0.00  0.00    +0.206 C 
ATOM     25  C   UNL     1      34.403 -21.086 -20.002  0.00  0.00    +0.177 C 
ATOM     26  C   UNL     1      35.867 -22.018 -18.323  0.00  0.00    +0.177 C 
BRANCH  24  27
ATOM     27  O   UNL     1      36.761 -20.721 -20.119  0.00  0.00    -0.465 OA
ATOM     28  C   UNL     1      36.747 -19.308 -20.307  0.00  0.00    +0.253 C 
ENDBRANCH  24  27
BRANCH  25  29
ATOM     29  O   UNL     1      34.211 -20.358 -21.138  0.00  0.00    -0.468 OA
ATOM     30  C   UNL     1      33.205 -19.347 -21.099  0.00  0.00    +0.253 C 
ENDBRANCH  25  29
BRANCH  26  31
ATOM     31  O   UNL     1      37.115 -22.206 -17.807  0.00  0.00    -0.468 OA
ATOM     32  C   UNL     1      37.264 -22.050 -16.397  0.00  0.00    +0.253 C 
ENDBRANCH  26  31
ENDBRANCH   2  21
TORSDOF 5
ENDMDL
MODEL 5
REMARK VINA RESULT:      -8.7      2.431      6.114
REMARK  Name = 24836813
REMARK  5 active torsions:
REMARK  status: ('A' for Active; 'I' for Inactive)
REMARK    1  A    between atoms: N_1  and  C_15
REMARK    2  A    between atoms: N_2  and  C_21
REMARK    3  A    between atoms: C_24  and  O_27
REMARK    4  A    between atoms: C_25  and  O_29
REMARK    5  A    between atoms: C_26  and  O_31
REMARK                            x       y       z     vdW  Elec       q    Type
REMARK                         _______ _______ _______ _____ _____    ______ ____
ROOT
ATOM      1  N   UNL     1      32.759 -22.422 -18.344  0.00  0.00    -0.284 N 
ATOM      2  N   UNL     1      33.545 -24.357 -14.108  0.00  0.00    -0.247 N 
ATOM      3  N   UNL     1      33.177 -23.397 -16.218  0.00  0.00    -0.322 NA
ATOM      4  N   UNL     1      31.349 -23.775 -14.694  0.00  0.00    -0.170 NA
ATOM      5  C   UNL     1      32.290 -22.887 -17.096  0.00  0.00    +0.198 C 
ATOM      6  C   UNL     1      32.646 -23.817 -15.053  0.00  0.00    +0.150 C 
ATOM      7  C   UNL     1      30.936 -22.789 -16.850  0.00  0.00    +0.070 C 
ATOM      8  C   UNL     1      30.518 -23.253 -15.620  0.00  0.00    +0.116 C 
ATOM      9  H   UNL     1      32.099 -22.507 -19.070  0.00  0.00    +0.155 HD
ATOM     10  H   UNL     1      33.114 -24.651 -13.274  0.00  0.00    +0.165 HD
ENDROOT
BRANCH   1  15
ATOM     11 CL   UNL     1      32.686 -20.653 -20.829  0.00  0.00    -0.081 Cl
ATOM     12  O   UNL     1      35.240 -22.898 -16.939  0.00  0.00    -0.433 OA
ATOM     13  O   UNL     1      37.362 -21.970 -17.601  0.00  0.00    -0.435 OA
ATOM     14  C   UNL     1      35.140 -22.123 -18.051  0.00  0.00    +0.191 C 
ATOM     15  C   UNL     1      33.982 -21.863 -18.757  0.00  0.00    +0.098 C 
ATOM     16  C   UNL     1      36.352 -21.592 -18.430  0.00  0.00    +0.178 C 
ATOM     17  C   UNL     1      34.078 -21.037 -19.879  0.00  0.00    +0.074 C 
ATOM     18  C   UNL     1      36.473 -20.773 -19.534  0.00  0.00    +0.041 C 
ATOM     19  C   UNL     1      36.651 -22.799 -16.659  0.00  0.00    +0.429 C 
ATOM     20  C   UNL     1      35.316 -20.495 -20.265  0.00  0.00    +0.016 C 
ENDBRANCH   1  15
BRANCH   2  21
ATOM     21  C   UNL     1      34.938 -24.560 -14.126  0.00  0.00    +0.064 C 
ATOM     22  C   UNL     1      35.480 -25.605 -14.873  0.00  0.00    +0.055 C 
ATOM     23  C   UNL     1      35.775 -23.716 -13.396  0.00  0.00    +0.055 C 
ATOM     24  C   UNL     1      37.698 -24.964 -14.160  0.00  0.00    +0.206 C 
ATOM     25  C   UNL     1      37.155 -23.919 -13.414  0.00  0.00    +0.177 C 
ATOM     26  C   UNL     1      36.860 -25.808 -14.890  0.00  0.00    +0.177 C 
BRANCH  24  27
ATOM     27  O   UNL     1      39.047 -25.163 -14.176  0.00  0.00    -0.465 OA
ATOM     28  C   UNL     1      39.762 -24.647 -15.296  0.00  0.00    +0.253 C 
ENDBRANCH  24  27
BRANCH  25  29
ATOM     29  O   UNL     1      37.962 -23.088 -12.696  0.00  0.00    -0.468 OA
ATOM     30  C   UNL     1      37.489 -22.670 -11.417  0.00  0.00    +0.253 C 
ENDBRANCH  25  29
BRANCH  26  31
ATOM     31  O   UNL     1      37.377 -26.833 -15.623  0.00  0.00    -0.468 OA
ATOM     32  C   UNL     1      36.465 -27.579 -16.427  0.00  0.00    +0.253 C 
ENDBRANCH  26  31
ENDBRANCH   2  21
TORSDOF 5
ENDMDL
MODEL 6
REMARK VINA RESULT:      -8.7      2.432      5.961
REMARK  Name = 24836813
REMARK  5 active torsions:
REMARK  status: ('A' for Active; 'I' for Inactive)
REMARK    1  A    between atoms: N_1  and  C_15
REMARK    2  A    between atoms: N_2  and  C_21
REMARK    3  A    between atoms: C_24  and  O_27
REMARK    4  A    between atoms: C_25  and  O_29
REMARK    5  A    between atoms: C_26  and  O_31
REMARK                            x       y       z     vdW  Elec       q    Type
REMARK                         _______ _______ _______ _____ _____    ______ ____
ROOT
ATOM      1  N   UNL     1      32.756 -22.415 -18.351  0.00  0.00    -0.284 N 
ATOM      2  N   UNL     1      33.540 -24.357 -14.119  0.00  0.00    -0.247 N 
ATOM      3  N   UNL     1      33.173 -23.394 -16.227  0.00  0.00    -0.322 NA
ATOM      4  N   UNL     1      31.344 -23.772 -14.704  0.00  0.00    -0.170 NA
ATOM      5  C   UNL     1      32.287 -22.881 -17.105  0.00  0.00    +0.198 C 
ATOM      6  C   UNL     1      32.641 -23.814 -15.063  0.00  0.00    +0.150 C 
ATOM      7  C   UNL     1      30.932 -22.782 -16.859  0.00  0.00    +0.070 C 
ATOM      8  C   UNL     1      30.513 -23.248 -15.630  0.00  0.00    +0.116 C 
ATOM      9  H   UNL     1      32.096 -22.498 -19.078  0.00  0.00    +0.155 HD
ATOM     10  H   UNL     1      33.107 -24.652 -13.285  0.00  0.00    +0.165 HD
ENDROOT
BRANCH   1  15
ATOM     11 CL   UNL     1      32.686 -20.645 -20.836  0.00  0.00    -0.081 Cl
ATOM     12  O   UNL     1      35.235 -22.892 -16.944  0.00  0.00    -0.433 OA
ATOM     13  O   UNL     1      37.359 -21.964 -17.604  0.00  0.00    -0.435 OA
ATOM     14  C   UNL     1      35.137 -22.116 -18.057  0.00  0.00    +0.191 C 
ATOM     15  C   UNL     1      33.980 -21.856 -18.763  0.00  0.00    +0.098 C 
ATOM     16  C   UNL     1      36.350 -21.586 -18.434  0.00  0.00    +0.178 C 
ATOM     17  C   UNL     1      34.077 -21.030 -19.885  0.00  0.00    +0.074 C 
ATOM     18  C   UNL     1      36.472 -20.767 -19.538  0.00  0.00    +0.041 C 
ATOM     19  C   UNL     1      36.647 -22.793 -16.663  0.00  0.00    +0.429 C 
ATOM     20  C   UNL     1      35.316 -20.488 -20.270  0.00  0.00    +0.016 C 
ENDBRANCH   1  15
BRANCH   2  21
ATOM     21  C   UNL     1      34.932 -24.561 -14.137  0.00  0.00    +0.064 C 
ATOM     22  C   UNL     1      35.770 -23.713 -13.414  0.00  0.00    +0.055 C 
ATOM     23  C   UNL     1      35.474 -25.610 -14.879  0.00  0.00    +0.055 C 
ATOM     24  C   UNL     1      37.692 -24.962 -14.175  0.00  0.00    +0.206 C 
ATOM     25  C   UNL     1      36.854 -25.811 -14.898  0.00  0.00    +0.177 C 
ATOM     26  C   UNL     1      37.150 -23.913 -13.433  0.00  0.00    +0.177 C 
BRANCH  24  27
ATOM     27  O   UNL     1      39.041 -25.158 -14.195  0.00  0.00    -0.465 OA
ATOM     28  C   UNL     1      39.755 -24.630 -15.311  0.00  0.00    +0.253 C 
ENDBRANCH  24  27
BRANCH  25  29
ATOM     29  O   UNL     1      37.370 -26.839 -15.628  0.00  0.00    -0.468 OA
ATOM     30  C   UNL     1      36.460 -27.584 -16.434  0.00  0.00    +0.253 C 
ENDBRANCH  25  29
BRANCH  26  31
ATOM     31  O   UNL     1      37.958 -23.077 -12.722  0.00  0.00    -0.468 OA
ATOM     32  C   UNL     1      37.503 -22.681 -11.429  0.00  0.00    +0.253 C 
ENDBRANCH  26  31
ENDBRANCH   2  21
TORSDOF 5
ENDMDL
MODEL 7
REMARK VINA RESULT:      -8.6      8.947     13.868
REMARK  Name = 24836813
REMARK  5 active torsions:
REMARK  status: ('A' for Active; 'I' for Inactive)
REMARK    1  A    between atoms: N_1  and  C_15
REMARK    2  A    between atoms: N_2  and  C_21
REMARK    3  A    between atoms: C_24  and  O_27
REMARK    4  A    between atoms: C_25  and  O_29
REMARK    5  A    between atoms: C_26  and  O_31
REMARK                            x       y       z     vdW  Elec       q    Type
REMARK                         _______ _______ _______ _____ _____    ______ ____
ROOT
ATOM      1  N   UNL     1      32.507 -10.551 -23.862  0.00  0.00    -0.284 N 
ATOM      2  N   UNL     1      32.797 -14.184 -20.858  0.00  0.00    -0.247 N 
ATOM      3  N   UNL     1      32.665 -12.391 -22.367  0.00  0.00    -0.322 NA
ATOM      4  N   UNL     1      31.646 -12.252 -20.187  0.00  0.00    -0.170 NA
ATOM      5  C   UNL     1      32.220 -11.141 -22.613  0.00  0.00    +0.198 C 
ATOM      6  C   UNL     1      32.347 -12.878 -21.152  0.00  0.00    +0.150 C 
ATOM      7  C   UNL     1      31.492 -10.394 -21.710  0.00  0.00    +0.070 C 
ATOM      8  C   UNL     1      31.232 -11.006 -20.501  0.00  0.00    +0.116 C 
ATOM      9  H   UNL     1      31.823  -9.910 -24.162  0.00  0.00    +0.155 HD
ATOM     10  H   UNL     1      32.541 -14.498 -19.961  0.00  0.00    +0.165 HD
ENDROOT
BRANCH   1  15
ATOM     11 CL   UNL     1      34.818  -8.579 -23.579  0.00  0.00    -0.081 Cl
ATOM     12  O   UNL     1      32.555 -12.604 -25.897  0.00  0.00    -0.433 OA
ATOM     13  O   UNL     1      34.356 -12.900 -27.469  0.00  0.00    -0.435 OA
ATOM     14  C   UNL     1      33.550 -11.694 -25.720  0.00  0.00    +0.191 C 
ATOM     15  C   UNL     1      33.576 -10.698 -24.765  0.00  0.00    +0.098 C 
ATOM     16  C   UNL     1      34.579 -11.864 -26.618  0.00  0.00    +0.178 C 
ATOM     17  C   UNL     1      34.691  -9.857 -24.736  0.00  0.00    +0.074 C 
ATOM     18  C   UNL     1      35.691 -11.046 -26.610  0.00  0.00    +0.041 C 
ATOM     19  C   UNL     1      33.071 -13.364 -27.009  0.00  0.00    +0.429 C 
ATOM     20  C   UNL     1      35.742 -10.030 -25.653  0.00  0.00    +0.016 C 
ENDBRANCH   1  15
BRANCH   2  21
ATOM     21  C   UNL     1      33.537 -15.124 -21.598  0.00  0.00    +0.064 C 
ATOM     22  C   UNL     1      33.603 -15.023 -22.987  0.00  0.00    +0.055 C 
ATOM     23  C   UNL     1      34.204 -16.159 -20.941  0.00  0.00    +0.055 C 
ATOM     24  C   UNL     1      35.002 -16.991 -23.064  0.00  0.00    +0.206 C 
ATOM     25  C   UNL     1      34.937 -17.091 -21.675  0.00  0.00    +0.177 C 
ATOM     26  C   UNL     1      34.335 -15.957 -23.720  0.00  0.00    +0.177 C 
BRANCH  24  27
ATOM     27  O   UNL     1      35.718 -17.904 -23.781  0.00  0.00    -0.465 OA
ATOM     28  C   UNL     1      35.016 -19.055 -24.245  0.00  0.00    +0.253 C 
ENDBRANCH  24  27
BRANCH  25  29
ATOM     29  O   UNL     1      35.584 -18.098 -21.022  0.00  0.00    -0.468 OA
ATOM     30  C   UNL     1      34.841 -19.289 -20.768  0.00  0.00    +0.253 C 
ENDBRANCH  25  29
BRANCH  26  31
ATOM     31  O   UNL     1      34.391 -15.846 -25.078  0.00  0.00    -0.468 OA
ATOM     32  C   UNL     1      33.293 -16.379 -25.817  0.00  0.00    +0.253 C 
ENDBRANCH  26  31
ENDBRANCH   2  21
TORSDOF 5
ENDMDL
MODEL 8
REMARK VINA RESULT:      -8.6      8.953     13.705
REMARK  Name = 24836813
REMARK  5 active torsions:
REMARK  status: ('A' for Active; 'I' for Inactive)
REMARK    1  A    between atoms: N_1  and  C_15
REMARK    2  A    between atoms: N_2  and  C_21
REMARK    3  A    between atoms: C_24  and  O_27
REMARK    4  A    between atoms: C_25  and  O_29
REMARK    5  A    between atoms: C_26  and  O_31
REMARK                            x       y       z     vdW  Elec       q    Type
REMARK                         _______ _______ _______ _____ _____    ______ ____
ROOT
ATOM      1  N   UNL     1      32.509 -10.541 -23.859  0.00  0.00    -0.284 N 
ATOM      2  N   UNL     1      32.791 -14.179 -20.862  0.00  0.00    -0.247 N 
ATOM      3  N   UNL     1      32.663 -12.383 -22.367  0.00  0.00    -0.322 NA
ATOM      4  N   UNL     1      31.645 -12.246 -20.187  0.00  0.00    -0.170 NA
ATOM      5  C   UNL     1      32.221 -11.132 -22.611  0.00  0.00    +0.198 C 
ATOM      6  C   UNL     1      32.344 -12.871 -21.153  0.00  0.00    +0.150 C 
ATOM      7  C   UNL     1      31.494 -10.385 -21.706  0.00  0.00    +0.070 C 
ATOM      8  C   UNL     1      31.233 -10.999 -20.499  0.00  0.00    +0.116 C 
ATOM      9  H   UNL     1      31.826  -9.897 -24.158  0.00  0.00    +0.155 HD
ATOM     10  H   UNL     1      32.535 -14.494 -19.965  0.00  0.00    +0.165 HD
ENDROOT
BRANCH   1  15
ATOM     11 CL   UNL     1      34.821  -8.568 -23.578  0.00  0.00    -0.081 Cl
ATOM     12  O   UNL     1      32.555 -12.594 -25.893  0.00  0.00    -0.433 OA
ATOM     13  O   UNL     1      34.356 -12.891 -27.466  0.00  0.00    -0.435 OA
ATOM     14  C   UNL     1      33.551 -11.685 -25.716  0.00  0.00    +0.191 C 
ATOM     15  C   UNL     1      33.578 -10.688 -24.762  0.00  0.00    +0.098 C 
ATOM     16  C   UNL     1      34.580 -11.855 -26.615  0.00  0.00    +0.178 C 
ATOM     17  C   UNL     1      34.693  -9.847 -24.734  0.00  0.00    +0.074 C 
ATOM     18  C   UNL     1      35.692 -11.037 -26.608  0.00  0.00    +0.041 C 
ATOM     19  C   UNL     1      33.071 -13.355 -27.004  0.00  0.00    +0.429 C 
ATOM     20  C   UNL     1      35.743 -10.021 -25.652  0.00  0.00    +0.016 C 
ENDBRANCH   1  15
BRANCH   2  21
ATOM     21  C   UNL     1      33.530 -15.120 -21.603  0.00  0.00    +0.064 C 
ATOM     22  C   UNL     1      34.194 -16.156 -20.948  0.00  0.00    +0.055 C 
ATOM     23  C   UNL     1      33.599 -15.015 -22.992  0.00  0.00    +0.055 C 
ATOM     24  C   UNL     1      34.997 -16.983 -23.071  0.00  0.00    +0.206 C 
ATOM     25  C   UNL     1      34.332 -15.947 -23.726  0.00  0.00    +0.177 C 
ATOM     26  C   UNL     1      34.928 -17.088 -21.682  0.00  0.00    +0.177 C 
BRANCH  24  27
ATOM     27  O   UNL     1      35.715 -17.894 -23.789  0.00  0.00    -0.465 OA
ATOM     28  C   UNL     1      35.012 -19.039 -24.265  0.00  0.00    +0.253 C 
ENDBRANCH  24  27
BRANCH  25  29
ATOM     29  O   UNL     1      34.392 -15.833 -25.082  0.00  0.00    -0.468 OA
ATOM     30  C   UNL     1      33.284 -16.338 -25.825  0.00  0.00    +0.253 C 
ENDBRANCH  25  29
BRANCH  26  31
ATOM     31  O   UNL     1      35.573 -18.096 -21.029  0.00  0.00    -0.468 OA
ATOM     32  C   UNL     1      34.833 -19.291 -20.790  0.00  0.00    +0.253 C 
ENDBRANCH  26  31
ENDBRANCH   2  21
TORSDOF 5
ENDMDL
MODEL 9
REMARK VINA RESULT:      -8.5      1.964      6.567
REMARK  Name = 24836813
REMARK  5 active torsions:
REMARK  status: ('A' for Active; 'I' for Inactive)
REMARK    1  A    between atoms: N_1  and  C_15
REMARK    2  A    between atoms: N_2  and  C_21
REMARK    3  A    between atoms: C_24  and  O_27
REMARK    4  A    between atoms: C_25  and  O_29
REMARK    5  A    between atoms: C_26  and  O_31
REMARK                            x       y       z     vdW  Elec       q    Type
REMARK                         _______ _______ _______ _____ _____    ______ ____
ROOT
ATOM      1  N   UNL     1      32.344 -22.485 -18.274  0.00  0.00    -0.284 N 
ATOM      2  N   UNL     1      33.487 -24.042 -13.965  0.00  0.00    -0.247 N 
ATOM      3  N   UNL     1      32.941 -23.270 -16.113  0.00  0.00    -0.322 NA
ATOM      4  N   UNL     1      31.236 -23.580 -14.438  0.00  0.00    -0.170 NA
ATOM      5  C   UNL     1      31.979 -22.861 -16.964  0.00  0.00    +0.198 C 
ATOM      6  C   UNL     1      32.506 -23.610 -14.884  0.00  0.00    +0.150 C 
ATOM      7  C   UNL     1      30.641 -22.786 -16.631  0.00  0.00    +0.070 C 
ATOM      8  C   UNL     1      30.325 -23.162 -15.342  0.00  0.00    +0.116 C 
ATOM      9  H   UNL     1      31.640 -22.650 -18.943  0.00  0.00    +0.155 HD
ATOM     10  H   UNL     1      33.124 -24.281 -13.081  0.00  0.00    +0.165 HD
ENDROOT
BRANCH   1  15
ATOM     11 CL   UNL     1      34.993 -23.690 -17.355  0.00  0.00    -0.081 Cl
ATOM     12  O   UNL     1      32.290 -20.299 -20.165  0.00  0.00    -0.433 OA
ATOM     13  O   UNL     1      34.261 -19.296 -21.121  0.00  0.00    -0.435 OA
ATOM     14  C   UNL     1      33.435 -20.878 -19.714  0.00  0.00    +0.191 C 
ATOM     15  C   UNL     1      33.514 -21.923 -18.815  0.00  0.00    +0.098 C 
ATOM     16  C   UNL     1      34.561 -20.306 -20.260  0.00  0.00    +0.178 C 
ATOM     17  C   UNL     1      34.787 -22.387 -18.472  0.00  0.00    +0.074 C 
ATOM     18  C   UNL     1      35.828 -20.746 -19.937  0.00  0.00    +0.041 C 
ATOM     19  C   UNL     1      32.820 -19.296 -21.055  0.00  0.00    +0.429 C 
ATOM     20  C   UNL     1      35.936 -21.802 -19.030  0.00  0.00    +0.016 C 
ENDBRANCH   1  15
BRANCH   2  21
ATOM     21  C   UNL     1      34.882 -24.202 -14.065  0.00  0.00    +0.064 C 
ATOM     22  C   UNL     1      35.411 -25.216 -14.862  0.00  0.00    +0.055 C 
ATOM     23  C   UNL     1      35.733 -23.346 -13.367  0.00  0.00    +0.055 C 
ATOM     24  C   UNL     1      37.646 -24.520 -14.261  0.00  0.00    +0.206 C 
ATOM     25  C   UNL     1      37.115 -23.506 -13.465  0.00  0.00    +0.177 C 
ATOM     26  C   UNL     1      36.794 -25.376 -14.960  0.00  0.00    +0.177 C 
BRANCH  24  27
ATOM     27  O   UNL     1      38.997 -24.677 -14.357  0.00  0.00    -0.465 OA
ATOM     28  C   UNL     1      39.592 -25.671 -13.527  0.00  0.00    +0.253 C 
ENDBRANCH  24  27
BRANCH  25  29
ATOM     29  O   UNL     1      37.937 -22.664 -12.778  0.00  0.00    -0.468 OA
ATOM     30  C   UNL     1      37.729 -22.561 -11.370  0.00  0.00    +0.253 C 
ENDBRANCH  25  29
BRANCH  26  31
ATOM     31  O   UNL     1      37.298 -26.372 -15.742  0.00  0.00    -0.468 OA
ATOM     32  C   UNL     1      36.485 -27.529 -15.922  0.00  0.00    +0.253 C 
ENDBRANCH  26  31
ENDBRANCH   2  21
TORSDOF 5
ENDMDL
