MODEL 1
REMARK VINA RESULT:     -11.7      0.000      0.000
REMARK  Name = 16040289
REMARK  6 active torsions:
REMARK  status: ('A' for Active; 'I' for Inactive)
REMARK    1  A    between atoms: N_2  and  C_20
REMARK    2  A    between atoms: C_3  and  C_6
REMARK    3  A    between atoms: N_11  and  C_13
REMARK    4  A    between atoms: C_13  and  C_15
REMARK    5  A    between atoms: C_23  and  O_26
REMARK    6  A    between atoms: O_26  and  C_27
REMARK                            x       y       z     vdW  Elec       q    Type
REMARK                         _______ _______ _______ _____ _____    ______ ____
ROOT
ATOM      1  O   UNL     1      33.852 -23.809 -18.814  0.00  0.00    -0.270 OA
ATOM      2  N   UNL     1      33.395 -21.527 -18.478  0.00  0.00    -0.280 N 
ATOM      3  C   UNL     1      33.403 -22.887 -18.141  0.00  0.00    +0.252 C 
ATOM      4  H   UNL     1      32.991 -20.922 -17.815  0.00  0.00    +0.155 HD
ENDROOT
BRANCH   3   6
ATOM      5  N   UNL     1      32.963 -23.691 -14.502  0.00  0.00    -0.229 NA
ATOM      6  C   UNL     1      32.771 -23.226 -16.840  0.00  0.00    +0.085 C 
ATOM      7  C   UNL     1      33.512 -23.382 -15.698  0.00  0.00    +0.133 C 
ATOM      8  C   UNL     1      31.404 -23.382 -16.800  0.00  0.00    +0.009 C 
ATOM      9  C   UNL     1      30.803 -23.700 -15.587  0.00  0.00    +0.021 C 
ATOM     10  C   UNL     1      31.620 -23.842 -14.477  0.00  0.00    +0.100 C 
ATOM     11  N   UNL     1      34.918 -23.216 -15.757  0.00  0.00    -0.314 N 
ATOM     12  H   UNL     1      35.332 -22.990 -16.621  0.00  0.00    +0.149 HD
BRANCH  11  13
ATOM     13  C   UNL     1      35.758 -23.363 -14.613  0.00  0.00    +0.115 C 
BRANCH  13  15
ATOM     14  N   UNL     1      38.201 -26.865 -14.986  0.00  0.00    -0.242 NA
ATOM     15  C   UNL     1      36.616 -24.592 -14.744  0.00  0.00    +0.000 C 
ATOM     16  C   UNL     1      37.973 -24.511 -14.485  0.00  0.00    +0.018 C 
ATOM     17  C   UNL     1      36.039 -25.792 -15.124  0.00  0.00    +0.018 C 
ATOM     18  C   UNL     1      38.718 -25.671 -14.619  0.00  0.00    +0.099 C 
ATOM     19  C   UNL     1      36.872 -26.895 -15.229  0.00  0.00    +0.099 C 
ENDBRANCH  13  15
ENDBRANCH  11  13
ENDBRANCH   3   6
BRANCH   2  20
ATOM     20  C   UNL     1      33.890 -20.926 -19.635  0.00  0.00    +0.051 C 
ATOM     21  C   UNL     1      33.011 -20.339 -20.546  0.00  0.00    +0.018 C 
ATOM     22  C   UNL     1      35.263 -20.911 -19.881  0.00  0.00    +0.018 C 
ATOM     23  C   UNL     1      34.879 -19.723 -21.950  0.00  0.00    +0.145 C 
ATOM     24  C   UNL     1      33.507 -19.737 -21.704  0.00  0.00    +0.039 C 
ATOM     25  C   UNL     1      35.758 -20.309 -21.038  0.00  0.00    +0.039 C 
BRANCH  23  26
ATOM     26  O   UNL     1      35.362 -19.137 -23.079  0.00  0.00    -0.453 OA
BRANCH  26  27
ATOM     27  C   UNL     1      34.969 -17.838 -23.350  0.00  0.00    +0.145 C 
ATOM     28  C   UNL     1      34.512 -17.523 -24.617  0.00  0.00    +0.037 C 
ATOM     29  C   UNL     1      35.045 -16.888 -22.348  0.00  0.00    +0.037 C 
ATOM     30  C   UNL     1      34.117 -16.213 -24.890  0.00  0.00    +0.003 C 
ATOM     31  C   UNL     1      34.650 -15.578 -22.621  0.00  0.00    +0.003 C 
ATOM     32  C   UNL     1      34.186 -15.241 -23.892  0.00  0.00    +0.000 C 
ENDBRANCH  26  27
ENDBRANCH  23  26
ENDBRANCH   2  20
TORSDOF 6
ENDMDL
MODEL 2
REMARK VINA RESULT:     -11.1      1.716      4.728
REMARK  Name = 16040289
REMARK  6 active torsions:
REMARK  status: ('A' for Active; 'I' for Inactive)
REMARK    1  A    between atoms: N_2  and  C_20
REMARK    2  A    between atoms: C_3  and  C_6
REMARK    3  A    between atoms: N_11  and  C_13
REMARK    4  A    between atoms: C_13  and  C_15
REMARK    5  A    between atoms: C_23  and  O_26
REMARK    6  A    between atoms: O_26  and  C_27
REMARK                            x       y       z     vdW  Elec       q    Type
REMARK                         _______ _______ _______ _____ _____    ______ ____
ROOT
ATOM      1  O   UNL     1      33.494 -23.784 -18.128  0.00  0.00    -0.270 OA
ATOM      2  N   UNL     1      34.978 -21.982 -17.845  0.00  0.00    -0.280 N 
ATOM      3  C   UNL     1      34.290 -23.138 -17.454  0.00  0.00    +0.252 C 
ATOM      4  H   UNL     1      35.582 -21.592 -17.172  0.00  0.00    +0.155 HD
ENDROOT
BRANCH   3   6
ATOM      5  N   UNL     1      33.740 -24.183 -13.891  0.00  0.00    -0.229 NA
ATOM      6  C   UNL     1      34.549 -23.596 -16.064  0.00  0.00    +0.085 C 
ATOM      7  C   UNL     1      33.533 -23.770 -15.162  0.00  0.00    +0.133 C 
ATOM      8  C   UNL     1      35.850 -23.845 -15.692  0.00  0.00    +0.009 C 
ATOM      9  C   UNL     1      36.104 -24.272 -14.393  0.00  0.00    +0.021 C 
ATOM     10  C   UNL     1      35.023 -24.424 -13.539  0.00  0.00    +0.100 C 
ATOM     11  N   UNL     1      32.198 -23.509 -15.562  0.00  0.00    -0.314 N 
ATOM     12  H   UNL     1      32.032 -23.209 -16.485  0.00  0.00    +0.149 HD
BRANCH  11  13
ATOM     13  C   UNL     1      31.087 -23.667 -14.682  0.00  0.00    +0.115 C 
BRANCH  13  15
ATOM     14  N   UNL     1      27.405 -23.136 -16.811  0.00  0.00    -0.242 NA
ATOM     15  C   UNL     1      29.794 -23.480 -15.429  0.00  0.00    +0.000 C 
ATOM     16  C   UNL     1      29.049 -22.330 -15.232  0.00  0.00    +0.018 C 
ATOM     17  C   UNL     1      29.363 -24.461 -16.306  0.00  0.00    +0.018 C 
ATOM     18  C   UNL     1      27.867 -22.207 -15.944  0.00  0.00    +0.099 C 
ATOM     19  C   UNL     1      28.167 -24.241 -16.970  0.00  0.00    +0.099 C 
ENDBRANCH  13  15
ENDBRANCH  11  13
ENDBRANCH   3   6
BRANCH   2  20
ATOM     20  C   UNL     1      34.914 -21.316 -19.068  0.00  0.00    +0.051 C 
ATOM     21  C   UNL     1      33.676 -20.975 -19.613  0.00  0.00    +0.018 C 
ATOM     22  C   UNL     1      36.089 -20.992 -19.747  0.00  0.00    +0.018 C 
ATOM     23  C   UNL     1      34.787 -19.984 -21.517  0.00  0.00    +0.145 C 
ATOM     24  C   UNL     1      33.613 -20.308 -20.838  0.00  0.00    +0.039 C 
ATOM     25  C   UNL     1      36.025 -20.325 -20.972  0.00  0.00    +0.039 C 
BRANCH  23  26
ATOM     26  O   UNL     1      34.725 -19.336 -22.712  0.00  0.00    -0.453 OA
BRANCH  26  27
ATOM     27  C   UNL     1      34.690 -17.952 -22.693  0.00  0.00    +0.145 C 
ATOM     28  C   UNL     1      34.618 -17.297 -21.476  0.00  0.00    +0.037 C 
ATOM     29  C   UNL     1      34.727 -17.260 -23.890  0.00  0.00    +0.037 C 
ATOM     30  C   UNL     1      34.582 -15.902 -21.457  0.00  0.00    +0.003 C 
ATOM     31  C   UNL     1      34.691 -15.866 -23.871  0.00  0.00    +0.003 C 
ATOM     32  C   UNL     1      34.618 -15.188 -22.654  0.00  0.00    +0.000 C 
ENDBRANCH  26  27
ENDBRANCH  23  26
ENDBRANCH   2  20
TORSDOF 6
ENDMDL
MODEL 3
REMARK VINA RESULT:     -10.9      5.028      9.252
REMARK  Name = 16040289
REMARK  6 active torsions:
REMARK  status: ('A' for Active; 'I' for Inactive)
REMARK    1  A    between atoms: N_2  and  C_20
REMARK    2  A    between atoms: C_3  and  C_6
REMARK    3  A    between atoms: N_11  and  C_13
REMARK    4  A    between atoms: C_13  and  C_15
REMARK    5  A    between atoms: C_23  and  O_26
REMARK    6  A    between atoms: O_26  and  C_27
REMARK                            x       y       z     vdW  Elec       q    Type
REMARK                         _______ _______ _______ _____ _____    ______ ____
ROOT
ATOM      1  O   UNL     1      35.058 -15.275 -22.038  0.00  0.00    -0.270 OA
ATOM      2  N   UNL     1      33.308 -14.697 -23.498  0.00  0.00    -0.280 N 
ATOM      3  C   UNL     1      34.316 -15.522 -22.983  0.00  0.00    +0.252 C 
ATOM      4  H   UNL     1      32.807 -15.057 -24.266  0.00  0.00    +0.155 HD
ENDROOT
BRANCH   3   6
ATOM      5  N   UNL     1      35.252 -19.088 -23.687  0.00  0.00    -0.229 NA
ATOM      6  C   UNL     1      34.504 -16.816 -23.689  0.00  0.00    +0.085 C 
ATOM      7  C   UNL     1      35.068 -17.900 -23.069  0.00  0.00    +0.133 C 
ATOM      8  C   UNL     1      34.095 -16.908 -25.000  0.00  0.00    +0.009 C 
ATOM      9  C   UNL     1      34.267 -18.115 -25.670  0.00  0.00    +0.021 C 
ATOM     10  C   UNL     1      34.846 -19.165 -24.975  0.00  0.00    +0.100 C 
ATOM     11  N   UNL     1      35.482 -17.787 -21.718  0.00  0.00    -0.314 N 
ATOM     12  H   UNL     1      35.354 -16.929 -21.254  0.00  0.00    +0.149 HD
BRANCH  11  13
ATOM     13  C   UNL     1      36.077 -18.869 -21.004  0.00  0.00    +0.115 C 
BRANCH  13  15
ATOM     14  N   UNL     1      33.071 -21.601 -19.637  0.00  0.00    -0.242 NA
ATOM     15  C   UNL     1      35.021 -19.827 -20.524  0.00  0.00    +0.000 C 
ATOM     16  C   UNL     1      33.685 -19.535 -20.733  0.00  0.00    +0.018 C 
ATOM     17  C   UNL     1      35.398 -20.993 -19.878  0.00  0.00    +0.018 C 
ATOM     18  C   UNL     1      32.752 -20.450 -20.273  0.00  0.00    +0.099 C 
ATOM     19  C   UNL     1      34.388 -21.843 -19.457  0.00  0.00    +0.099 C 
ENDBRANCH  13  15
ENDBRANCH  11  13
ENDBRANCH   3   6
BRANCH   2  20
ATOM     20  C   UNL     1      32.927 -13.429 -23.060  0.00  0.00    +0.051 C 
ATOM     21  C   UNL     1      32.138 -13.294 -21.918  0.00  0.00    +0.018 C 
ATOM     22  C   UNL     1      33.335 -12.296 -23.764  0.00  0.00    +0.018 C 
ATOM     23  C   UNL     1      32.165 -10.892 -22.183  0.00  0.00    +0.145 C 
ATOM     24  C   UNL     1      31.758 -12.025 -21.479  0.00  0.00    +0.039 C 
ATOM     25  C   UNL     1      32.954 -11.028 -23.325  0.00  0.00    +0.039 C 
BRANCH  23  26
ATOM     26  O   UNL     1      31.792  -9.655 -21.757  0.00  0.00    -0.453 OA
BRANCH  26  27
ATOM     27  C   UNL     1      32.045  -8.582 -22.594  0.00  0.00    +0.145 C 
ATOM     28  C   UNL     1      33.298  -7.994 -22.576  0.00  0.00    +0.037 C 
ATOM     29  C   UNL     1      31.039  -8.125 -23.427  0.00  0.00    +0.037 C 
ATOM     30  C   UNL     1      33.552  -6.912 -23.419  0.00  0.00    +0.003 C 
ATOM     31  C   UNL     1      31.294  -7.043 -24.270  0.00  0.00    +0.003 C 
ATOM     32  C   UNL     1      32.550  -6.437 -24.266  0.00  0.00    +0.000 C 
ENDBRANCH  26  27
ENDBRANCH  23  26
ENDBRANCH   2  20
TORSDOF 6
ENDMDL
MODEL 4
REMARK VINA RESULT:     -10.9      4.984      9.149
REMARK  Name = 16040289
REMARK  6 active torsions:
REMARK  status: ('A' for Active; 'I' for Inactive)
REMARK    1  A    between atoms: N_2  and  C_20
REMARK    2  A    between atoms: C_3  and  C_6
REMARK    3  A    between atoms: N_11  and  C_13
REMARK    4  A    between atoms: C_13  and  C_15
REMARK    5  A    between atoms: C_23  and  O_26
REMARK    6  A    between atoms: O_26  and  C_27
REMARK                            x       y       z     vdW  Elec       q    Type
REMARK                         _______ _______ _______ _____ _____    ______ ____
ROOT
ATOM      1  O   UNL     1      34.855 -15.450 -21.806  0.00  0.00    -0.270 OA
ATOM      2  N   UNL     1      33.348 -14.755 -23.471  0.00  0.00    -0.280 N 
ATOM      3  C   UNL     1      34.248 -15.634 -22.855  0.00  0.00    +0.252 C 
ATOM      4  H   UNL     1      32.950 -15.068 -24.316  0.00  0.00    +0.155 HD
ENDROOT
BRANCH   3   6
ATOM      5  N   UNL     1      35.316 -19.153 -23.609  0.00  0.00    -0.229 NA
ATOM      6  C   UNL     1      34.497 -16.906 -23.583  0.00  0.00    +0.085 C 
ATOM      7  C   UNL     1      35.077 -17.985 -22.970  0.00  0.00    +0.133 C 
ATOM      8  C   UNL     1      34.128 -16.982 -24.906  0.00  0.00    +0.009 C 
ATOM      9  C   UNL     1      34.357 -18.167 -25.597  0.00  0.00    +0.021 C 
ATOM     10  C   UNL     1      34.949 -19.214 -24.908  0.00  0.00    +0.100 C 
ATOM     11  N   UNL     1      35.451 -17.890 -21.606  0.00  0.00    -0.314 N 
ATOM     12  H   UNL     1      35.282 -17.046 -21.128  0.00  0.00    +0.149 HD
BRANCH  11  13
ATOM     13  C   UNL     1      36.060 -18.968 -20.899  0.00  0.00    +0.115 C 
BRANCH  13  15
ATOM     14  N   UNL     1      33.094 -21.787 -19.624  0.00  0.00    -0.242 NA
ATOM     15  C   UNL     1      35.019 -19.958 -20.451  0.00  0.00    +0.000 C 
ATOM     16  C   UNL     1      35.411 -21.133 -19.833  0.00  0.00    +0.018 C 
ATOM     17  C   UNL     1      33.678 -19.684 -20.662  0.00  0.00    +0.018 C 
ATOM     18  C   UNL     1      34.415 -22.010 -19.440  0.00  0.00    +0.099 C 
ATOM     19  C   UNL     1      32.759 -20.627 -20.231  0.00  0.00    +0.099 C 
ENDBRANCH  13  15
ENDBRANCH  11  13
ENDBRANCH   3   6
BRANCH   2  20
ATOM     20  C   UNL     1      32.946 -13.493 -23.035  0.00  0.00    +0.051 C 
ATOM     21  C   UNL     1      33.341 -12.354 -23.737  0.00  0.00    +0.018 C 
ATOM     22  C   UNL     1      32.148 -13.370 -21.897  0.00  0.00    +0.018 C 
ATOM     23  C   UNL     1      32.141 -10.968 -22.163  0.00  0.00    +0.145 C 
ATOM     24  C   UNL     1      32.938 -11.091 -23.300  0.00  0.00    +0.039 C 
ATOM     25  C   UNL     1      31.745 -12.107 -21.462  0.00  0.00    +0.039 C 
BRANCH  23  26
ATOM     26  O   UNL     1      31.749  -9.737 -21.736  0.00  0.00    -0.453 OA
BRANCH  26  27
ATOM     27  C   UNL     1      32.027  -8.654 -22.553  0.00  0.00    +0.145 C 
ATOM     28  C   UNL     1      33.269  -8.048 -22.469  0.00  0.00    +0.037 C 
ATOM     29  C   UNL     1      31.058  -8.204 -23.431  0.00  0.00    +0.037 C 
ATOM     30  C   UNL     1      33.548  -6.956 -23.291  0.00  0.00    +0.003 C 
ATOM     31  C   UNL     1      31.337  -7.113 -24.253  0.00  0.00    +0.003 C 
ATOM     32  C   UNL     1      32.583  -6.489 -24.182  0.00  0.00    +0.000 C 
ENDBRANCH  26  27
ENDBRANCH  23  26
ENDBRANCH   2  20
TORSDOF 6
ENDMDL
MODEL 5
REMARK VINA RESULT:     -10.8      1.678      4.543
REMARK  Name = 16040289
REMARK  6 active torsions:
REMARK  status: ('A' for Active; 'I' for Inactive)
REMARK    1  A    between atoms: N_2  and  C_20
REMARK    2  A    between atoms: C_3  and  C_6
REMARK    3  A    between atoms: N_11  and  C_13
REMARK    4  A    between atoms: C_13  and  C_15
REMARK    5  A    between atoms: C_23  and  O_26
REMARK    6  A    between atoms: O_26  and  C_27
REMARK                            x       y       z     vdW  Elec       q    Type
REMARK                         _______ _______ _______ _____ _____    ______ ____
ROOT
ATOM      1  O   UNL     1      34.079 -23.114 -17.351  0.00  0.00    -0.270 OA
ATOM      2  N   UNL     1      36.088 -21.952 -17.731  0.00  0.00    -0.280 N 
ATOM      3  C   UNL     1      35.227 -22.813 -17.039  0.00  0.00    +0.252 C 
ATOM      4  H   UNL     1      36.980 -21.824 -17.333  0.00  0.00    +0.155 HD
ENDROOT
BRANCH   3   6
ATOM      5  N   UNL     1      35.427 -24.380 -13.634  0.00  0.00    -0.229 NA
ATOM      6  C   UNL     1      35.774 -23.389 -15.783  0.00  0.00    +0.085 C 
ATOM      7  C   UNL     1      34.956 -23.853 -14.787  0.00  0.00    +0.133 C 
ATOM      8  C   UNL     1      37.141 -23.448 -15.635  0.00  0.00    +0.009 C 
ATOM      9  C   UNL     1      37.664 -23.984 -14.463  0.00  0.00    +0.021 C 
ATOM     10  C   UNL     1      36.772 -24.432 -13.502  0.00  0.00    +0.100 C 
ATOM     11  N   UNL     1      33.551 -23.785 -14.956  0.00  0.00    -0.314 N 
ATOM     12  H   UNL     1      33.193 -23.405 -15.791  0.00  0.00    +0.149 HD
BRANCH  11  13
ATOM     13  C   UNL     1      32.634 -24.247 -13.966  0.00  0.00    +0.115 C 
BRANCH  13  15
ATOM     14  N   UNL     1      28.601 -23.881 -15.370  0.00  0.00    -0.242 NA
ATOM     15  C   UNL     1      31.218 -24.119 -14.459  0.00  0.00    +0.000 C 
ATOM     16  C   UNL     1      30.381 -25.221 -14.434  0.00  0.00    +0.018 C 
ATOM     17  C   UNL     1      30.767 -22.899 -14.933  0.00  0.00    +0.018 C 
ATOM     18  C   UNL     1      29.088 -25.051 -14.898  0.00  0.00    +0.099 C 
ATOM     19  C   UNL     1      29.455 -22.833 -15.375  0.00  0.00    +0.099 C 
ENDBRANCH  13  15
ENDBRANCH  11  13
ENDBRANCH   3   6
BRANCH   2  20
ATOM     20  C   UNL     1      35.839 -21.255 -18.913  0.00  0.00    +0.051 C 
ATOM     21  C   UNL     1      36.874 -20.574 -19.553  0.00  0.00    +0.018 C 
ATOM     22  C   UNL     1      34.553 -21.238 -19.454  0.00  0.00    +0.018 C 
ATOM     23  C   UNL     1      35.340 -19.860 -21.277  0.00  0.00    +0.145 C 
ATOM     24  C   UNL     1      36.624 -19.877 -20.736  0.00  0.00    +0.039 C 
ATOM     25  C   UNL     1      34.304 -20.541 -20.637  0.00  0.00    +0.039 C 
BRANCH  23  26
ATOM     26  O   UNL     1      35.095 -19.179 -22.429  0.00  0.00    -0.453 OA
BRANCH  26  27
ATOM     27  C   UNL     1      34.925 -17.808 -22.343  0.00  0.00    +0.145 C 
ATOM     28  C   UNL     1      34.725 -17.231 -21.101  0.00  0.00    +0.037 C 
ATOM     29  C   UNL     1      34.957 -17.050 -23.499  0.00  0.00    +0.037 C 
ATOM     30  C   UNL     1      34.552 -15.849 -21.014  0.00  0.00    +0.003 C 
ATOM     31  C   UNL     1      34.784 -15.668 -23.412  0.00  0.00    +0.003 C 
ATOM     32  C   UNL     1      34.581 -15.069 -22.169  0.00  0.00    +0.000 C 
ENDBRANCH  26  27
ENDBRANCH  23  26
ENDBRANCH   2  20
TORSDOF 6
ENDMDL
MODEL 6
REMARK VINA RESULT:     -10.6      5.341     12.414
REMARK  Name = 16040289
REMARK  6 active torsions:
REMARK  status: ('A' for Active; 'I' for Inactive)
REMARK    1  A    between atoms: N_2  and  C_20
REMARK    2  A    between atoms: C_3  and  C_6
REMARK    3  A    between atoms: N_11  and  C_13
REMARK    4  A    between atoms: C_13  and  C_15
REMARK    5  A    between atoms: C_23  and  O_26
REMARK    6  A    between atoms: O_26  and  C_27
REMARK                            x       y       z     vdW  Elec       q    Type
REMARK                         _______ _______ _______ _____ _____    ______ ____
ROOT
ATOM      1  O   UNL     1      33.085 -14.526 -22.950  0.00  0.00    -0.270 OA
ATOM      2  N   UNL     1      34.504 -15.945 -24.175  0.00  0.00    -0.280 N 
ATOM      3  C   UNL     1      33.633 -14.863 -23.994  0.00  0.00    +0.252 C 
ATOM      4  H   UNL     1      34.853 -16.070 -25.087  0.00  0.00    +0.155 HD
ENDROOT
BRANCH   3   6
ATOM      5  N   UNL     1      33.382 -11.995 -26.402  0.00  0.00    -0.229 NA
ATOM      6  C   UNL     1      33.338 -14.072 -25.217  0.00  0.00    +0.085 C 
ATOM      7  C   UNL     1      33.641 -12.739 -25.303  0.00  0.00    +0.133 C 
ATOM      8  C   UNL     1      32.743 -14.713 -26.279  0.00  0.00    +0.009 C 
ATOM      9  C   UNL     1      32.461 -13.981 -27.428  0.00  0.00    +0.021 C 
ATOM     10  C   UNL     1      32.797 -12.637 -27.438  0.00  0.00    +0.100 C 
ATOM     11  N   UNL     1      34.255 -12.095 -24.199  0.00  0.00    -0.314 N 
ATOM     12  H   UNL     1      34.451 -12.624 -23.393  0.00  0.00    +0.149 HD
BRANCH  11  13
ATOM     13  C   UNL     1      34.602 -10.711 -24.212  0.00  0.00    +0.115 C 
BRANCH  13  15
ATOM     14  N   UNL     1      31.665  -8.409 -22.103  0.00  0.00    -0.242 NA
ATOM     15  C   UNL     1      33.570  -9.904 -23.472  0.00  0.00    +0.000 C 
ATOM     16  C   UNL     1      32.475 -10.538 -22.912  0.00  0.00    +0.018 C 
ATOM     17  C   UNL     1      33.727  -8.533 -23.359  0.00  0.00    +0.018 C 
ATOM     18  C   UNL     1      31.555  -9.750 -22.241  0.00  0.00    +0.099 C 
ATOM     19  C   UNL     1      32.750  -7.834 -22.667  0.00  0.00    +0.099 C 
ENDBRANCH  13  15
ENDBRANCH  11  13
ENDBRANCH   3   6
BRANCH   2  20
ATOM     20  C   UNL     1      34.937 -16.868 -23.223  0.00  0.00    +0.051 C 
ATOM     21  C   UNL     1      34.943 -16.525 -21.871  0.00  0.00    +0.018 C 
ATOM     22  C   UNL     1      35.365 -18.134 -23.623  0.00  0.00    +0.018 C 
ATOM     23  C   UNL     1      35.805 -18.714 -21.319  0.00  0.00    +0.145 C 
ATOM     24  C   UNL     1      35.377 -17.449 -20.919  0.00  0.00    +0.039 C 
ATOM     25  C   UNL     1      35.798 -19.057 -22.671  0.00  0.00    +0.039 C 
BRANCH  23  26
ATOM     26  O   UNL     1      36.229 -19.614 -20.391  0.00  0.00    -0.453 OA
BRANCH  26  27
ATOM     27  C   UNL     1      35.303 -20.517 -19.898  0.00  0.00    +0.145 C 
ATOM     28  C   UNL     1      33.974 -20.385 -20.262  0.00  0.00    +0.037 C 
ATOM     29  C   UNL     1      35.728 -21.528 -19.055  0.00  0.00    +0.037 C 
ATOM     30  C   UNL     1      33.040 -21.294 -19.764  0.00  0.00    +0.003 C 
ATOM     31  C   UNL     1      34.795 -22.437 -18.557  0.00  0.00    +0.003 C 
ATOM     32  C   UNL     1      33.451 -22.320 -18.913  0.00  0.00    +0.000 C 
ENDBRANCH  26  27
ENDBRANCH  23  26
ENDBRANCH   2  20
TORSDOF 6
ENDMDL
MODEL 7
REMARK VINA RESULT:     -10.2      6.004     12.207
REMARK  Name = 16040289
REMARK  6 active torsions:
REMARK  status: ('A' for Active; 'I' for Inactive)
REMARK    1  A    between atoms: N_2  and  C_20
REMARK    2  A    between atoms: C_3  and  C_6
REMARK    3  A    between atoms: N_11  and  C_13
REMARK    4  A    between atoms: C_13  and  C_15
REMARK    5  A    between atoms: C_23  and  O_26
REMARK    6  A    between atoms: O_26  and  C_27
REMARK                            x       y       z     vdW  Elec       q    Type
REMARK                         _______ _______ _______ _____ _____    ______ ____
ROOT
ATOM      1  O   UNL     1      33.056 -13.739 -25.138  0.00  0.00    -0.270 OA
ATOM      2  N   UNL     1      34.560 -13.874 -23.336  0.00  0.00    -0.280 N 
ATOM      3  C   UNL     1      33.762 -13.217 -24.281  0.00  0.00    +0.252 C 
ATOM      4  H   UNL     1      35.064 -13.294 -22.719  0.00  0.00    +0.155 HD
ENDROOT
BRANCH   3   6
ATOM      5  N   UNL     1      32.876  -9.647 -23.534  0.00  0.00    -0.229 NA
ATOM      6  C   UNL     1      33.812 -11.732 -24.237  0.00  0.00    +0.085 C 
ATOM      7  C   UNL     1      32.855 -10.997 -23.588  0.00  0.00    +0.133 C 
ATOM      8  C   UNL     1      34.856 -11.097 -24.871  0.00  0.00    +0.009 C 
ATOM      9  C   UNL     1      34.912  -9.708 -24.838  0.00  0.00    +0.021 C 
ATOM     10  C   UNL     1      33.906  -9.035 -24.161  0.00  0.00    +0.100 C 
ATOM     11  N   UNL     1      31.789 -11.668 -22.939  0.00  0.00    -0.314 N 
ATOM     12  H   UNL     1      31.761 -12.652 -22.969  0.00  0.00    +0.149 HD
BRANCH  11  13
ATOM     13  C   UNL     1      30.754 -10.975 -22.243  0.00  0.00    +0.115 C 
BRANCH  13  15
ATOM     14  N   UNL     1      32.146  -9.669 -18.405  0.00  0.00    -0.242 NA
ATOM     15  C   UNL     1      31.242 -10.517 -20.896  0.00  0.00    +0.000 C 
ATOM     16  C   UNL     1      31.189 -11.382 -19.817  0.00  0.00    +0.018 C 
ATOM     17  C   UNL     1      31.740  -9.234 -20.748  0.00  0.00    +0.018 C 
ATOM     18  C   UNL     1      31.651 -10.913 -18.599  0.00  0.00    +0.099 C 
ATOM     19  C   UNL     1      32.178  -8.860 -19.487  0.00  0.00    +0.099 C 
ENDBRANCH  13  15
ENDBRANCH  11  13
ENDBRANCH   3   6
BRANCH   2  20
ATOM     20  C   UNL     1      34.729 -15.247 -23.159  0.00  0.00    +0.051 C 
ATOM     21  C   UNL     1      34.856 -15.775 -21.874  0.00  0.00    +0.018 C 
ATOM     22  C   UNL     1      34.771 -16.092 -24.268  0.00  0.00    +0.018 C 
ATOM     23  C   UNL     1      35.068 -17.994 -22.807  0.00  0.00    +0.145 C 
ATOM     24  C   UNL     1      35.025 -17.149 -21.698  0.00  0.00    +0.039 C 
ATOM     25  C   UNL     1      34.940 -17.466 -24.091  0.00  0.00    +0.039 C 
BRANCH  23  26
ATOM     26  O   UNL     1      35.235 -19.333 -22.635  0.00  0.00    -0.453 OA
BRANCH  26  27
ATOM     27  C   UNL     1      34.628 -19.923 -21.540  0.00  0.00    +0.145 C 
ATOM     28  C   UNL     1      33.275 -19.721 -21.329  0.00  0.00    +0.037 C 
ATOM     29  C   UNL     1      35.389 -20.698 -20.683  0.00  0.00    +0.037 C 
ATOM     30  C   UNL     1      32.664 -20.315 -20.224  0.00  0.00    +0.003 C 
ATOM     31  C   UNL     1      34.778 -21.291 -19.578  0.00  0.00    +0.003 C 
ATOM     32  C   UNL     1      33.416 -21.099 -19.349  0.00  0.00    +0.000 C 
ENDBRANCH  26  27
ENDBRANCH  23  26
ENDBRANCH   2  20
TORSDOF 6
ENDMDL
MODEL 8
REMARK VINA RESULT:     -10.1      3.378     10.365
REMARK  Name = 16040289
REMARK  6 active torsions:
REMARK  status: ('A' for Active; 'I' for Inactive)
REMARK    1  A    between atoms: N_2  and  C_20
REMARK    2  A    between atoms: C_3  and  C_6
REMARK    3  A    between atoms: N_11  and  C_13
REMARK    4  A    between atoms: C_13  and  C_15
REMARK    5  A    between atoms: C_23  and  O_26
REMARK    6  A    between atoms: O_26  and  C_27
REMARK                            x       y       z     vdW  Elec       q    Type
REMARK                         _______ _______ _______ _____ _____    ______ ____
ROOT
ATOM      1  O   UNL     1      33.071 -18.675 -20.793  0.00  0.00    -0.270 OA
ATOM      2  N   UNL     1      34.876 -20.151 -21.089  0.00  0.00    -0.280 N 
ATOM      3  C   UNL     1      34.049 -19.070 -21.419  0.00  0.00    +0.252 C 
ATOM      4  H   UNL     1      35.621 -20.328 -21.709  0.00  0.00    +0.155 HD
ENDROOT
BRANCH   3   6
ATOM      5  N   UNL     1      35.049 -16.361 -23.816  0.00  0.00    -0.229 NA
ATOM      6  C   UNL     1      34.397 -18.360 -22.677  0.00  0.00    +0.085 C 
ATOM      7  C   UNL     1      34.729 -17.031 -22.686  0.00  0.00    +0.133 C 
ATOM      8  C   UNL     1      34.380 -19.074 -23.854  0.00  0.00    +0.009 C 
ATOM      9  C   UNL     1      34.703 -18.419 -25.037  0.00  0.00    +0.021 C 
ATOM     10  C   UNL     1      35.028 -17.073 -24.965  0.00  0.00    +0.100 C 
ATOM     11  N   UNL     1      34.743 -16.312 -21.465  0.00  0.00    -0.314 N 
ATOM     12  H   UNL     1      34.514 -16.787 -20.634  0.00  0.00    +0.149 HD
BRANCH  11  13
ATOM     13  C   UNL     1      35.078 -14.927 -21.392  0.00  0.00    +0.115 C 
BRANCH  13  15
ATOM     14  N   UNL     1      31.640 -12.506 -22.220  0.00  0.00    -0.242 NA
ATOM     15  C   UNL     1      33.871 -14.078 -21.682  0.00  0.00    +0.000 C 
ATOM     16  C   UNL     1      32.892 -13.924 -20.715  0.00  0.00    +0.018 C 
ATOM     17  C   UNL     1      33.751 -13.458 -22.914  0.00  0.00    +0.018 C 
ATOM     18  C   UNL     1      31.802 -13.131 -21.032  0.00  0.00    +0.099 C 
ATOM     19  C   UNL     1      32.621 -12.685 -23.132  0.00  0.00    +0.099 C 
ENDBRANCH  13  15
ENDBRANCH  11  13
ENDBRANCH   3   6
BRANCH   2  20
ATOM     20  C   UNL     1      34.776 -21.007 -19.993  0.00  0.00    +0.051 C 
ATOM     21  C   UNL     1      33.563 -21.631 -19.703  0.00  0.00    +0.018 C 
ATOM     22  C   UNL     1      35.890 -21.238 -19.186  0.00  0.00    +0.018 C 
ATOM     23  C   UNL     1      34.577 -22.719 -17.798  0.00  0.00    +0.145 C 
ATOM     24  C   UNL     1      33.464 -22.487 -18.606  0.00  0.00    +0.039 C 
ATOM     25  C   UNL     1      35.791 -22.095 -18.088  0.00  0.00    +0.039 C 
BRANCH  23  26
ATOM     26  O   UNL     1      34.480 -23.552 -16.727  0.00  0.00    -0.453 OA
BRANCH  26  27
ATOM     27  C   UNL     1      33.361 -23.437 -15.921  0.00  0.00    +0.145 C 
ATOM     28  C   UNL     1      33.513 -23.478 -14.546  0.00  0.00    +0.037 C 
ATOM     29  C   UNL     1      32.118 -23.284 -16.510  0.00  0.00    +0.037 C 
ATOM     30  C   UNL     1      32.385 -23.363 -13.734  0.00  0.00    +0.003 C 
ATOM     31  C   UNL     1      30.990 -23.169 -15.697  0.00  0.00    +0.003 C 
ATOM     32  C   UNL     1      31.124 -23.209 -14.310  0.00  0.00    +0.000 C 
ENDBRANCH  26  27
ENDBRANCH  23  26
ENDBRANCH   2  20
TORSDOF 6
ENDMDL
MODEL 9
REMARK VINA RESULT:      -9.9      2.942     10.314
REMARK  Name = 16040289
REMARK  6 active torsions:
REMARK  status: ('A' for Active; 'I' for Inactive)
REMARK    1  A    between atoms: N_2  and  C_20
REMARK    2  A    between atoms: C_3  and  C_6
REMARK    3  A    between atoms: N_11  and  C_13
REMARK    4  A    between atoms: C_13  and  C_15
REMARK    5  A    between atoms: C_23  and  O_26
REMARK    6  A    between atoms: O_26  and  C_27
REMARK                            x       y       z     vdW  Elec       q    Type
REMARK                         _______ _______ _______ _____ _____    ______ ____
ROOT
ATOM      1  O   UNL     1      32.797 -19.349 -20.628  0.00  0.00    -0.270 OA
ATOM      2  N   UNL     1      34.861 -20.473 -20.546  0.00  0.00    -0.280 N 
ATOM      3  C   UNL     1      33.927 -19.561 -21.055  0.00  0.00    +0.252 C 
ATOM      4  H   UNL     1      35.725 -20.513 -21.017  0.00  0.00    +0.155 HD
ENDROOT
BRANCH   3   6
ATOM      5  N   UNL     1      35.124 -16.764 -23.253  0.00  0.00    -0.229 NA
ATOM      6  C   UNL     1      34.366 -18.800 -22.254  0.00  0.00    +0.085 C 
ATOM      7  C   UNL     1      34.722 -17.480 -22.179  0.00  0.00    +0.133 C 
ATOM      8  C   UNL     1      34.410 -19.458 -23.462  0.00  0.00    +0.009 C 
ATOM      9  C   UNL     1      34.818 -18.755 -24.591  0.00  0.00    +0.021 C 
ATOM     10  C   UNL     1      35.162 -17.422 -24.434  0.00  0.00    +0.100 C 
ATOM     11  N   UNL     1      34.672 -16.818 -20.926  0.00  0.00    -0.314 N 
ATOM     12  H   UNL     1      34.383 -17.327 -20.135  0.00  0.00    +0.149 HD
BRANCH  11  13
ATOM     13  C   UNL     1      35.026 -15.446 -20.766  0.00  0.00    +0.115 C 
BRANCH  13  15
ATOM     14  N   UNL     1      32.059 -12.914 -22.544  0.00  0.00    -0.242 NA
ATOM     15  C   UNL     1      33.984 -14.558 -21.390  0.00  0.00    +0.000 C 
ATOM     16  C   UNL     1      32.818 -14.279 -20.699  0.00  0.00    +0.018 C 
ATOM     17  C   UNL     1      34.203 -14.027 -22.650  0.00  0.00    +0.018 C 
ATOM     18  C   UNL     1      31.891 -13.456 -21.316  0.00  0.00    +0.099 C 
ATOM     19  C   UNL     1      33.213 -13.214 -23.180  0.00  0.00    +0.099 C 
ENDBRANCH  13  15
ENDBRANCH  11  13
ENDBRANCH   3   6
BRANCH   2  20
ATOM     20  C   UNL     1      34.717 -21.332 -19.457  0.00  0.00    +0.051 C 
ATOM     21  C   UNL     1      33.481 -21.921 -19.191  0.00  0.00    +0.018 C 
ATOM     22  C   UNL     1      35.811 -21.601 -18.634  0.00  0.00    +0.018 C 
ATOM     23  C   UNL     1      34.432 -23.050 -17.277  0.00  0.00    +0.145 C 
ATOM     24  C   UNL     1      33.339 -22.781 -18.100  0.00  0.00    +0.039 C 
ATOM     25  C   UNL     1      35.668 -22.461 -17.543  0.00  0.00    +0.039 C 
BRANCH  23  26
ATOM     26  O   UNL     1      34.292 -23.886 -16.213  0.00  0.00    -0.453 OA
BRANCH  26  27
ATOM     27  C   UNL     1      35.387 -24.061 -15.383  0.00  0.00    +0.145 C 
ATOM     28  C   UNL     1      35.760 -23.034 -14.534  0.00  0.00    +0.037 C 
ATOM     29  C   UNL     1      36.080 -25.257 -15.425  0.00  0.00    +0.037 C 
ATOM     30  C   UNL     1      36.864 -23.209 -13.699  0.00  0.00    +0.003 C 
ATOM     31  C   UNL     1      37.184 -25.433 -14.590  0.00  0.00    +0.003 C 
ATOM     32  C   UNL     1      37.575 -24.409 -13.727  0.00  0.00    +0.000 C 
ENDBRANCH  26  27
ENDBRANCH  23  26
ENDBRANCH   2  20
TORSDOF 6
ENDMDL
