MODEL 1
REMARK VINA RESULT:      -7.1      0.000      0.000
REMARK  Name = 446228
REMARK  5 active torsions:
REMARK  status: ('A' for Active; 'I' for Inactive)
REMARK    1  A    between atoms: C_2  and  O_7
REMARK    2  A    between atoms: C_3  and  O_9
REMARK    3  A    between atoms: C_5  and  C_14
REMARK    4  A    between atoms: C_6  and  O_11
REMARK    5  A    between atoms: C_14  and  O_15
REMARK                            x       y       z     vdW  Elec       q    Type
REMARK                         _______ _______ _______ _____ _____    ______ ____
ROOT
ATOM      1  O   UNL     1      38.101 -26.321 -14.922  0.00  0.00    -0.320 OA
ATOM      2  C   UNL     1      37.605 -24.647 -12.642  0.00  0.00    +0.145 C 
ATOM      3  C   UNL     1      36.533 -25.570 -13.221  0.00  0.00    +0.194 C 
ATOM      4  C   UNL     1      39.001 -25.137 -13.013  0.00  0.00    +0.073 C 
ATOM      5  C   UNL     1      39.093 -25.386 -14.511  0.00  0.00    +0.218 C 
ATOM      6  C   UNL     1      36.776 -25.837 -14.709  0.00  0.00    +0.263 C 
ENDROOT
BRANCH   2   7
ATOM      7  O   UNL     1      37.499 -24.611 -11.221  0.00  0.00    -0.382 OA
ATOM      8  H   UNL     1      37.924 -25.397 -10.846  0.00  0.00    +0.210 HD
ENDBRANCH   2   7
BRANCH   3   9
ATOM      9  O   UNL     1      35.262 -24.944 -13.051  0.00  0.00    -0.378 OA
ATOM     10  H   UNL     1      35.294 -24.044 -13.412  0.00  0.00    +0.211 HD
ENDBRANCH   3   9
BRANCH   6  11
ATOM     11  O   UNL     1      35.828 -26.815 -15.136  0.00  0.00    -0.358 OA
ATOM     12  H   UNL     1      36.268 -27.674 -15.223  0.00  0.00    +0.213 HD
ENDBRANCH   6  11
BRANCH   5  14
ATOM     13  O   UNL     1      41.189 -26.499 -14.068  0.00  0.00    -0.248 OA
ATOM     14  C   UNL     1      40.400 -26.015 -14.868  0.00  0.00    +0.341 C 
BRANCH  14  15
ATOM     15  O   UNL     1      40.601 -25.976 -16.208  0.00  0.00    -0.479 OA
ATOM     16  H   UNL     1      40.612 -25.153 -16.656  0.00  0.00    +0.295 HD
ENDBRANCH  14  15
ENDBRANCH   5  14
TORSDOF 5
ENDMDL
MODEL 2
REMARK VINA RESULT:      -6.9      1.520      2.746
REMARK  Name = 446228
REMARK  5 active torsions:
REMARK  status: ('A' for Active; 'I' for Inactive)
REMARK    1  A    between atoms: C_2  and  O_7
REMARK    2  A    between atoms: C_3  and  O_9
REMARK    3  A    between atoms: C_5  and  C_14
REMARK    4  A    between atoms: C_6  and  O_11
REMARK    5  A    between atoms: C_14  and  O_15
REMARK                            x       y       z     vdW  Elec       q    Type
REMARK                         _______ _______ _______ _____ _____    ______ ____
ROOT
ATOM      1  O   UNL     1      39.309 -24.550 -13.180  0.00  0.00    -0.320 OA
ATOM      2  C   UNL     1      36.760 -24.693 -14.495  0.00  0.00    +0.145 C 
ATOM      3  C   UNL     1      37.088 -23.603 -13.475  0.00  0.00    +0.194 C 
ATOM      4  C   UNL     1      38.034 -25.261 -15.110  0.00  0.00    +0.073 C 
ATOM      5  C   UNL     1      39.015 -25.663 -14.019  0.00  0.00    +0.218 C 
ATOM      6  C   UNL     1      38.157 -24.073 -12.485  0.00  0.00    +0.263 C 
ENDROOT
BRANCH   2   7
ATOM      7  O   UNL     1      35.953 -24.153 -15.538  0.00  0.00    -0.382 OA
ATOM      8  H   UNL     1      35.474 -24.871 -15.980  0.00  0.00    +0.210 HD
ENDBRANCH   2   7
BRANCH   3   9
ATOM      9  O   UNL     1      35.893 -23.278 -12.765  0.00  0.00    -0.378 OA
ATOM     10  H   UNL     1      36.097 -22.641 -12.063  0.00  0.00    +0.211 HD
ENDBRANCH   3   9
BRANCH   6  11
ATOM     11  O   UNL     1      38.512 -22.961 -11.665  0.00  0.00    -0.358 OA
ATOM     12  H   UNL     1      37.942 -22.944 -10.881  0.00  0.00    +0.213 HD
ENDBRANCH   6  11
BRANCH   5  14
ATOM     13  O   UNL     1      41.243 -26.590 -13.981  0.00  0.00    -0.248 OA
ATOM     14  C   UNL     1      40.326 -26.073 -14.604  0.00  0.00    +0.341 C 
BRANCH  14  15
ATOM     15  O   UNL     1      40.370 -25.791 -15.929  0.00  0.00    -0.479 OA
ATOM     16  H   UNL     1      40.128 -24.938 -16.234  0.00  0.00    +0.295 HD
ENDBRANCH  14  15
ENDBRANCH   5  14
TORSDOF 5
ENDMDL
MODEL 3
REMARK VINA RESULT:      -6.7      2.093      4.032
REMARK  Name = 446228
REMARK  5 active torsions:
REMARK  status: ('A' for Active; 'I' for Inactive)
REMARK    1  A    between atoms: C_2  and  O_7
REMARK    2  A    between atoms: C_3  and  O_9
REMARK    3  A    between atoms: C_5  and  C_14
REMARK    4  A    between atoms: C_6  and  O_11
REMARK    5  A    between atoms: C_14  and  O_15
REMARK                            x       y       z     vdW  Elec       q    Type
REMARK                         _______ _______ _______ _____ _____    ______ ____
ROOT
ATOM      1  O   UNL     1      38.135 -23.507 -13.692  0.00  0.00    -0.320 OA
ATOM      2  C   UNL     1      36.797 -26.048 -13.614  0.00  0.00    +0.145 C 
ATOM      3  C   UNL     1      37.858 -25.720 -14.664  0.00  0.00    +0.194 C 
ATOM      4  C   UNL     1      36.969 -25.171 -12.378  0.00  0.00    +0.073 C 
ATOM      5  C   UNL     1      37.063 -23.706 -12.777  0.00  0.00    +0.218 C 
ATOM      6  C   UNL     1      37.941 -24.213 -14.918  0.00  0.00    +0.263 C 
ENDROOT
BRANCH   2   7
ATOM      7  O   UNL     1      36.908 -27.413 -13.222  0.00  0.00    -0.382 OA
ATOM      8  H   UNL     1      37.530 -27.869 -13.809  0.00  0.00    +0.210 HD
ENDBRANCH   2   7
BRANCH   3   9
ATOM      9  O   UNL     1      37.512 -26.388 -15.876  0.00  0.00    -0.378 OA
ATOM     10  H   UNL     1      36.679 -26.870 -15.753  0.00  0.00    +0.211 HD
ENDBRANCH   3   9
BRANCH   6  11
ATOM     11  O   UNL     1      39.045 -23.978 -15.792  0.00  0.00    -0.358 OA
ATOM     12  H   UNL     1      39.121 -24.713 -16.420  0.00  0.00    +0.213 HD
ENDBRANCH   6  11
BRANCH   5  14
ATOM     13  O   UNL     1      36.957 -23.022 -10.465  0.00  0.00    -0.248 OA
ATOM     14  C   UNL     1      37.389 -22.851 -11.596  0.00  0.00    +0.341 C 
BRANCH  14  15
ATOM     15  O   UNL     1      38.231 -21.849 -11.947  0.00  0.00    -0.479 OA
ATOM     16  H   UNL     1      37.886 -21.040 -12.273  0.00  0.00    +0.295 HD
ENDBRANCH  14  15
ENDBRANCH   5  14
TORSDOF 5
ENDMDL
MODEL 4
REMARK VINA RESULT:      -6.5      1.489      3.857
REMARK  Name = 446228
REMARK  5 active torsions:
REMARK  status: ('A' for Active; 'I' for Inactive)
REMARK    1  A    between atoms: C_2  and  O_7
REMARK    2  A    between atoms: C_3  and  O_9
REMARK    3  A    between atoms: C_5  and  C_14
REMARK    4  A    between atoms: C_6  and  O_11
REMARK    5  A    between atoms: C_14  and  O_15
REMARK                            x       y       z     vdW  Elec       q    Type
REMARK                         _______ _______ _______ _____ _____    ______ ____
ROOT
ATOM      1  O   UNL     1      36.360 -24.215 -13.652  0.00  0.00    -0.320 OA
ATOM      2  C   UNL     1      38.144 -26.423 -14.089  0.00  0.00    +0.145 C 
ATOM      3  C   UNL     1      37.228 -25.888 -15.190  0.00  0.00    +0.194 C 
ATOM      4  C   UNL     1      38.403 -25.354 -13.032  0.00  0.00    +0.073 C 
ATOM      5  C   UNL     1      37.089 -24.753 -12.554  0.00  0.00    +0.218 C 
ATOM      6  C   UNL     1      35.986 -25.214 -14.600  0.00  0.00    +0.263 C 
ENDROOT
BRANCH   2   7
ATOM      7  O   UNL     1      39.392 -26.822 -14.648  0.00  0.00    -0.382 OA
ATOM      8  H   UNL     1      39.415 -26.588 -15.588  0.00  0.00    +0.210 HD
ENDBRANCH   2   7
BRANCH   3   9
ATOM      9  O   UNL     1      36.829 -26.983 -16.013  0.00  0.00    -0.378 OA
ATOM     10  H   UNL     1      35.888 -27.171 -15.868  0.00  0.00    +0.211 HD
ENDBRANCH   3   9
BRANCH   6  11
ATOM     11  O   UNL     1      35.262 -24.616 -15.674  0.00  0.00    -0.358 OA
ATOM     12  H   UNL     1      35.586 -24.971 -16.517  0.00  0.00    +0.213 HD
ENDBRANCH   6  11
BRANCH   5  14
ATOM     13  O   UNL     1      37.992 -22.608 -11.917  0.00  0.00    -0.248 OA
ATOM     14  C   UNL     1      37.332 -23.599 -11.638  0.00  0.00    +0.341 C 
BRANCH  14  15
ATOM     15  O   UNL     1      36.723 -23.798 -10.444  0.00  0.00    -0.479 OA
ATOM     16  H   UNL     1      36.958 -24.536  -9.916  0.00  0.00    +0.295 HD
ENDBRANCH  14  15
ENDBRANCH   5  14
TORSDOF 5
ENDMDL
MODEL 5
REMARK VINA RESULT:      -6.4      1.487      1.679
REMARK  Name = 446228
REMARK  5 active torsions:
REMARK  status: ('A' for Active; 'I' for Inactive)
REMARK    1  A    between atoms: C_2  and  O_7
REMARK    2  A    between atoms: C_3  and  O_9
REMARK    3  A    between atoms: C_5  and  C_14
REMARK    4  A    between atoms: C_6  and  O_11
REMARK    5  A    between atoms: C_14  and  O_15
REMARK                            x       y       z     vdW  Elec       q    Type
REMARK                         _______ _______ _______ _____ _____    ______ ____
ROOT
ATOM      1  O   UNL     1      37.086 -25.267 -14.194  0.00  0.00    -0.320 OA
ATOM      2  C   UNL     1      36.836 -23.805 -11.735  0.00  0.00    +0.145 C 
ATOM      3  C   UNL     1      35.632 -24.446 -12.424  0.00  0.00    +0.194 C 
ATOM      4  C   UNL     1      38.131 -24.492 -12.154  0.00  0.00    +0.073 C 
ATOM      5  C   UNL     1      38.217 -24.580 -13.671  0.00  0.00    +0.218 C 
ATOM      6  C   UNL     1      35.863 -24.580 -13.932  0.00  0.00    +0.263 C 
ENDROOT
BRANCH   2   7
ATOM      7  O   UNL     1      36.701 -23.913 -10.321  0.00  0.00    -0.382 OA
ATOM      8  H   UNL     1      35.761 -23.968 -10.089  0.00  0.00    +0.210 HD
ENDBRANCH   2   7
BRANCH   3   9
ATOM      9  O   UNL     1      34.490 -23.625 -12.189  0.00  0.00    -0.378 OA
ATOM     10  H   UNL     1      33.855 -24.105 -11.634  0.00  0.00    +0.211 HD
ENDBRANCH   3   9
BRANCH   6  11
ATOM     11  O   UNL     1      34.767 -25.315 -14.476  0.00  0.00    -0.358 OA
ATOM     12  H   UNL     1      34.221 -24.725 -15.019  0.00  0.00    +0.213 HD
ENDBRANCH   6  11
BRANCH   5  14
ATOM     13  O   UNL     1      40.560 -25.002 -14.067  0.00  0.00    -0.248 OA
ATOM     14  C   UNL     1      39.400 -25.388 -14.092  0.00  0.00    +0.341 C 
BRANCH  14  15
ATOM     15  O   UNL     1      39.015 -26.618 -14.515  0.00  0.00    -0.479 OA
ATOM     16  H   UNL     1      38.130 -26.901 -14.385  0.00  0.00    +0.295 HD
ENDBRANCH  14  15
ENDBRANCH   5  14
TORSDOF 5
ENDMDL
MODEL 6
REMARK VINA RESULT:      -6.3      7.686      9.659
REMARK  Name = 446228
REMARK  5 active torsions:
REMARK  status: ('A' for Active; 'I' for Inactive)
REMARK    1  A    between atoms: C_2  and  O_7
REMARK    2  A    between atoms: C_3  and  O_9
REMARK    3  A    between atoms: C_5  and  C_14
REMARK    4  A    between atoms: C_6  and  O_11
REMARK    5  A    between atoms: C_14  and  O_15
REMARK                            x       y       z     vdW  Elec       q    Type
REMARK                         _______ _______ _______ _____ _____    ______ ____
ROOT
ATOM      1  O   UNL     1      28.733 -24.602 -15.752  0.00  0.00    -0.320 OA
ATOM      2  C   UNL     1      30.594 -23.027 -14.234  0.00  0.00    +0.145 C 
ATOM      3  C   UNL     1      30.636 -24.555 -14.237  0.00  0.00    +0.194 C 
ATOM      4  C   UNL     1      29.903 -22.501 -15.488  0.00  0.00    +0.073 C 
ATOM      5  C   UNL     1      28.561 -23.191 -15.682  0.00  0.00    +0.218 C 
ATOM      6  C   UNL     1      29.257 -25.147 -14.542  0.00  0.00    +0.263 C 
ENDROOT
BRANCH   2   7
ATOM      7  O   UNL     1      31.919 -22.505 -14.192  0.00  0.00    -0.382 OA
ATOM      8  H   UNL     1      31.919 -21.597 -14.531  0.00  0.00    +0.210 HD
ENDBRANCH   2   7
BRANCH   3   9
ATOM      9  O   UNL     1      31.069 -24.995 -12.951  0.00  0.00    -0.378 OA
ATOM     10  H   UNL     1      31.512 -25.853 -13.035  0.00  0.00    +0.211 HD
ENDBRANCH   3   9
BRANCH   6  11
ATOM     11  O   UNL     1      29.409 -26.560 -14.672  0.00  0.00    -0.358 OA
ATOM     12  H   UNL     1      28.534 -26.972 -14.749  0.00  0.00    +0.213 HD
ENDBRANCH   6  11
BRANCH   5  14
ATOM     13  O   UNL     1      27.816 -23.545 -17.950  0.00  0.00    -0.248 OA
ATOM     14  C   UNL     1      27.945 -22.803 -16.986  0.00  0.00    +0.341 C 
BRANCH  14  15
ATOM     15  O   UNL     1      27.547 -21.507 -16.963  0.00  0.00    -0.479 OA
ATOM     16  H   UNL     1      28.145 -20.830 -17.213  0.00  0.00    +0.295 HD
ENDBRANCH  14  15
ENDBRANCH   5  14
TORSDOF 5
ENDMDL
MODEL 7
REMARK VINA RESULT:      -6.2     13.605     14.356
REMARK  Name = 446228
REMARK  5 active torsions:
REMARK  status: ('A' for Active; 'I' for Inactive)
REMARK    1  A    between atoms: C_2  and  O_7
REMARK    2  A    between atoms: C_3  and  O_9
REMARK    3  A    between atoms: C_5  and  C_14
REMARK    4  A    between atoms: C_6  and  O_11
REMARK    5  A    between atoms: C_14  and  O_15
REMARK                            x       y       z     vdW  Elec       q    Type
REMARK                         _______ _______ _______ _____ _____    ______ ____
ROOT
ATOM      1  O   UNL     1      34.718 -17.221 -23.363  0.00  0.00    -0.320 OA
ATOM      2  C   UNL     1      33.793 -14.624 -24.168  0.00  0.00    +0.145 C 
ATOM      3  C   UNL     1      33.668 -15.848 -25.075  0.00  0.00    +0.194 C 
ATOM      4  C   UNL     1      33.899 -15.041 -22.705  0.00  0.00    +0.073 C 
ATOM      5  C   UNL     1      34.983 -16.095 -22.532  0.00  0.00    +0.218 C 
ATOM      6  C   UNL     1      34.742 -16.890 -24.751  0.00  0.00    +0.263 C 
ENDROOT
BRANCH   2   7
ATOM      7  O   UNL     1      32.650 -13.788 -24.321  0.00  0.00    -0.382 OA
ATOM      8  H   UNL     1      32.312 -13.864 -25.226  0.00  0.00    +0.210 HD
ENDBRANCH   2   7
BRANCH   3   9
ATOM      9  O   UNL     1      33.813 -15.421 -26.429  0.00  0.00    -0.378 OA
ATOM     10  H   UNL     1      34.199 -16.138 -26.955  0.00  0.00    +0.211 HD
ENDBRANCH   3   9
BRANCH   6  11
ATOM     11  O   UNL     1      34.469 -18.054 -25.532  0.00  0.00    -0.358 OA
ATOM     12  H   UNL     1      35.121 -18.122 -26.246  0.00  0.00    +0.213 HD
ENDBRANCH   6  11
BRANCH   5  14
ATOM     13  O   UNL     1      35.106 -17.808 -20.836  0.00  0.00    -0.248 OA
ATOM     14  C   UNL     1      34.991 -16.628 -21.137  0.00  0.00    +0.341 C 
BRANCH  14  15
ATOM     15  O   UNL     1      34.850 -15.623 -20.239  0.00  0.00    -0.479 OA
ATOM     16  H   UNL     1      35.338 -15.639 -19.438  0.00  0.00    +0.295 HD
ENDBRANCH  14  15
ENDBRANCH   5  14
TORSDOF 5
ENDMDL
MODEL 8
REMARK VINA RESULT:      -6.1      6.477      8.889
REMARK  Name = 446228
REMARK  5 active torsions:
REMARK  status: ('A' for Active; 'I' for Inactive)
REMARK    1  A    between atoms: C_2  and  O_7
REMARK    2  A    between atoms: C_3  and  O_9
REMARK    3  A    between atoms: C_5  and  C_14
REMARK    4  A    between atoms: C_6  and  O_11
REMARK    5  A    between atoms: C_14  and  O_15
REMARK                            x       y       z     vdW  Elec       q    Type
REMARK                         _______ _______ _______ _____ _____    ______ ____
ROOT
ATOM      1  O   UNL     1      30.845 -23.295 -16.440  0.00  0.00    -0.320 OA
ATOM      2  C   UNL     1      30.604 -24.924 -14.087  0.00  0.00    +0.145 C 
ATOM      3  C   UNL     1      31.875 -24.136 -14.403  0.00  0.00    +0.194 C 
ATOM      4  C   UNL     1      29.397 -24.311 -14.788  0.00  0.00    +0.073 C 
ATOM      5  C   UNL     1      29.690 -24.110 -16.268  0.00  0.00    +0.218 C 
ATOM      6  C   UNL     1      32.022 -23.901 -15.909  0.00  0.00    +0.263 C 
ENDROOT
BRANCH   2   7
ATOM      7  O   UNL     1      30.366 -24.918 -12.682  0.00  0.00    -0.382 OA
ATOM      8  H   UNL     1      29.712 -25.598 -12.462  0.00  0.00    +0.210 HD
ENDBRANCH   2   7
BRANCH   3   9
ATOM      9  O   UNL     1      32.996 -24.880 -13.926  0.00  0.00    -0.378 OA
ATOM     10  H   UNL     1      33.816 -24.448 -14.211  0.00  0.00    +0.211 HD
ENDBRANCH   3   9
BRANCH   6  11
ATOM     11  O   UNL     1      33.143 -23.040 -16.108  0.00  0.00    -0.358 OA
ATOM     12  H   UNL     1      32.859 -22.247 -16.588  0.00  0.00    +0.213 HD
ENDBRANCH   6  11
BRANCH   5  14
ATOM     13  O   UNL     1      27.614 -23.885 -17.477  0.00  0.00    -0.248 OA
ATOM     14  C   UNL     1      28.580 -23.367 -16.935  0.00  0.00    +0.341 C 
BRANCH  14  15
ATOM     15  O   UNL     1      28.787 -22.029 -16.865  0.00  0.00    -0.479 OA
ATOM     16  H   UNL     1      29.357 -21.611 -17.481  0.00  0.00    +0.295 HD
ENDBRANCH  14  15
ENDBRANCH   5  14
TORSDOF 5
ENDMDL
MODEL 9
REMARK VINA RESULT:      -6.0     13.142     13.856
REMARK  Name = 446228
REMARK  5 active torsions:
REMARK  status: ('A' for Active; 'I' for Inactive)
REMARK    1  A    between atoms: C_2  and  O_7
REMARK    2  A    between atoms: C_3  and  O_9
REMARK    3  A    between atoms: C_5  and  C_14
REMARK    4  A    between atoms: C_6  and  O_11
REMARK    5  A    between atoms: C_14  and  O_15
REMARK                            x       y       z     vdW  Elec       q    Type
REMARK                         _______ _______ _______ _____ _____    ______ ____
ROOT
ATOM      1  O   UNL     1      33.882 -15.336 -23.501  0.00  0.00    -0.320 OA
ATOM      2  C   UNL     1      35.304 -17.046 -21.685  0.00  0.00    +0.145 C 
ATOM      3  C   UNL     1      34.377 -15.934 -21.195  0.00  0.00    +0.194 C 
ATOM      4  C   UNL     1      34.935 -17.477 -23.100  0.00  0.00    +0.073 C 
ATOM      5  C   UNL     1      34.832 -16.264 -24.013  0.00  0.00    +0.218 C 
ATOM      6  C   UNL     1      34.264 -14.811 -22.230  0.00  0.00    +0.263 C 
ENDROOT
BRANCH   2   7
ATOM      7  O   UNL     1      35.202 -18.177 -20.824  0.00  0.00    -0.382 OA
ATOM      8  H   UNL     1      34.663 -18.861 -21.251  0.00  0.00    +0.210 HD
ENDBRANCH   2   7
BRANCH   3   9
ATOM      9  O   UNL     1      34.907 -15.409 -19.979  0.00  0.00    -0.378 OA
ATOM     10  H   UNL     1      34.179 -15.127 -19.404  0.00  0.00    +0.211 HD
ENDBRANCH   3   9
BRANCH   6  11
ATOM     11  O   UNL     1      33.275 -13.891 -21.768  0.00  0.00    -0.358 OA
ATOM     12  H   UNL     1      33.270 -13.109 -22.341  0.00  0.00    +0.213 HD
ENDBRANCH   6  11
BRANCH   5  14
ATOM     13  O   UNL     1      33.888 -15.873 -26.199  0.00  0.00    -0.248 OA
ATOM     14  C   UNL     1      34.319 -16.652 -25.360  0.00  0.00    +0.341 C 
BRANCH  14  15
ATOM     15  O   UNL     1      34.389 -17.995 -25.532  0.00  0.00    -0.479 OA
ATOM     16  H   UNL     1      35.204 -18.394 -25.771  0.00  0.00    +0.295 HD
ENDBRANCH  14  15
ENDBRANCH   5  14
TORSDOF 5
ENDMDL
