MODEL 1
REMARK VINA RESULT:     -12.8      0.000      0.000
REMARK  Name = 45268539
REMARK  6 active torsions:
REMARK  status: ('A' for Active; 'I' for Inactive)
REMARK    1  A    between atoms: N_2  and  C_22
REMARK    2  A    between atoms: N_3  and  C_7
REMARK    3  A    between atoms: N_3  and  O_12
REMARK    4  A    between atoms: C_8  and  C_14
REMARK    5  A    between atoms: C_15  and  C_16
REMARK    6  A    between atoms: C_22  and  C_26
REMARK                            x       y       z     vdW  Elec       q    Type
REMARK                         _______ _______ _______ _____ _____    ______ ____
ROOT
ATOM      1  O   UNL     1      32.510 -13.075 -20.953  0.00  0.00    -0.273 OA
ATOM      2  N   UNL     1      32.770 -13.627 -23.250  0.00  0.00    -0.253 N 
ATOM      3  C   UNL     1      33.334 -14.733 -23.915  0.00  0.00    +0.052 C 
ATOM      4  C   UNL     1      33.824 -15.659 -22.993  0.00  0.00    +0.018 C 
ATOM      5  C   UNL     1      32.862 -13.777 -21.876  0.00  0.00    +0.252 C 
ATOM      6  C   UNL     1      33.552 -15.106 -21.681  0.00  0.00    +0.202 C 
ATOM      7  C   UNL     1      34.431 -16.839 -23.366  0.00  0.00    -0.001 C 
ATOM      8  C   UNL     1      33.442 -14.970 -25.273  0.00  0.00    +0.015 C 
ATOM      9  C   UNL     1      34.543 -17.086 -24.735  0.00  0.00    -0.000 C 
ATOM     10  C   UNL     1      34.054 -16.162 -25.678  0.00  0.00    +0.001 C 
ENDROOT
BRANCH   7  11
ATOM     11  C   UNL     1      34.943 -17.806 -22.412  0.00  0.00    -0.000 C 
ATOM     12  C   UNL     1      34.227 -18.815 -21.857  0.00  0.00    -0.000 C 
BRANCH  12  13
ATOM     13  C   UNL     1      34.751 -19.807 -20.902  0.00  0.00    -0.000 C 
ATOM     14  C   UNL     1      36.124 -19.897 -20.674  0.00  0.00    -0.000 C 
ATOM     15  C   UNL     1      33.874 -20.654 -20.224  0.00  0.00    -0.000 C 
ATOM     16  C   UNL     1      36.621 -20.836 -19.769  0.00  0.00    +0.000 C 
ATOM     17  C   UNL     1      34.371 -21.592 -19.320  0.00  0.00    +0.000 C 
ATOM     18  C   UNL     1      35.744 -21.684 -19.093  0.00  0.00    +0.000 C 
ENDBRANCH  12  13
ENDBRANCH   7  11
BRANCH   6  19
ATOM     19  N   UNL     1      33.825 -15.603 -20.527  0.00  0.00    -0.075 NA
BRANCH  19  20
ATOM     20  O   UNL     1      35.002 -15.014 -20.056  0.00  0.00    -0.294 OA
ATOM     21  H   UNL     1      35.812 -15.484 -20.103  0.00  0.00    +0.238 HD
ENDBRANCH  19  20
ENDBRANCH   6  19
BRANCH   2  22
ATOM     22  C   UNL     1      32.181 -12.504 -23.936  0.00  0.00    +0.128 C 
BRANCH  22  26
ATOM     23  F   UNL     1      36.079 -10.550 -26.088  0.00  0.00    -0.204 F 
ATOM     24  O   UNL     1      31.993 -10.154 -22.432  0.00  0.00    -0.448 OA
ATOM     25  O   UNL     1      33.016  -8.197 -21.491  0.00  0.00    -0.311 OA
ATOM     26  C   UNL     1      33.149 -11.368 -24.092  0.00  0.00    +0.034 C 
ATOM     27  C   UNL     1      33.030 -10.206 -23.330  0.00  0.00    +0.138 C 
ATOM     28  C   UNL     1      33.952  -9.162 -23.475  0.00  0.00    +0.043 C 
ATOM     29  C   UNL     1      34.182 -11.482 -25.023  0.00  0.00    +0.030 C 
ATOM     30  C   UNL     1      33.808  -7.922 -22.647  0.00  0.00    +0.176 C 
ATOM     31  C   UNL     1      34.977  -9.280 -24.419  0.00  0.00    +0.031 C 
ATOM     32  C   UNL     1      35.092 -10.438 -25.189  0.00  0.00    +0.140 C 
ATOM     33  C   UNL     1      31.807  -8.852 -21.866  0.00  0.00    +0.361 C 
ENDBRANCH  22  26
ENDBRANCH   2  22
TORSDOF 6
ENDMDL
MODEL 2
REMARK VINA RESULT:     -11.6      1.854      2.493
REMARK  Name = 45268539
REMARK  6 active torsions:
REMARK  status: ('A' for Active; 'I' for Inactive)
REMARK    1  A    between atoms: N_2  and  C_22
REMARK    2  A    between atoms: N_3  and  C_7
REMARK    3  A    between atoms: N_3  and  O_12
REMARK    4  A    between atoms: C_8  and  C_14
REMARK    5  A    between atoms: C_15  and  C_16
REMARK    6  A    between atoms: C_22  and  C_26
REMARK                            x       y       z     vdW  Elec       q    Type
REMARK                         _______ _______ _______ _____ _____    ______ ____
ROOT
ATOM      1  O   UNL     1      33.990 -15.258 -26.270  0.00  0.00    -0.273 OA
ATOM      2  N   UNL     1      33.082 -13.991 -24.476  0.00  0.00    -0.253 N 
ATOM      3  C   UNL     1      33.012 -14.206 -23.085  0.00  0.00    +0.052 C 
ATOM      4  C   UNL     1      33.609 -15.421 -22.749  0.00  0.00    +0.018 C 
ATOM      5  C   UNL     1      33.723 -15.044 -25.107  0.00  0.00    +0.252 C 
ATOM      6  C   UNL     1      34.080 -15.999 -23.993  0.00  0.00    +0.202 C 
ATOM      7  C   UNL     1      33.684 -15.888 -21.454  0.00  0.00    -0.001 C 
ATOM      8  C   UNL     1      32.458 -13.402 -22.107  0.00  0.00    +0.015 C 
ATOM      9  C   UNL     1      33.127 -15.081 -20.460  0.00  0.00    -0.000 C 
ATOM     10  C   UNL     1      32.520 -13.852 -20.783  0.00  0.00    +0.001 C 
ENDROOT
BRANCH   7  11
ATOM     11  C   UNL     1      34.303 -17.151 -21.098  0.00  0.00    -0.000 C 
ATOM     12  C   UNL     1      33.644 -18.324 -20.925  0.00  0.00    -0.000 C 
BRANCH  12  13
ATOM     13  C   UNL     1      34.274 -19.612 -20.581  0.00  0.00    -0.000 C 
ATOM     14  C   UNL     1      35.637 -19.804 -20.808  0.00  0.00    -0.000 C 
ATOM     15  C   UNL     1      33.508 -20.637 -20.027  0.00  0.00    -0.000 C 
ATOM     16  C   UNL     1      36.233 -21.023 -20.482  0.00  0.00    +0.000 C 
ATOM     17  C   UNL     1      34.104 -21.855 -19.701  0.00  0.00    +0.000 C 
ATOM     18  C   UNL     1      35.466 -22.048 -19.929  0.00  0.00    +0.000 C 
ENDBRANCH  12  13
ENDBRANCH   7  11
BRANCH   6  19
ATOM     19  N   UNL     1      34.692 -17.114 -24.181  0.00  0.00    -0.075 NA
BRANCH  19  20
ATOM     20  O   UNL     1      34.103 -17.765 -25.269  0.00  0.00    -0.294 OA
ATOM     21  H   UNL     1      34.640 -18.220 -25.889  0.00  0.00    +0.238 HD
ENDBRANCH  19  20
ENDBRANCH   6  19
BRANCH   2  22
ATOM     22  C   UNL     1      32.549 -12.819 -25.125  0.00  0.00    +0.128 C 
BRANCH  22  26
ATOM     23  F   UNL     1      36.541 -10.317 -26.332  0.00  0.00    -0.204 F 
ATOM     24  O   UNL     1      31.979 -10.779 -23.299  0.00  0.00    -0.448 OA
ATOM     25  O   UNL     1      32.713  -8.964 -21.910  0.00  0.00    -0.311 OA
ATOM     26  C   UNL     1      33.440 -11.624 -24.949  0.00  0.00    +0.034 C 
ATOM     27  C   UNL     1      33.129 -10.620 -24.032  0.00  0.00    +0.138 C 
ATOM     28  C   UNL     1      33.979  -9.519 -23.867  0.00  0.00    +0.043 C 
ATOM     29  C   UNL     1      34.595 -11.519 -25.724  0.00  0.00    +0.030 C 
ATOM     30  C   UNL     1      33.630  -8.452 -22.876  0.00  0.00    +0.176 C 
ATOM     31  C   UNL     1      35.128  -9.417 -24.657  0.00  0.00    +0.031 C 
ATOM     32  C   UNL     1      35.436 -10.416 -25.582  0.00  0.00    +0.140 C 
ATOM     33  C   UNL     1      31.619  -9.607 -22.560  0.00  0.00    +0.361 C 
ENDBRANCH  22  26
ENDBRANCH   2  22
TORSDOF 6
ENDMDL
MODEL 3
REMARK VINA RESULT:     -11.6      6.885     12.854
REMARK  Name = 45268539
REMARK  6 active torsions:
REMARK  status: ('A' for Active; 'I' for Inactive)
REMARK    1  A    between atoms: N_2  and  C_22
REMARK    2  A    between atoms: N_3  and  C_7
REMARK    3  A    between atoms: N_3  and  O_12
REMARK    4  A    between atoms: C_8  and  C_14
REMARK    5  A    between atoms: C_15  and  C_16
REMARK    6  A    between atoms: C_22  and  C_26
REMARK                            x       y       z     vdW  Elec       q    Type
REMARK                         _______ _______ _______ _____ _____    ______ ____
ROOT
ATOM      1  O   UNL     1      32.009 -23.652 -17.126  0.00  0.00    -0.273 OA
ATOM      2  N   UNL     1      34.163 -23.217 -16.220  0.00  0.00    -0.253 N 
ATOM      3  C   UNL     1      35.299 -22.550 -16.719  0.00  0.00    +0.052 C 
ATOM      4  C   UNL     1      35.056 -22.069 -18.006  0.00  0.00    +0.018 C 
ATOM      5  C   UNL     1      33.135 -23.203 -17.148  0.00  0.00    +0.252 C 
ATOM      6  C   UNL     1      33.696 -22.453 -18.332  0.00  0.00    +0.202 C 
ATOM      7  C   UNL     1      35.996 -21.374 -18.737  0.00  0.00    -0.001 C 
ATOM      8  C   UNL     1      36.523 -22.344 -16.112  0.00  0.00    +0.015 C 
ATOM      9  C   UNL     1      37.235 -21.161 -18.131  0.00  0.00    -0.000 C 
ATOM     10  C   UNL     1      37.496 -21.641 -16.832  0.00  0.00    +0.001 C 
ENDROOT
BRANCH   7  11
ATOM     11  C   UNL     1      35.750 -20.872 -20.076  0.00  0.00    -0.000 C 
ATOM     12  C   UNL     1      35.557 -19.569 -20.401  0.00  0.00    -0.000 C 
BRANCH  12  13
ATOM     13  C   UNL     1      35.324 -19.057 -21.763  0.00  0.00    -0.000 C 
ATOM     14  C   UNL     1      34.942 -19.931 -22.781  0.00  0.00    -0.000 C 
ATOM     15  C   UNL     1      35.485 -17.699 -22.035  0.00  0.00    -0.000 C 
ATOM     16  C   UNL     1      34.722 -19.446 -24.071  0.00  0.00    +0.000 C 
ATOM     17  C   UNL     1      35.264 -17.214 -23.323  0.00  0.00    +0.000 C 
ATOM     18  C   UNL     1      34.884 -18.088 -24.342  0.00  0.00    +0.000 C 
ENDBRANCH  12  13
ENDBRANCH   7  11
BRANCH   6  19
ATOM     19  N   UNL     1      33.035 -22.230 -19.412  0.00  0.00    -0.075 NA
BRANCH  19  20
ATOM     20  O   UNL     1      32.459 -20.959 -19.324  0.00  0.00    -0.294 OA
ATOM     21  H   UNL     1      31.567 -20.830 -19.583  0.00  0.00    +0.238 HD
ENDBRANCH  19  20
ENDBRANCH   6  19
BRANCH   2  22
ATOM     22  C   UNL     1      34.108 -23.824 -14.913  0.00  0.00    +0.128 C 
BRANCH  22  26
ATOM     23  F   UNL     1      36.910 -27.598 -16.160  0.00  0.00    -0.204 F 
ATOM     24  O   UNL     1      35.816 -23.442 -12.732  0.00  0.00    -0.448 OA
ATOM     25  O   UNL     1      37.418 -24.306 -11.165  0.00  0.00    -0.311 OA
ATOM     26  C   UNL     1      35.293 -24.708 -14.653  0.00  0.00    +0.034 C 
ATOM     27  C   UNL     1      36.129 -24.493 -13.557  0.00  0.00    +0.138 C 
ATOM     28  C   UNL     1      37.221 -25.337 -13.319  0.00  0.00    +0.043 C 
ATOM     29  C   UNL     1      35.558 -25.760 -15.530  0.00  0.00    +0.030 C 
ATOM     30  C   UNL     1      38.107 -25.092 -12.137  0.00  0.00    +0.176 C 
ATOM     31  C   UNL     1      37.486 -26.382 -14.211  0.00  0.00    +0.031 C 
ATOM     32  C   UNL     1      36.655 -26.593 -15.312  0.00  0.00    +0.140 C 
ATOM     33  C   UNL     1      36.844 -23.153 -11.778  0.00  0.00    +0.361 C 
ENDBRANCH  22  26
ENDBRANCH   2  22
TORSDOF 6
ENDMDL
MODEL 4
REMARK VINA RESULT:     -11.3      1.902      2.411
REMARK  Name = 45268539
REMARK  6 active torsions:
REMARK  status: ('A' for Active; 'I' for Inactive)
REMARK    1  A    between atoms: N_2  and  C_22
REMARK    2  A    between atoms: N_3  and  C_7
REMARK    3  A    between atoms: N_3  and  O_12
REMARK    4  A    between atoms: C_8  and  C_14
REMARK    5  A    between atoms: C_15  and  C_16
REMARK    6  A    between atoms: C_22  and  C_26
REMARK                            x       y       z     vdW  Elec       q    Type
REMARK                         _______ _______ _______ _____ _____    ______ ____
ROOT
ATOM      1  O   UNL     1      34.481 -13.448 -21.443  0.00  0.00    -0.273 OA
ATOM      2  N   UNL     1      34.118 -14.380 -23.599  0.00  0.00    -0.253 N 
ATOM      3  C   UNL     1      34.176 -15.695 -24.101  0.00  0.00    +0.052 C 
ATOM      4  C   UNL     1      34.520 -16.589 -23.086  0.00  0.00    +0.018 C 
ATOM      5  C   UNL     1      34.417 -14.353 -22.248  0.00  0.00    +0.252 C 
ATOM      6  C   UNL     1      34.687 -15.794 -21.885  0.00  0.00    +0.202 C 
ATOM      7  C   UNL     1      34.650 -17.946 -23.294  0.00  0.00    -0.001 C 
ATOM      8  C   UNL     1      33.946 -16.147 -25.387  0.00  0.00    +0.015 C 
ATOM      9  C   UNL     1      34.419 -18.410 -24.589  0.00  0.00    -0.000 C 
ATOM     10  C   UNL     1      34.071 -17.521 -25.625  0.00  0.00    +0.001 C 
ENDROOT
BRANCH   7  11
ATOM     11  C   UNL     1      35.010 -18.880 -22.243  0.00  0.00    -0.000 C 
ATOM     12  C   UNL     1      34.131 -19.543 -21.450  0.00  0.00    -0.000 C 
BRANCH  12  13
ATOM     13  C   UNL     1      34.495 -20.505 -20.395  0.00  0.00    -0.000 C 
ATOM     14  C   UNL     1      35.833 -20.679 -20.041  0.00  0.00    -0.000 C 
ATOM     15  C   UNL     1      33.501 -21.240 -19.749  0.00  0.00    -0.000 C 
ATOM     16  C   UNL     1      36.177 -21.590 -19.041  0.00  0.00    +0.000 C 
ATOM     17  C   UNL     1      33.845 -22.150 -18.750  0.00  0.00    +0.000 C 
ATOM     18  C   UNL     1      35.183 -22.326 -18.396  0.00  0.00    +0.000 C 
ENDBRANCH  12  13
ENDBRANCH   7  11
BRANCH   6  19
ATOM     19  N   UNL     1      35.005 -16.182 -20.702  0.00  0.00    -0.075 NA
BRANCH  19  20
ATOM     20  O   UNL     1      34.085 -15.646 -19.796  0.00  0.00    -0.294 OA
ATOM     21  H   UNL     1      34.361 -15.408 -18.933  0.00  0.00    +0.238 HD
ENDBRANCH  19  20
ENDBRANCH   6  19
BRANCH   2  22
ATOM     22  C   UNL     1      33.786 -13.235 -24.411  0.00  0.00    +0.128 C 
BRANCH  22  26
ATOM     23  F   UNL     1      30.402 -11.843 -21.208  0.00  0.00    -0.204 F 
ATOM     24  O   UNL     1      34.581 -10.557 -24.540  0.00  0.00    -0.448 OA
ATOM     25  O   UNL     1      34.088  -8.223 -24.267  0.00  0.00    -0.311 OA
ATOM     26  C   UNL     1      33.113 -12.156 -23.614  0.00  0.00    +0.034 C 
ATOM     27  C   UNL     1      33.533 -10.828 -23.696  0.00  0.00    +0.138 C 
ATOM     28  C   UNL     1      32.884  -9.830 -22.958  0.00  0.00    +0.043 C 
ATOM     29  C   UNL     1      32.054 -12.496 -22.773  0.00  0.00    +0.030 C 
ATOM     30  C   UNL     1      33.348  -8.409 -23.061  0.00  0.00    +0.176 C 
ATOM     31  C   UNL     1      31.831 -10.182 -22.109  0.00  0.00    +0.031 C 
ATOM     32  C   UNL     1      31.416 -11.511 -22.018  0.00  0.00    +0.140 C 
ATOM     33  C   UNL     1      35.092  -9.228 -24.391  0.00  0.00    +0.361 C 
ENDBRANCH  22  26
ENDBRANCH   2  22
TORSDOF 6
ENDMDL
MODEL 5
REMARK VINA RESULT:     -11.3      1.832      2.590
REMARK  Name = 45268539
REMARK  6 active torsions:
REMARK  status: ('A' for Active; 'I' for Inactive)
REMARK    1  A    between atoms: N_2  and  C_22
REMARK    2  A    between atoms: N_3  and  C_7
REMARK    3  A    between atoms: N_3  and  O_12
REMARK    4  A    between atoms: C_8  and  C_14
REMARK    5  A    between atoms: C_15  and  C_16
REMARK    6  A    between atoms: C_22  and  C_26
REMARK                            x       y       z     vdW  Elec       q    Type
REMARK                         _______ _______ _______ _____ _____    ______ ____
ROOT
ATOM      1  O   UNL     1      32.094 -12.734 -20.237  0.00  0.00    -0.273 OA
ATOM      2  N   UNL     1      32.234 -12.962 -22.599  0.00  0.00    -0.253 N 
ATOM      3  C   UNL     1      32.842 -13.916 -23.438  0.00  0.00    +0.052 C 
ATOM      4  C   UNL     1      33.476 -14.900 -22.679  0.00  0.00    +0.018 C 
ATOM      5  C   UNL     1      32.439 -13.276 -21.266  0.00  0.00    +0.252 C 
ATOM      6  C   UNL     1      33.254 -14.547 -21.291  0.00  0.00    +0.202 C 
ATOM      7  C   UNL     1      34.154 -15.961 -23.242  0.00  0.00    -0.001 C 
ATOM      8  C   UNL     1      32.871 -13.967 -24.820  0.00  0.00    +0.015 C 
ATOM      9  C   UNL     1      34.187 -16.020 -24.636  0.00  0.00    -0.000 C 
ATOM     10  C   UNL     1      33.553 -15.034 -25.417  0.00  0.00    +0.001 C 
ENDROOT
BRANCH   7  11
ATOM     11  C   UNL     1      34.817 -16.987 -22.457  0.00  0.00    -0.000 C 
ATOM     12  C   UNL     1      34.211 -18.075 -21.921  0.00  0.00    -0.000 C 
BRANCH  12  13
ATOM     13  C   UNL     1      34.887 -19.126 -21.139  0.00  0.00    -0.000 C 
ATOM     14  C   UNL     1      34.137 -20.133 -20.530  0.00  0.00    -0.000 C 
ATOM     15  C   UNL     1      36.275 -19.116 -21.010  0.00  0.00    -0.000 C 
ATOM     16  C   UNL     1      34.777 -21.128 -19.790  0.00  0.00    +0.000 C 
ATOM     17  C   UNL     1      36.915 -20.110 -20.271  0.00  0.00    +0.000 C 
ATOM     18  C   UNL     1      36.166 -21.116 -19.660  0.00  0.00    +0.000 C 
ENDBRANCH  12  13
ENDBRANCH   7  11
BRANCH   6  19
ATOM     19  N   UNL     1      33.651 -15.158 -20.232  0.00  0.00    -0.075 NA
BRANCH  19  20
ATOM     20  O   UNL     1      35.009 -14.885 -20.046  0.00  0.00    -0.294 OA
ATOM     21  H   UNL     1      35.637 -15.178 -20.678  0.00  0.00    +0.238 HD
ENDBRANCH  19  20
ENDBRANCH   6  19
BRANCH   2  22
ATOM     22  C   UNL     1      31.501 -11.823 -23.093  0.00  0.00    +0.128 C 
BRANCH  22  26
ATOM     23  F   UNL     1      31.718  -8.055 -20.026  0.00  0.00    -0.204 F 
ATOM     24  O   UNL     1      33.629 -10.652 -24.479  0.00  0.00    -0.448 OA
ATOM     25  O   UNL     1      34.915  -8.711 -25.065  0.00  0.00    -0.311 OA
ATOM     26  C   UNL     1      32.123 -10.525 -22.666  0.00  0.00    +0.034 C 
ATOM     27  C   UNL     1      33.186  -9.965 -23.376  0.00  0.00    +0.138 C 
ATOM     28  C   UNL     1      33.745  -8.746 -22.974  0.00  0.00    +0.043 C 
ATOM     29  C   UNL     1      31.628  -9.876 -21.535  0.00  0.00    +0.030 C 
ATOM     30  C   UNL     1      34.884  -8.159 -23.750  0.00  0.00    +0.176 C 
ATOM     31  C   UNL     1      33.250  -8.108 -21.832  0.00  0.00    +0.031 C 
ATOM     32  C   UNL     1      32.193  -8.672 -21.116  0.00  0.00    +0.140 C 
ATOM     33  C   UNL     1      34.856 -10.134 -25.005  0.00  0.00    +0.361 C 
ENDBRANCH  22  26
ENDBRANCH   2  22
TORSDOF 6
ENDMDL
MODEL 6
REMARK VINA RESULT:     -11.1      2.579      8.911
REMARK  Name = 45268539
REMARK  6 active torsions:
REMARK  status: ('A' for Active; 'I' for Inactive)
REMARK    1  A    between atoms: N_2  and  C_22
REMARK    2  A    between atoms: N_3  and  C_7
REMARK    3  A    between atoms: N_3  and  O_12
REMARK    4  A    between atoms: C_8  and  C_14
REMARK    5  A    between atoms: C_15  and  C_16
REMARK    6  A    between atoms: C_22  and  C_26
REMARK                            x       y       z     vdW  Elec       q    Type
REMARK                         _______ _______ _______ _____ _____    ______ ____
ROOT
ATOM      1  O   UNL     1      34.250 -16.562 -20.741  0.00  0.00    -0.273 OA
ATOM      2  N   UNL     1      34.014 -16.788 -23.095  0.00  0.00    -0.253 N 
ATOM      3  C   UNL     1      33.780 -15.864 -24.132  0.00  0.00    +0.052 C 
ATOM      4  C   UNL     1      33.672 -14.572 -23.617  0.00  0.00    +0.018 C 
ATOM      5  C   UNL     1      34.071 -16.150 -21.868  0.00  0.00    +0.252 C 
ATOM      6  C   UNL     1      33.848 -14.691 -22.183  0.00  0.00    +0.202 C 
ATOM      7  C   UNL     1      33.441 -13.466 -24.408  0.00  0.00    -0.001 C 
ATOM      8  C   UNL     1      33.656 -16.091 -25.490  0.00  0.00    +0.015 C 
ATOM      9  C   UNL     1      33.316 -13.687 -25.780  0.00  0.00    -0.000 C 
ATOM     10  C   UNL     1      33.422 -14.985 -26.316  0.00  0.00    +0.001 C 
ENDROOT
BRANCH   7  11
ATOM     11  C   UNL     1      33.326 -12.119 -23.878  0.00  0.00    -0.000 C 
ATOM     12  C   UNL     1      33.843 -11.005 -24.454  0.00  0.00    -0.000 C 
BRANCH  12  13
ATOM     13  C   UNL     1      33.712  -9.635 -23.925  0.00  0.00    -0.000 C 
ATOM     14  C   UNL     1      34.773  -8.738 -24.043  0.00  0.00    -0.000 C 
ATOM     15  C   UNL     1      32.526  -9.236 -23.309  0.00  0.00    -0.000 C 
ATOM     16  C   UNL     1      34.649  -7.441 -23.543  0.00  0.00    +0.000 C 
ATOM     17  C   UNL     1      32.402  -7.940 -22.810  0.00  0.00    +0.000 C 
ATOM     18  C   UNL     1      33.463  -7.042 -22.926  0.00  0.00    +0.000 C 
ENDBRANCH  12  13
ENDBRANCH   7  11
BRANCH   6  19
ATOM     19  N   UNL     1      33.828 -13.765 -21.291  0.00  0.00    -0.075 NA
BRANCH  19  20
ATOM     20  O   UNL     1      32.694 -13.942 -20.493  0.00  0.00    -0.294 OA
ATOM     21  H   UNL     1      32.083 -13.239 -20.386  0.00  0.00    +0.238 HD
ENDBRANCH  19  20
ENDBRANCH   6  19
BRANCH   2  22
ATOM     22  C   UNL     1      34.172 -18.205 -23.316  0.00  0.00    +0.128 C 
BRANCH  22  26
ATOM     23  F   UNL     1      38.737 -18.743 -21.731  0.00  0.00    -0.204 F 
ATOM     24  O   UNL     1      33.396 -19.960 -21.281  0.00  0.00    -0.448 OA
ATOM     25  O   UNL     1      33.922 -21.724 -19.741  0.00  0.00    -0.311 OA
ATOM     26  C   UNL     1      35.155 -18.817 -22.362  0.00  0.00    +0.034 C 
ATOM     27  C   UNL     1      34.739 -19.688 -21.354  0.00  0.00    +0.138 C 
ATOM     28  C   UNL     1      35.671 -20.264 -20.482  0.00  0.00    +0.043 C 
ATOM     29  C   UNL     1      36.508 -18.500 -22.488  0.00  0.00    +0.030 C 
ATOM     30  C   UNL     1      35.206 -21.198 -19.408  0.00  0.00    +0.176 C 
ATOM     31  C   UNL     1      37.024 -19.931 -20.609  0.00  0.00    +0.031 C 
ATOM     32  C   UNL     1      37.441 -19.053 -21.610  0.00  0.00    +0.140 C 
ATOM     33  C   UNL     1      33.031 -20.668 -20.091  0.00  0.00    +0.361 C 
ENDBRANCH  22  26
ENDBRANCH   2  22
TORSDOF 6
ENDMDL
MODEL 7
REMARK VINA RESULT:     -10.7      2.779      9.203
REMARK  Name = 45268539
REMARK  6 active torsions:
REMARK  status: ('A' for Active; 'I' for Inactive)
REMARK    1  A    between atoms: N_2  and  C_22
REMARK    2  A    between atoms: N_3  and  C_7
REMARK    3  A    between atoms: N_3  and  O_12
REMARK    4  A    between atoms: C_8  and  C_14
REMARK    5  A    between atoms: C_15  and  C_16
REMARK    6  A    between atoms: C_22  and  C_26
REMARK                            x       y       z     vdW  Elec       q    Type
REMARK                         _______ _______ _______ _____ _____    ______ ____
ROOT
ATOM      1  O   UNL     1      35.263 -16.316 -20.085  0.00  0.00    -0.273 OA
ATOM      2  N   UNL     1      35.104 -16.977 -22.363  0.00  0.00    -0.253 N 
ATOM      3  C   UNL     1      34.609 -16.338 -23.517  0.00  0.00    +0.052 C 
ATOM      4  C   UNL     1      34.129 -15.067 -23.203  0.00  0.00    +0.018 C 
ATOM      5  C   UNL     1      34.972 -16.161 -21.252  0.00  0.00    +0.252 C 
ATOM      6  C   UNL     1      34.333 -14.897 -21.777  0.00  0.00    +0.202 C 
ATOM      7  C   UNL     1      33.585 -14.217 -24.142  0.00  0.00    -0.001 C 
ATOM      8  C   UNL     1      34.558 -16.807 -24.816  0.00  0.00    +0.015 C 
ATOM      9  C   UNL     1      33.530 -14.683 -25.457  0.00  0.00    -0.000 C 
ATOM     10  C   UNL     1      34.010 -15.964 -25.790  0.00  0.00    +0.001 C 
ENDROOT
BRANCH   7  11
ATOM     11  C   UNL     1      33.082 -12.894 -23.821  0.00  0.00    -0.000 C 
ATOM     12  C   UNL     1      33.788 -11.740 -23.930  0.00  0.00    -0.000 C 
BRANCH  12  13
ATOM     13  C   UNL     1      33.272 -10.395 -23.621  0.00  0.00    -0.000 C 
ATOM     14  C   UNL     1      32.000 -10.245 -23.068  0.00  0.00    -0.000 C 
ATOM     15  C   UNL     1      34.056  -9.271 -23.879  0.00  0.00    -0.000 C 
ATOM     16  C   UNL     1      31.511  -8.971 -22.776  0.00  0.00    +0.000 C 
ATOM     17  C   UNL     1      33.569  -7.998 -23.586  0.00  0.00    +0.000 C 
ATOM     18  C   UNL     1      32.296  -7.847 -23.035  0.00  0.00    +0.000 C 
ENDBRANCH  12  13
ENDBRANCH   7  11
BRANCH   6  19
ATOM     19  N   UNL     1      34.043 -13.886 -21.038  0.00  0.00    -0.075 NA
BRANCH  19  20
ATOM     20  O   UNL     1      32.861 -14.165 -20.347  0.00  0.00    -0.294 OA
ATOM     21  H   UNL     1      32.413 -13.481 -19.888  0.00  0.00    +0.238 HD
ENDBRANCH  19  20
ENDBRANCH   6  19
BRANCH   2  22
ATOM     22  C   UNL     1      35.668 -18.304 -22.370  0.00  0.00    +0.128 C 
BRANCH  22  26
ATOM     23  F   UNL     1      31.402 -20.281 -21.129  0.00  0.00    -0.204 F 
ATOM     24  O   UNL     1      36.847 -19.961 -20.450  0.00  0.00    -0.448 OA
ATOM     25  O   UNL     1      36.680 -21.272 -18.446  0.00  0.00    -0.311 OA
ATOM     26  C   UNL     1      34.870 -19.259 -21.530  0.00  0.00    +0.034 C 
ATOM     27  C   UNL     1      35.486 -20.076 -20.582  0.00  0.00    +0.138 C 
ATOM     28  C   UNL     1      34.726 -20.950 -19.795  0.00  0.00    +0.043 C 
ATOM     29  C   UNL     1      33.489 -19.330 -21.712  0.00  0.00    +0.030 C 
ATOM     30  C   UNL     1      35.404 -21.817 -18.779  0.00  0.00    +0.176 C 
ATOM     31  C   UNL     1      33.343 -21.022 -19.992  0.00  0.00    +0.031 C 
ATOM     32  C   UNL     1      32.727 -20.212 -20.947  0.00  0.00    +0.140 C 
ATOM     33  C   UNL     1      37.420 -20.986 -19.631  0.00  0.00    +0.361 C 
ENDBRANCH  22  26
ENDBRANCH   2  22
TORSDOF 6
ENDMDL
MODEL 8
REMARK VINA RESULT:     -10.2      1.674      2.393
REMARK  Name = 45268539
REMARK  6 active torsions:
REMARK  status: ('A' for Active; 'I' for Inactive)
REMARK    1  A    between atoms: N_2  and  C_22
REMARK    2  A    between atoms: N_3  and  C_7
REMARK    3  A    between atoms: N_3  and  O_12
REMARK    4  A    between atoms: C_8  and  C_14
REMARK    5  A    between atoms: C_15  and  C_16
REMARK    6  A    between atoms: C_22  and  C_26
REMARK                            x       y       z     vdW  Elec       q    Type
REMARK                         _______ _______ _______ _____ _____    ______ ____
ROOT
ATOM      1  O   UNL     1      32.330 -13.076 -20.901  0.00  0.00    -0.273 OA
ATOM      2  N   UNL     1      32.643 -13.618 -23.194  0.00  0.00    -0.253 N 
ATOM      3  C   UNL     1      33.234 -14.715 -23.851  0.00  0.00    +0.052 C 
ATOM      4  C   UNL     1      33.716 -15.637 -22.922  0.00  0.00    +0.018 C 
ATOM      5  C   UNL     1      32.709 -13.771 -21.819  0.00  0.00    +0.252 C 
ATOM      6  C   UNL     1      33.412 -15.092 -21.614  0.00  0.00    +0.202 C 
ATOM      7  C   UNL     1      34.345 -16.810 -23.285  0.00  0.00    -0.001 C 
ATOM      8  C   UNL     1      33.372 -14.947 -25.207  0.00  0.00    +0.015 C 
ATOM      9  C   UNL     1      34.488 -17.051 -24.652  0.00  0.00    -0.000 C 
ATOM     10  C   UNL     1      34.007 -16.130 -25.603  0.00  0.00    +0.001 C 
ENDROOT
BRANCH   7  11
ATOM     11  C   UNL     1      34.851 -17.772 -22.324  0.00  0.00    -0.000 C 
ATOM     12  C   UNL     1      34.159 -18.835 -21.842  0.00  0.00    -0.000 C 
BRANCH  12  13
ATOM     13  C   UNL     1      34.678 -19.822 -20.879  0.00  0.00    -0.000 C 
ATOM     14  C   UNL     1      36.049 -19.909 -20.639  0.00  0.00    -0.000 C 
ATOM     15  C   UNL     1      33.797 -20.669 -20.206  0.00  0.00    -0.000 C 
ATOM     16  C   UNL     1      36.540 -20.844 -19.727  0.00  0.00    +0.000 C 
ATOM     17  C   UNL     1      34.288 -21.604 -19.294  0.00  0.00    +0.000 C 
ATOM     18  C   UNL     1      35.659 -21.692 -19.055  0.00  0.00    +0.000 C 
ENDBRANCH  12  13
ENDBRANCH   7  11
BRANCH   6  19
ATOM     19  N   UNL     1      33.667 -15.589 -20.456  0.00  0.00    -0.075 NA
BRANCH  19  20
ATOM     20  O   UNL     1      34.957 -15.202 -20.081  0.00  0.00    -0.294 OA
ATOM     21  H   UNL     1      35.100 -14.360 -19.696  0.00  0.00    +0.238 HD
ENDBRANCH  19  20
ENDBRANCH   6  19
BRANCH   2  22
ATOM     22  C   UNL     1      32.053 -12.500 -23.889  0.00  0.00    +0.128 C 
BRANCH  22  26
ATOM     23  F   UNL     1      33.699  -8.304 -22.066  0.00  0.00    -0.204 F 
ATOM     24  O   UNL     1      33.949 -12.210 -25.925  0.00  0.00    -0.448 OA
ATOM     25  O   UNL     1      35.379 -10.813 -27.254  0.00  0.00    -0.311 OA
ATOM     26  C   UNL     1      32.986 -11.327 -23.960  0.00  0.00    +0.034 C 
ATOM     27  C   UNL     1      33.923 -11.209 -24.986  0.00  0.00    +0.138 C 
ATOM     28  C   UNL     1      34.775 -10.099 -25.048  0.00  0.00    +0.043 C 
ATOM     29  C   UNL     1      32.911 -10.342 -22.975  0.00  0.00    +0.030 C 
ATOM     30  C   UNL     1      35.774  -9.989 -26.158  0.00  0.00    +0.176 C 
ATOM     31  C   UNL     1      34.701  -9.123 -24.049  0.00  0.00    +0.031 C 
ATOM     32  C   UNL     1      33.770  -9.244 -23.016  0.00  0.00    +0.140 C 
ATOM     33  C   UNL     1      35.080 -12.131 -26.799  0.00  0.00    +0.361 C 
ENDBRANCH  22  26
ENDBRANCH   2  22
TORSDOF 6
ENDMDL
MODEL 9
REMARK VINA RESULT:     -10.0      3.108      8.985
REMARK  Name = 45268539
REMARK  6 active torsions:
REMARK  status: ('A' for Active; 'I' for Inactive)
REMARK    1  A    between atoms: N_2  and  C_22
REMARK    2  A    between atoms: N_3  and  C_7
REMARK    3  A    between atoms: N_3  and  O_12
REMARK    4  A    between atoms: C_8  and  C_14
REMARK    5  A    between atoms: C_15  and  C_16
REMARK    6  A    between atoms: C_22  and  C_26
REMARK                            x       y       z     vdW  Elec       q    Type
REMARK                         _______ _______ _______ _____ _____    ______ ____
ROOT
ATOM      1  O   UNL     1      34.411 -16.217 -25.877  0.00  0.00    -0.273 OA
ATOM      2  N   UNL     1      33.829 -16.867 -23.666  0.00  0.00    -0.253 N 
ATOM      3  C   UNL     1      33.407 -16.146 -22.532  0.00  0.00    +0.052 C 
ATOM      4  C   UNL     1      33.334 -14.783 -22.820  0.00  0.00    +0.018 C 
ATOM      5  C   UNL     1      34.048 -16.017 -24.737  0.00  0.00    +0.252 C 
ATOM      6  C   UNL     1      33.730 -14.640 -24.207  0.00  0.00    +0.202 C 
ATOM      7  C   UNL     1      32.948 -13.840 -21.891  0.00  0.00    -0.001 C 
ATOM      8  C   UNL     1      33.086 -16.616 -21.272  0.00  0.00    +0.015 C 
ATOM      9  C   UNL     1      32.622 -14.306 -20.617  0.00  0.00    -0.000 C 
ATOM     10  C   UNL     1      32.691 -15.679 -20.310  0.00  0.00    +0.001 C 
ENDROOT
BRANCH   7  11
ATOM     11  C   UNL     1      32.872 -12.420 -22.184  0.00  0.00    -0.000 C 
ATOM     12  C   UNL     1      31.999 -11.550 -21.618  0.00  0.00    -0.000 C 
BRANCH  12  13
ATOM     13  C   UNL     1      31.933 -10.105 -21.902  0.00  0.00    -0.000 C 
ATOM     14  C   UNL     1      31.734  -9.659 -23.209  0.00  0.00    -0.000 C 
ATOM     15  C   UNL     1      32.067  -9.183 -20.864  0.00  0.00    -0.000 C 
ATOM     16  C   UNL     1      31.672  -8.292 -23.477  0.00  0.00    +0.000 C 
ATOM     17  C   UNL     1      32.004  -7.816 -21.132  0.00  0.00    +0.000 C 
ATOM     18  C   UNL     1      31.807  -7.370 -22.439  0.00  0.00    +0.000 C 
ENDBRANCH  12  13
ENDBRANCH   7  11
BRANCH   6  19
ATOM     19  N   UNL     1      33.818 -13.568 -24.912  0.00  0.00    -0.075 NA
BRANCH  19  20
ATOM     20  O   UNL     1      33.060 -13.739 -26.074  0.00  0.00    -0.294 OA
ATOM     21  H   UNL     1      32.123 -13.727 -26.029  0.00  0.00    +0.238 HD
ENDBRANCH  19  20
ENDBRANCH   6  19
BRANCH   2  22
ATOM     22  C   UNL     1      33.999 -18.299 -23.679  0.00  0.00    +0.128 C 
BRANCH  22  26
ATOM     23  F   UNL     1      38.590 -18.358 -22.079  0.00  0.00    -0.204 F 
ATOM     24  O   UNL     1      33.354 -19.928 -21.499  0.00  0.00    -0.448 OA
ATOM     25  O   UNL     1      34.010 -21.512 -19.818  0.00  0.00    -0.311 OA
ATOM     26  C   UNL     1      35.025 -18.753 -22.682  0.00  0.00    +0.034 C 
ATOM     27  C   UNL     1      34.674 -19.564 -21.602  0.00  0.00    +0.138 C 
ATOM     28  C   UNL     1      35.646 -19.993 -20.690  0.00  0.00    +0.043 C 
ATOM     29  C   UNL     1      36.350 -18.348 -22.841  0.00  0.00    +0.030 C 
ATOM     30  C   UNL     1      35.251 -20.865 -19.537  0.00  0.00    +0.176 C 
ATOM     31  C   UNL     1      36.969 -19.572 -20.851  0.00  0.00    +0.031 C 
ATOM     32  C   UNL     1      37.320 -18.753 -21.925  0.00  0.00    +0.140 C 
ATOM     33  C   UNL     1      33.043 -20.559 -20.252  0.00  0.00    +0.361 C 
ENDBRANCH  22  26
ENDBRANCH   2  22
TORSDOF 6
ENDMDL
