MODEL 1
REMARK VINA RESULT:      -9.7      0.000      0.000
REMARK  Name = 23653532
REMARK  7 active torsions:
REMARK  status: ('A' for Active; 'I' for Inactive)
REMARK    1  A    between atoms: N_2  and  C_24
REMARK    2  A    between atoms: C_3  and  C_5
REMARK    3  A    between atoms: C_8  and  O_13
REMARK    4  A    between atoms: O_13  and  C_14
REMARK    5  A    between atoms: C_14  and  C_15
REMARK    6  A    between atoms: C_15  and  N_16
REMARK    7  A    between atoms: C_21  and  N_27
REMARK                            x       y       z     vdW  Elec       q    Type
REMARK                         _______ _______ _______ _____ _____    ______ ____
ROOT
ATOM      1  O   UNL     1      33.018 -21.791 -20.099  0.00  0.00    -0.270 OA
ATOM      2  N   UNL     1      34.871 -20.349 -20.004  0.00  0.00    -0.280 N 
ATOM      3  C   UNL     1      34.043 -21.387 -19.560  0.00  0.00    +0.249 C 
ATOM      4  H   UNL     1      35.659 -20.156 -19.445  0.00  0.00    +0.155 HD
ENDROOT
BRANCH   3   5
ATOM      5  C   UNL     1      34.457 -22.034 -18.287  0.00  0.00    +0.053 C 
ATOM      6  C   UNL     1      33.894 -23.293 -16.338  0.00  0.00    +0.012 C 
ATOM      7  C   UNL     1      36.167 -22.562 -16.706  0.00  0.00    +0.012 C 
ATOM      8  C   UNL     1      35.225 -23.230 -15.925  0.00  0.00    +0.130 C 
ATOM      9  C   UNL     1      33.506 -22.687 -17.534  0.00  0.00    +0.003 C 
ATOM     10  C   UNL     1      35.780 -21.957 -17.901  0.00  0.00    +0.003 C 
ATOM     11  C   UNL     1      32.871 -24.003 -15.515  0.00  0.00    +0.034 C 
ATOM     12  C   UNL     1      37.597 -22.485 -16.281  0.00  0.00    +0.034 C 
BRANCH   8  13
ATOM     13  O   UNL     1      35.604 -23.823 -14.756  0.00  0.00    -0.478 OA
BRANCH  13  14
ATOM     14  C   UNL     1      35.965 -25.200 -14.817  0.00  0.00    +0.182 C 
BRANCH  14  15
ATOM     15  C   UNL     1      36.887 -25.516 -13.649  0.00  0.00    -0.038 C 
BRANCH  15  16
ATOM     16  N   UNL     1      37.106 -26.950 -13.540  0.00  0.00    +0.383 N 
ATOM     17  H   UNL     1      36.908 -27.394 -14.437  0.00  0.00    -0.089 HD
ATOM     18  H   UNL     1      36.489 -27.335 -12.825  0.00  0.00    -0.089 HD
ATOM     19  H   UNL     1      38.077 -27.127 -13.280  0.00  0.00    -0.089 HD
ENDBRANCH  15  16
ENDBRANCH  14  15
ENDBRANCH  13  14
ENDBRANCH   8  13
ENDBRANCH   3   5
BRANCH   2  24
ATOM     20 CL   UNL     1      35.158 -19.944 -25.098  0.00  0.00    -0.082 Cl
ATOM     21  C   UNL     1      34.147 -17.408 -22.148  0.00  0.00    +0.050 C 
ATOM     22  C   UNL     1      34.305 -18.228 -21.015  0.00  0.00    +0.029 C 
ATOM     23  C   UNL     1      34.419 -17.964 -23.413  0.00  0.00    +0.026 C 
ATOM     24  C   UNL     1      34.719 -19.554 -21.141  0.00  0.00    +0.053 C 
ATOM     25  C   UNL     1      34.833 -19.290 -23.540  0.00  0.00    +0.060 C 
ATOM     26  C   UNL     1      34.983 -20.084 -22.404  0.00  0.00    +0.026 C 
BRANCH  21  27
ATOM     27  N   UNL     1      33.729 -16.077 -22.020  0.00  0.00    -0.307 N 
ATOM     28  C   UNL     1      32.775 -13.358 -21.865  0.00  0.00    +0.004 C 
ATOM     29  C   UNL     1      33.834 -13.771 -22.879  0.00  0.00    +0.021 C 
ATOM     30  C   UNL     1      32.860 -14.242 -20.626  0.00  0.00    +0.021 C 
ATOM     31  C   UNL     1      33.719 -15.250 -23.235  0.00  0.00    +0.091 C 
ATOM     32  C   UNL     1      32.752 -15.724 -20.983  0.00  0.00    +0.091 C 
ENDBRANCH  21  27
ENDBRANCH   2  24
TORSDOF 7
ENDMDL
MODEL 2
REMARK VINA RESULT:      -9.5      3.026      4.770
REMARK  Name = 23653532
REMARK  7 active torsions:
REMARK  status: ('A' for Active; 'I' for Inactive)
REMARK    1  A    between atoms: N_2  and  C_24
REMARK    2  A    between atoms: C_3  and  C_5
REMARK    3  A    between atoms: C_8  and  O_13
REMARK    4  A    between atoms: O_13  and  C_14
REMARK    5  A    between atoms: C_14  and  C_15
REMARK    6  A    between atoms: C_15  and  N_16
REMARK    7  A    between atoms: C_21  and  N_27
REMARK                            x       y       z     vdW  Elec       q    Type
REMARK                         _______ _______ _______ _____ _____    ______ ____
ROOT
ATOM      1  O   UNL     1      34.546 -17.965 -22.837  0.00  0.00    -0.270 OA
ATOM      2  N   UNL     1      33.597 -16.922 -20.957  0.00  0.00    -0.280 N 
ATOM      3  C   UNL     1      34.203 -17.971 -21.660  0.00  0.00    +0.249 C 
ATOM      4  H   UNL     1      33.387 -17.100 -20.011  0.00  0.00    +0.155 HD
ENDROOT
BRANCH   3   5
ATOM      5  C   UNL     1      34.419 -19.219 -20.881  0.00  0.00    +0.053 C 
ATOM      6  C   UNL     1      33.532 -21.009 -19.574  0.00  0.00    +0.012 C 
ATOM      7  C   UNL     1      35.901 -20.886 -20.028  0.00  0.00    +0.012 C 
ATOM      8  C   UNL     1      34.818 -21.533 -19.436  0.00  0.00    +0.130 C 
ATOM      9  C   UNL     1      33.330 -19.839 -20.305  0.00  0.00    +0.003 C 
ATOM     10  C   UNL     1      35.700 -19.716 -20.761  0.00  0.00    +0.003 C 
ATOM     11  C   UNL     1      32.360 -21.688 -18.945  0.00  0.00    +0.034 C 
ATOM     12  C   UNL     1      37.285 -21.431 -19.893  0.00  0.00    +0.034 C 
BRANCH   8  13
ATOM     13  O   UNL     1      35.015 -22.678 -18.721  0.00  0.00    -0.478 OA
BRANCH  13  14
ATOM     14  C   UNL     1      35.441 -22.530 -17.369  0.00  0.00    +0.182 C 
BRANCH  14  15
ATOM     15  C   UNL     1      34.425 -23.202 -16.459  0.00  0.00    -0.038 C 
BRANCH  15  16
ATOM     16  N   UNL     1      34.614 -22.783 -15.079  0.00  0.00    +0.383 N 
ATOM     17  H   UNL     1      34.665 -23.605 -14.477  0.00  0.00    -0.089 HD
ATOM     18  H   UNL     1      33.829 -22.199 -14.790  0.00  0.00    -0.089 HD
ATOM     19  H   UNL     1      35.480 -22.250 -15.001  0.00  0.00    -0.089 HD
ENDBRANCH  15  16
ENDBRANCH  14  15
ENDBRANCH  13  14
ENDBRANCH   8  13
ENDBRANCH   3   5
BRANCH   2  24
ATOM     20 CL   UNL     1      31.824 -12.230 -19.938  0.00  0.00    -0.082 Cl
ATOM     21  C   UNL     1      33.051 -14.085 -23.286  0.00  0.00    +0.050 C 
ATOM     22  C   UNL     1      33.394 -15.356 -22.786  0.00  0.00    +0.029 C 
ATOM     23  C   UNL     1      32.563 -13.125 -22.379  0.00  0.00    +0.026 C 
ATOM     24  C   UNL     1      33.253 -15.656 -21.430  0.00  0.00    +0.053 C 
ATOM     25  C   UNL     1      32.422 -13.423 -21.024  0.00  0.00    +0.060 C 
ATOM     26  C   UNL     1      32.768 -14.689 -20.551  0.00  0.00    +0.026 C 
BRANCH  21  27
ATOM     27  N   UNL     1      33.194 -13.786 -24.647  0.00  0.00    -0.307 N 
ATOM     28  C   UNL     1      33.632 -13.158 -27.429  0.00  0.00    +0.004 C 
ATOM     29  C   UNL     1      33.528 -12.063 -26.375  0.00  0.00    +0.021 C 
ATOM     30  C   UNL     1      32.813 -14.372 -27.008  0.00  0.00    +0.021 C 
ATOM     31  C   UNL     1      33.945 -12.572 -24.998  0.00  0.00    +0.091 C 
ATOM     32  C   UNL     1      33.225 -14.878 -25.627  0.00  0.00    +0.091 C 
ENDBRANCH  21  27
ENDBRANCH   2  24
TORSDOF 7
ENDMDL
MODEL 3
REMARK VINA RESULT:      -9.4      1.517      2.539
REMARK  Name = 23653532
REMARK  7 active torsions:
REMARK  status: ('A' for Active; 'I' for Inactive)
REMARK    1  A    between atoms: N_2  and  C_24
REMARK    2  A    between atoms: C_3  and  C_5
REMARK    3  A    between atoms: C_8  and  O_13
REMARK    4  A    between atoms: O_13  and  C_14
REMARK    5  A    between atoms: C_14  and  C_15
REMARK    6  A    between atoms: C_15  and  N_16
REMARK    7  A    between atoms: C_21  and  N_27
REMARK                            x       y       z     vdW  Elec       q    Type
REMARK                         _______ _______ _______ _____ _____    ______ ____
ROOT
ATOM      1  O   UNL     1      32.550 -20.273 -21.183  0.00  0.00    -0.270 OA
ATOM      2  N   UNL     1      34.475 -18.966 -20.852  0.00  0.00    -0.280 N 
ATOM      3  C   UNL     1      33.612 -20.044 -20.615  0.00  0.00    +0.249 C 
ATOM      4  H   UNL     1      35.290 -18.936 -20.301  0.00  0.00    +0.155 HD
ENDROOT
BRANCH   3   5
ATOM      5  C   UNL     1      34.040 -20.978 -19.541  0.00  0.00    +0.053 C 
ATOM      6  C   UNL     1      35.778 -21.921 -18.203  0.00  0.00    +0.012 C 
ATOM      7  C   UNL     1      33.487 -22.627 -17.904  0.00  0.00    +0.012 C 
ATOM      8  C   UNL     1      34.833 -22.712 -17.550  0.00  0.00    +0.130 C 
ATOM      9  C   UNL     1      35.376 -21.043 -19.210  0.00  0.00    +0.003 C 
ATOM     10  C   UNL     1      33.085 -21.749 -18.911  0.00  0.00    +0.003 C 
ATOM     11  C   UNL     1      37.224 -21.999 -17.838  0.00  0.00    +0.034 C 
ATOM     12  C   UNL     1      32.461 -23.466 -17.216  0.00  0.00    +0.034 C 
BRANCH   8  13
ATOM     13  O   UNL     1      35.226 -23.570 -16.565  0.00  0.00    -0.478 OA
BRANCH  13  14
ATOM     14  C   UNL     1      35.323 -23.039 -15.246  0.00  0.00    +0.182 C 
BRANCH  14  15
ATOM     15  C   UNL     1      36.300 -23.888 -14.447  0.00  0.00    -0.038 C 
BRANCH  15  16
ATOM     16  N   UNL     1      37.242 -24.557 -15.330  0.00  0.00    +0.383 N 
ATOM     17  H   UNL     1      38.188 -24.232 -15.128  0.00  0.00    -0.089 HD
ATOM     18  H   UNL     1      37.009 -24.346 -16.300  0.00  0.00    -0.089 HD
ATOM     19  H   UNL     1      37.191 -25.565 -15.181  0.00  0.00    -0.089 HD
ENDBRANCH  15  16
ENDBRANCH  14  15
ENDBRANCH  13  14
ENDBRANCH   8  13
ENDBRANCH   3   5
BRANCH   2  24
ATOM     20 CL   UNL     1      35.151 -17.253 -25.627  0.00  0.00    -0.082 Cl
ATOM     21  C   UNL     1      33.568 -15.667 -22.290  0.00  0.00    +0.050 C 
ATOM     22  C   UNL     1      33.731 -16.728 -21.379  0.00  0.00    +0.029 C 
ATOM     23  C   UNL     1      34.019 -15.853 -23.612  0.00  0.00    +0.026 C 
ATOM     24  C   UNL     1      34.322 -17.929 -21.773  0.00  0.00    +0.053 C 
ATOM     25  C   UNL     1      34.610 -17.053 -24.006  0.00  0.00    +0.060 C 
ATOM     26  C   UNL     1      34.761 -18.090 -23.086  0.00  0.00    +0.026 C 
BRANCH  21  27
ATOM     27  N   UNL     1      32.973 -14.463 -21.894  0.00  0.00    -0.307 N 
ATOM     28  C   UNL     1      31.626 -12.022 -21.147  0.00  0.00    +0.004 C 
ATOM     29  C   UNL     1      32.298 -12.174 -22.505  0.00  0.00    +0.021 C 
ATOM     30  C   UNL     1      32.332 -12.889 -20.111  0.00  0.00    +0.021 C 
ATOM     31  C   UNL     1      32.354 -13.636 -22.940  0.00  0.00    +0.091 C 
ATOM     32  C   UNL     1      32.396 -14.352 -20.549  0.00  0.00    +0.091 C 
ENDBRANCH  21  27
ENDBRANCH   2  24
TORSDOF 7
ENDMDL
MODEL 4
REMARK VINA RESULT:      -9.4      1.729      2.073
REMARK  Name = 23653532
REMARK  7 active torsions:
REMARK  status: ('A' for Active; 'I' for Inactive)
REMARK    1  A    between atoms: N_2  and  C_24
REMARK    2  A    between atoms: C_3  and  C_5
REMARK    3  A    between atoms: C_8  and  O_13
REMARK    4  A    between atoms: O_13  and  C_14
REMARK    5  A    between atoms: C_14  and  C_15
REMARK    6  A    between atoms: C_15  and  N_16
REMARK    7  A    between atoms: C_21  and  N_27
REMARK                            x       y       z     vdW  Elec       q    Type
REMARK                         _______ _______ _______ _____ _____    ______ ____
ROOT
ATOM      1  O   UNL     1      32.522 -20.331 -21.147  0.00  0.00    -0.270 OA
ATOM      2  N   UNL     1      34.462 -19.040 -20.839  0.00  0.00    -0.280 N 
ATOM      3  C   UNL     1      33.589 -20.106 -20.587  0.00  0.00    +0.249 C 
ATOM      4  H   UNL     1      35.280 -19.012 -20.292  0.00  0.00    +0.155 HD
ENDROOT
BRANCH   3   5
ATOM      5  C   UNL     1      34.012 -21.033 -19.504  0.00  0.00    +0.053 C 
ATOM      6  C   UNL     1      33.450 -22.655 -17.845  0.00  0.00    +0.012 C 
ATOM      7  C   UNL     1      35.746 -21.977 -18.160  0.00  0.00    +0.012 C 
ATOM      8  C   UNL     1      34.796 -22.751 -17.495  0.00  0.00    +0.130 C 
ATOM      9  C   UNL     1      33.053 -21.786 -18.862  0.00  0.00    +0.003 C 
ATOM     10  C   UNL     1      35.351 -21.108 -19.177  0.00  0.00    +0.003 C 
ATOM     11  C   UNL     1      32.417 -23.475 -17.143  0.00  0.00    +0.034 C 
ATOM     12  C   UNL     1      37.193 -22.065 -17.800  0.00  0.00    +0.034 C 
BRANCH   8  13
ATOM     13  O   UNL     1      35.183 -23.601 -16.500  0.00  0.00    -0.478 OA
BRANCH  13  14
ATOM     14  C   UNL     1      35.248 -23.065 -15.181  0.00  0.00    +0.182 C 
BRANCH  14  15
ATOM     15  C   UNL     1      34.617 -24.059 -14.218  0.00  0.00    -0.038 C 
BRANCH  15  16
ATOM     16  N   UNL     1      33.473 -23.465 -13.543  0.00  0.00    +0.383 N 
ATOM     17  H   UNL     1      32.613 -23.865 -13.916  0.00  0.00    -0.089 HD
ATOM     18  H   UNL     1      33.474 -22.457 -13.695  0.00  0.00    -0.089 HD
ATOM     19  H   UNL     1      33.532 -23.658 -12.542  0.00  0.00    -0.089 HD
ENDBRANCH  15  16
ENDBRANCH  14  15
ENDBRANCH  13  14
ENDBRANCH   8  13
ENDBRANCH   3   5
BRANCH   2  24
ATOM     20 CL   UNL     1      35.132 -17.387 -25.636  0.00  0.00    -0.082 Cl
ATOM     21  C   UNL     1      33.581 -15.748 -22.309  0.00  0.00    +0.050 C 
ATOM     22  C   UNL     1      33.737 -16.800 -21.387  0.00  0.00    +0.029 C 
ATOM     23  C   UNL     1      34.023 -15.953 -23.630  0.00  0.00    +0.026 C 
ATOM     24  C   UNL     1      34.314 -18.011 -21.770  0.00  0.00    +0.053 C 
ATOM     25  C   UNL     1      34.600 -17.163 -24.014  0.00  0.00    +0.060 C 
ATOM     26  C   UNL     1      34.745 -18.191 -23.084  0.00  0.00    +0.026 C 
BRANCH  21  27
ATOM     27  N   UNL     1      33.000 -14.534 -21.923  0.00  0.00    -0.307 N 
ATOM     28  C   UNL     1      31.682 -12.071 -21.197  0.00  0.00    +0.004 C 
ATOM     29  C   UNL     1      32.357 -12.240 -22.552  0.00  0.00    +0.021 C 
ATOM     30  C   UNL     1      32.372 -12.940 -20.153  0.00  0.00    +0.021 C 
ATOM     31  C   UNL     1      32.397 -13.706 -22.977  0.00  0.00    +0.091 C 
ATOM     32  C   UNL     1      32.418 -14.406 -20.581  0.00  0.00    +0.091 C 
ENDBRANCH  21  27
ENDBRANCH   2  24
TORSDOF 7
ENDMDL
MODEL 5
REMARK VINA RESULT:      -9.2      3.530      9.940
REMARK  Name = 23653532
REMARK  7 active torsions:
REMARK  status: ('A' for Active; 'I' for Inactive)
REMARK    1  A    between atoms: N_2  and  C_24
REMARK    2  A    between atoms: C_3  and  C_5
REMARK    3  A    between atoms: C_8  and  O_13
REMARK    4  A    between atoms: O_13  and  C_14
REMARK    5  A    between atoms: C_14  and  C_15
REMARK    6  A    between atoms: C_15  and  N_16
REMARK    7  A    between atoms: C_21  and  N_27
REMARK                            x       y       z     vdW  Elec       q    Type
REMARK                         _______ _______ _______ _____ _____    ______ ____
ROOT
ATOM      1  O   UNL     1      36.543 -22.310 -18.150  0.00  0.00    -0.270 OA
ATOM      2  N   UNL     1      34.251 -22.286 -17.627  0.00  0.00    -0.280 N 
ATOM      3  C   UNL     1      35.392 -21.945 -18.365  0.00  0.00    +0.249 C 
ATOM      4  H   UNL     1      33.402 -21.901 -17.942  0.00  0.00    +0.155 HD
ENDROOT
BRANCH   3   5
ATOM      5  C   UNL     1      35.160 -21.023 -19.507  0.00  0.00    +0.053 C 
ATOM      6  C   UNL     1      33.650 -19.946 -21.011  0.00  0.00    +0.012 C 
ATOM      7  C   UNL     1      36.026 -19.548 -21.174  0.00  0.00    +0.012 C 
ATOM      8  C   UNL     1      34.729 -19.314 -21.628  0.00  0.00    +0.130 C 
ATOM      9  C   UNL     1      33.868 -20.811 -19.937  0.00  0.00    +0.003 C 
ATOM     10  C   UNL     1      36.245 -20.411 -20.100  0.00  0.00    +0.003 C 
ATOM     11  C   UNL     1      32.253 -19.710 -21.484  0.00  0.00    +0.034 C 
ATOM     12  C   UNL     1      37.195 -18.881 -21.821  0.00  0.00    +0.034 C 
BRANCH   8  13
ATOM     13  O   UNL     1      34.515 -18.469 -22.677  0.00  0.00    -0.478 OA
BRANCH  13  14
ATOM     14  C   UNL     1      34.623 -19.023 -23.986  0.00  0.00    +0.182 C 
BRANCH  14  15
ATOM     15  C   UNL     1      34.580 -17.892 -25.001  0.00  0.00    -0.038 C 
BRANCH  15  16
ATOM     16  N   UNL     1      35.252 -16.710 -24.484  0.00  0.00    +0.383 N 
ATOM     17  H   UNL     1      34.572 -16.106 -24.023  0.00  0.00    -0.089 HD
ATOM     18  H   UNL     1      35.691 -16.204 -25.253  0.00  0.00    -0.089 HD
ATOM     19  H   UNL     1      35.967 -16.992 -23.812  0.00  0.00    -0.089 HD
ENDBRANCH  15  16
ENDBRANCH  14  15
ENDBRANCH  13  14
ENDBRANCH   8  13
ENDBRANCH   3   5
BRANCH   2  24
ATOM     20 CL   UNL     1      31.305 -24.685 -14.198  0.00  0.00    -0.082 Cl
ATOM     21  C   UNL     1      35.275 -24.407 -14.759  0.00  0.00    +0.050 C 
ATOM     22  C   UNL     1      35.334 -23.581 -15.898  0.00  0.00    +0.029 C 
ATOM     23  C   UNL     1      34.007 -24.739 -14.244  0.00  0.00    +0.026 C 
ATOM     24  C   UNL     1      34.169 -23.105 -16.500  0.00  0.00    +0.053 C 
ATOM     25  C   UNL     1      32.842 -24.263 -14.846  0.00  0.00    +0.060 C 
ATOM     26  C   UNL     1      32.924 -23.446 -15.974  0.00  0.00    +0.026 C 
BRANCH  21  27
ATOM     27  N   UNL     1      36.445 -24.885 -14.156  0.00  0.00    -0.307 N 
ATOM     28  C   UNL     1      38.909 -25.734 -12.916  0.00  0.00    +0.004 C 
ATOM     29  C   UNL     1      38.795 -25.574 -14.427  0.00  0.00    +0.021 C 
ATOM     30  C   UNL     1      37.554 -26.099 -12.322  0.00  0.00    +0.021 C 
ATOM     31  C   UNL     1      37.724 -24.552 -14.800  0.00  0.00    +0.091 C 
ATOM     32  C   UNL     1      36.480 -25.081 -12.702  0.00  0.00    +0.091 C 
ENDBRANCH  21  27
ENDBRANCH   2  24
TORSDOF 7
ENDMDL
MODEL 6
REMARK VINA RESULT:      -9.2      3.081      5.280
REMARK  Name = 23653532
REMARK  7 active torsions:
REMARK  status: ('A' for Active; 'I' for Inactive)
REMARK    1  A    between atoms: N_2  and  C_24
REMARK    2  A    between atoms: C_3  and  C_5
REMARK    3  A    between atoms: C_8  and  O_13
REMARK    4  A    between atoms: O_13  and  C_14
REMARK    5  A    between atoms: C_14  and  C_15
REMARK    6  A    between atoms: C_15  and  N_16
REMARK    7  A    between atoms: C_21  and  N_27
REMARK                            x       y       z     vdW  Elec       q    Type
REMARK                         _______ _______ _______ _____ _____    ______ ____
ROOT
ATOM      1  O   UNL     1      34.281 -17.815 -23.049  0.00  0.00    -0.270 OA
ATOM      2  N   UNL     1      33.713 -16.690 -21.064  0.00  0.00    -0.280 N 
ATOM      3  C   UNL     1      34.150 -17.779 -21.830  0.00  0.00    +0.249 C 
ATOM      4  H   UNL     1      33.667 -16.837 -20.092  0.00  0.00    +0.155 HD
ENDROOT
BRANCH   3   5
ATOM      5  C   UNL     1      34.456 -19.015 -21.063  0.00  0.00    +0.053 C 
ATOM      6  C   UNL     1      36.055 -20.590 -20.249  0.00  0.00    +0.012 C 
ATOM      7  C   UNL     1      33.707 -20.868 -19.756  0.00  0.00    +0.012 C 
ATOM      8  C   UNL     1      35.024 -21.309 -19.643  0.00  0.00    +0.130 C 
ATOM      9  C   UNL     1      35.768 -19.429 -20.967  0.00  0.00    +0.003 C 
ATOM     10  C   UNL     1      33.419 -19.707 -20.474  0.00  0.00    +0.003 C 
ATOM     11  C   UNL     1      37.473 -21.048 -20.139  0.00  0.00    +0.034 C 
ATOM     12  C   UNL     1      32.590 -21.623 -19.114  0.00  0.00    +0.034 C 
BRANCH   8  13
ATOM     13  O   UNL     1      35.306 -22.444 -18.940  0.00  0.00    -0.478 OA
BRANCH  13  14
ATOM     14  C   UNL     1      35.273 -22.349 -17.519  0.00  0.00    +0.182 C 
BRANCH  14  15
ATOM     15  C   UNL     1      36.701 -22.352 -16.995  0.00  0.00    -0.038 C 
BRANCH  15  16
ATOM     16  N   UNL     1      37.160 -20.994 -16.745  0.00  0.00    +0.383 N 
ATOM     17  H   UNL     1      37.551 -20.604 -17.603  0.00  0.00    -0.089 HD
ATOM     18  H   UNL     1      37.875 -21.004 -16.018  0.00  0.00    -0.089 HD
ATOM     19  H   UNL     1      36.373 -20.420 -16.439  0.00  0.00    -0.089 HD
ENDBRANCH  15  16
ENDBRANCH  14  15
ENDBRANCH  13  14
ENDBRANCH   8  13
ENDBRANCH   3   5
BRANCH   2  24
ATOM     20 CL   UNL     1      31.698 -12.116 -19.966  0.00  0.00    -0.082 Cl
ATOM     21  C   UNL     1      33.143 -13.798 -23.319  0.00  0.00    +0.050 C 
ATOM     22  C   UNL     1      33.519 -15.070 -22.847  0.00  0.00    +0.029 C 
ATOM     23  C   UNL     1      32.576 -12.891 -22.402  0.00  0.00    +0.026 C 
ATOM     24  C   UNL     1      33.335 -15.423 -21.510  0.00  0.00    +0.053 C 
ATOM     25  C   UNL     1      32.392 -13.243 -21.065  0.00  0.00    +0.060 C 
ATOM     26  C   UNL     1      32.772 -14.509 -20.620  0.00  0.00    +0.026 C 
BRANCH  21  27
ATOM     27  N   UNL     1      33.330 -13.445 -24.661  0.00  0.00    -0.307 N 
ATOM     28  C   UNL     1      33.569 -12.719 -27.444  0.00  0.00    +0.004 C 
ATOM     29  C   UNL     1      33.412 -14.172 -27.013  0.00  0.00    +0.021 C 
ATOM     30  C   UNL     1      34.269 -11.919 -26.352  0.00  0.00    +0.021 C 
ATOM     31  C   UNL     1      32.679 -14.282 -25.679  0.00  0.00    +0.091 C 
ATOM     32  C   UNL     1      33.540 -12.036 -25.014  0.00  0.00    +0.091 C 
ENDBRANCH  21  27
ENDBRANCH   2  24
TORSDOF 7
ENDMDL
MODEL 7
REMARK VINA RESULT:      -9.1      3.550     10.124
REMARK  Name = 23653532
REMARK  7 active torsions:
REMARK  status: ('A' for Active; 'I' for Inactive)
REMARK    1  A    between atoms: N_2  and  C_24
REMARK    2  A    between atoms: C_3  and  C_5
REMARK    3  A    between atoms: C_8  and  O_13
REMARK    4  A    between atoms: O_13  and  C_14
REMARK    5  A    between atoms: C_14  and  C_15
REMARK    6  A    between atoms: C_15  and  N_16
REMARK    7  A    between atoms: C_21  and  N_27
REMARK                            x       y       z     vdW  Elec       q    Type
REMARK                         _______ _______ _______ _____ _____    ______ ____
ROOT
ATOM      1  O   UNL     1      36.518 -22.391 -18.057  0.00  0.00    -0.270 OA
ATOM      2  N   UNL     1      34.228 -22.318 -17.532  0.00  0.00    -0.280 N 
ATOM      3  C   UNL     1      35.375 -22.004 -18.273  0.00  0.00    +0.249 C 
ATOM      4  H   UNL     1      33.386 -21.917 -17.848  0.00  0.00    +0.155 HD
ENDROOT
BRANCH   3   5
ATOM      5  C   UNL     1      35.160 -21.083 -19.420  0.00  0.00    +0.053 C 
ATOM      6  C   UNL     1      36.054 -19.613 -21.076  0.00  0.00    +0.012 C 
ATOM      7  C   UNL     1      33.673 -19.995 -20.940  0.00  0.00    +0.012 C 
ATOM      8  C   UNL     1      34.762 -19.372 -21.546  0.00  0.00    +0.130 C 
ATOM      9  C   UNL     1      36.255 -20.479 -20.001  0.00  0.00    +0.003 C 
ATOM     10  C   UNL     1      33.873 -20.862 -19.864  0.00  0.00    +0.003 C 
ATOM     11  C   UNL     1      37.234 -18.954 -21.712  0.00  0.00    +0.034 C 
ATOM     12  C   UNL     1      32.283 -19.751 -21.428  0.00  0.00    +0.034 C 
BRANCH   8  13
ATOM     13  O   UNL     1      34.567 -18.526 -22.597  0.00  0.00    -0.478 OA
BRANCH  13  14
ATOM     14  C   UNL     1      34.664 -19.086 -23.904  0.00  0.00    +0.182 C 
BRANCH  14  15
ATOM     15  C   UNL     1      34.587 -17.961 -24.926  0.00  0.00    -0.038 C 
BRANCH  15  16
ATOM     16  N   UNL     1      35.285 -16.779 -24.443  0.00  0.00    +0.383 N 
ATOM     17  H   UNL     1      35.390 -16.111 -25.205  0.00  0.00    -0.089 HD
ATOM     18  H   UNL     1      36.205 -17.046 -24.093  0.00  0.00    -0.089 HD
ATOM     19  H   UNL     1      34.747 -16.352 -23.688  0.00  0.00    -0.089 HD
ENDBRANCH  15  16
ENDBRANCH  14  15
ENDBRANCH  13  14
ENDBRANCH   8  13
ENDBRANCH   3   5
BRANCH   2  24
ATOM     20 CL   UNL     1      31.236 -24.782 -14.191  0.00  0.00    -0.082 Cl
ATOM     21  C   UNL     1      35.213 -24.379 -14.608  0.00  0.00    +0.050 C 
ATOM     22  C   UNL     1      35.288 -23.561 -15.752  0.00  0.00    +0.029 C 
ATOM     23  C   UNL     1      33.938 -24.748 -14.137  0.00  0.00    +0.026 C 
ATOM     24  C   UNL     1      34.131 -23.129 -16.401  0.00  0.00    +0.053 C 
ATOM     25  C   UNL     1      32.782 -24.316 -14.786  0.00  0.00    +0.060 C 
ATOM     26  C   UNL     1      32.879 -23.507 -15.918  0.00  0.00    +0.026 C 
BRANCH  21  27
ATOM     27  N   UNL     1      36.375 -24.813 -13.958  0.00  0.00    -0.307 N 
ATOM     28  C   UNL     1      38.686 -25.793 -12.534  0.00  0.00    +0.004 C 
ATOM     29  C   UNL     1      37.842 -24.651 -11.985  0.00  0.00    +0.021 C 
ATOM     30  C   UNL     1      38.627 -25.807 -14.057  0.00  0.00    +0.021 C 
ATOM     31  C   UNL     1      36.403 -24.726 -12.491  0.00  0.00    +0.091 C 
ATOM     32  C   UNL     1      37.187 -25.876 -14.563  0.00  0.00    +0.091 C 
ENDBRANCH  21  27
ENDBRANCH   2  24
TORSDOF 7
ENDMDL
MODEL 8
REMARK VINA RESULT:      -9.1      2.817      5.243
REMARK  Name = 23653532
REMARK  7 active torsions:
REMARK  status: ('A' for Active; 'I' for Inactive)
REMARK    1  A    between atoms: N_2  and  C_24
REMARK    2  A    between atoms: C_3  and  C_5
REMARK    3  A    between atoms: C_8  and  O_13
REMARK    4  A    between atoms: O_13  and  C_14
REMARK    5  A    between atoms: C_14  and  C_15
REMARK    6  A    between atoms: C_15  and  N_16
REMARK    7  A    between atoms: C_21  and  N_27
REMARK                            x       y       z     vdW  Elec       q    Type
REMARK                         _______ _______ _______ _____ _____    ______ ____
ROOT
ATOM      1  O   UNL     1      35.817 -16.911 -22.757  0.00  0.00    -0.270 OA
ATOM      2  N   UNL     1      33.674 -16.453 -21.907  0.00  0.00    -0.280 N 
ATOM      3  C   UNL     1      34.845 -17.204 -22.070  0.00  0.00    +0.249 C 
ATOM      4  H   UNL     1      32.990 -16.841 -21.315  0.00  0.00    +0.155 HD
ENDROOT
BRANCH   3   5
ATOM      5  C   UNL     1      34.875 -18.501 -21.345  0.00  0.00    +0.053 C 
ATOM      6  C   UNL     1      36.124 -20.307 -20.406  0.00  0.00    +0.012 C 
ATOM      7  C   UNL     1      33.712 -20.293 -20.276  0.00  0.00    +0.012 C 
ATOM      8  C   UNL     1      34.932 -20.909 -20.001  0.00  0.00    +0.130 C 
ATOM      9  C   UNL     1      36.095 -19.089 -21.085  0.00  0.00    +0.003 C 
ATOM     10  C   UNL     1      33.683 -19.075 -20.955  0.00  0.00    +0.003 C 
ATOM     11  C   UNL     1      37.441 -20.952 -20.121  0.00  0.00    +0.034 C 
ATOM     12  C   UNL     1      32.426 -20.921 -19.851  0.00  0.00    +0.034 C 
BRANCH   8  13
ATOM     13  O   UNL     1      34.962 -22.099 -19.336  0.00  0.00    -0.478 OA
BRANCH  13  14
ATOM     14  C   UNL     1      35.290 -22.058 -17.950  0.00  0.00    +0.182 C 
BRANCH  14  15
ATOM     15  C   UNL     1      34.310 -22.937 -17.188  0.00  0.00    -0.038 C 
BRANCH  15  16
ATOM     16  N   UNL     1      33.425 -23.637 -18.106  0.00  0.00    +0.383 N 
ATOM     17  H   UNL     1      32.615 -23.989 -17.597  0.00  0.00    -0.089 HD
ATOM     18  H   UNL     1      33.926 -24.417 -18.533  0.00  0.00    -0.089 HD
ATOM     19  H   UNL     1      33.115 -22.994 -18.836  0.00  0.00    -0.089 HD
ENDBRANCH  15  16
ENDBRANCH  14  15
ENDBRANCH  13  14
ENDBRANCH   8  13
ENDBRANCH   3   5
BRANCH   2  24
ATOM     20 CL   UNL     1      33.226 -13.611 -26.140  0.00  0.00    -0.082 Cl
ATOM     21  C   UNL     1      32.638 -12.904 -22.227  0.00  0.00    +0.050 C 
ATOM     22  C   UNL     1      32.960 -14.156 -21.670  0.00  0.00    +0.029 C 
ATOM     23  C   UNL     1      32.728 -12.755 -23.624  0.00  0.00    +0.026 C 
ATOM     24  C   UNL     1      33.358 -15.221 -22.480  0.00  0.00    +0.053 C 
ATOM     25  C   UNL     1      33.125 -13.819 -24.435  0.00  0.00    +0.060 C 
ATOM     26  C   UNL     1      33.439 -15.051 -23.862  0.00  0.00    +0.026 C 
BRANCH  21  27
ATOM     27  N   UNL     1      32.239 -11.837 -21.413  0.00  0.00    -0.307 N 
ATOM     28  C   UNL     1      31.293  -9.627 -19.815  0.00  0.00    +0.004 C 
ATOM     29  C   UNL     1      32.017  -9.399 -21.135  0.00  0.00    +0.021 C 
ATOM     30  C   UNL     1      31.766 -10.926 -19.173  0.00  0.00    +0.021 C 
ATOM     31  C   UNL     1      31.845 -10.587 -22.079  0.00  0.00    +0.091 C 
ATOM     32  C   UNL     1      31.602 -12.114 -20.120  0.00  0.00    +0.091 C 
ENDBRANCH  21  27
ENDBRANCH   2  24
TORSDOF 7
ENDMDL
MODEL 9
REMARK VINA RESULT:      -9.1      8.054     12.289
REMARK  Name = 23653532
REMARK  7 active torsions:
REMARK  status: ('A' for Active; 'I' for Inactive)
REMARK    1  A    between atoms: N_2  and  C_24
REMARK    2  A    between atoms: C_3  and  C_5
REMARK    3  A    between atoms: C_8  and  O_13
REMARK    4  A    between atoms: O_13  and  C_14
REMARK    5  A    between atoms: C_14  and  C_15
REMARK    6  A    between atoms: C_15  and  N_16
REMARK    7  A    between atoms: C_21  and  N_27
REMARK                            x       y       z     vdW  Elec       q    Type
REMARK                         _______ _______ _______ _____ _____    ______ ____
ROOT
ATOM      1  O   UNL     1      34.976  -9.925 -24.154  0.00  0.00    -0.270 OA
ATOM      2  N   UNL     1      32.759  -9.867 -23.375  0.00  0.00    -0.280 N 
ATOM      3  C   UNL     1      33.903 -10.469 -23.913  0.00  0.00    +0.249 C 
ATOM      4  H   UNL     1      31.981 -10.456 -23.246  0.00  0.00    +0.155 HD
ENDROOT
BRANCH   3   5
ATOM      5  C   UNL     1      33.770 -11.912 -24.241  0.00  0.00    +0.053 C 
ATOM      6  C   UNL     1      33.493 -13.637 -25.870  0.00  0.00    +0.012 C 
ATOM      7  C   UNL     1      33.671 -14.189 -23.525  0.00  0.00    +0.012 C 
ATOM      8  C   UNL     1      33.519 -14.590 -24.851  0.00  0.00    +0.130 C 
ATOM      9  C   UNL     1      33.620 -12.282 -25.561  0.00  0.00    +0.003 C 
ATOM     10  C   UNL     1      33.798 -12.834 -23.216  0.00  0.00    +0.003 C 
ATOM     11  C   UNL     1      33.330 -14.047 -27.297  0.00  0.00    +0.034 C 
ATOM     12  C   UNL     1      33.702 -15.194 -22.421  0.00  0.00    +0.034 C 
BRANCH   8  13
ATOM     13  O   UNL     1      33.395 -15.914 -25.154  0.00  0.00    -0.478 OA
BRANCH  13  14
ATOM     14  C   UNL     1      34.597 -16.630 -25.428  0.00  0.00    +0.182 C 
BRANCH  14  15
ATOM     15  C   UNL     1      34.556 -17.957 -24.687  0.00  0.00    -0.038 C 
BRANCH  15  16
ATOM     16  N   UNL     1      35.637 -18.038 -23.717  0.00  0.00    +0.383 N 
ATOM     17  H   UNL     1      35.548 -17.277 -23.044  0.00  0.00    -0.089 HD
ATOM     18  H   UNL     1      36.533 -17.965 -24.199  0.00  0.00    -0.089 HD
ATOM     19  H   UNL     1      35.588 -18.933 -23.228  0.00  0.00    -0.089 HD
ENDBRANCH  15  16
ENDBRANCH  14  15
ENDBRANCH  13  14
ENDBRANCH   8  13
ENDBRANCH   3   5
BRANCH   2  24
ATOM     20 CL   UNL     1      32.271  -6.443 -19.602  0.00  0.00    -0.082 Cl
ATOM     21  C   UNL     1      32.294  -6.193 -23.614  0.00  0.00    +0.050 C 
ATOM     22  C   UNL     1      32.472  -7.543 -23.972  0.00  0.00    +0.029 C 
ATOM     23  C   UNL     1      32.234  -5.872 -22.244  0.00  0.00    +0.026 C 
ATOM     24  C   UNL     1      32.585  -8.535 -22.997  0.00  0.00    +0.053 C 
ATOM     25  C   UNL     1      32.347  -6.863 -21.269  0.00  0.00    +0.060 C 
ATOM     26  C   UNL     1      32.523  -8.194 -21.647  0.00  0.00    +0.026 C 
BRANCH  21  27
ATOM     27  N   UNL     1      32.182  -5.198 -24.593  0.00  0.00    -0.307 N 
ATOM     28  C   UNL     1      31.921  -3.252 -26.709  0.00  0.00    +0.004 C 
ATOM     29  C   UNL     1      33.224  -4.008 -26.481  0.00  0.00    +0.021 C 
ATOM     30  C   UNL     1      31.163  -3.103 -25.395  0.00  0.00    +0.021 C 
ATOM     31  C   UNL     1      32.977  -5.361 -25.819  0.00  0.00    +0.091 C 
ATOM     32  C   UNL     1      30.922  -4.456 -24.727  0.00  0.00    +0.091 C 
ENDBRANCH  21  27
ENDBRANCH   2  24
TORSDOF 7
ENDMDL
