MODEL 1
REMARK VINA RESULT:      -8.1      0.000      0.000
REMARK  Name = 448017
REMARK  6 active torsions:
REMARK  status: ('A' for Active; 'I' for Inactive)
REMARK    1  A    between atoms: C_5  and  C_19
REMARK    2  A    between atoms: C_9  and  N_16
REMARK    3  A    between atoms: C_19  and  S_20
REMARK    4  A    between atoms: S_20  and  C_21
REMARK    5  A    between atoms: C_21  and  C_22
REMARK    6  A    between atoms: C_22  and  N_23
REMARK                            x       y       z     vdW  Elec       q    Type
REMARK                         _______ _______ _______ _____ _____    ______ ____
ROOT
ATOM      1  O   UNL     1      34.606 -18.510 -25.622  0.00  0.00    -0.209 OA
ATOM      2  N   UNL     1      33.752 -14.892 -24.131  0.00  0.00    -0.275 N 
ATOM      3  N   UNL     1      33.822 -16.388 -25.982  0.00  0.00    -0.302 NA
ATOM      4  N   UNL     1      33.047 -14.186 -26.196  0.00  0.00    -0.320 N 
ATOM      5  C   UNL     1      34.483 -15.561 -21.901  0.00  0.00    +0.004 C 
ATOM      6  C   UNL     1      34.268 -15.845 -23.252  0.00  0.00    +0.060 C 
ATOM      7  C   UNL     1      34.576 -17.120 -23.742  0.00  0.00    +0.109 C 
ATOM      8  C   UNL     1      35.001 -16.541 -21.052  0.00  0.00    +0.012 C 
ATOM      9  C   UNL     1      35.307 -17.809 -21.549  0.00  0.00    +0.042 C 
ATOM     10  C   UNL     1      35.095 -18.103 -22.895  0.00  0.00    +0.028 C 
ATOM     11  C   UNL     1      34.337 -17.395 -25.186  0.00  0.00    +0.208 C 
ATOM     12  C   UNL     1      33.557 -15.220 -25.453  0.00  0.00    +0.248 C 
ATOM     13  H   UNL     1      33.529 -13.988 -23.807  0.00  0.00    +0.156 HD
ATOM     14  H   UNL     1      32.858 -13.318 -25.769  0.00  0.00    +0.146 HD
ATOM     15  H   UNL     1      32.868 -14.310 -27.156  0.00  0.00    +0.146 HD
ENDROOT
BRANCH   9  16
ATOM     16  N   UNL     1      35.830 -18.795 -20.686  0.00  0.00    -0.357 N 
ATOM     17  H   UNL     1      36.722 -19.177 -20.858  0.00  0.00    +0.142 HD
ATOM     18  H   UNL     1      35.303 -19.102 -19.913  0.00  0.00    +0.142 HD
ENDBRANCH   9  16
BRANCH   5  19
ATOM     19  C   UNL     1      34.170 -14.216 -21.327  0.00  0.00    +0.085 C 
BRANCH  19  20
ATOM     20  S   UNL     1      32.422 -14.055 -20.854  0.00  0.00    -0.138 S 
BRANCH  20  21
ATOM     21  C   UNL     1      32.002 -12.636 -21.892  0.00  0.00    +0.035 C 
BRANCH  21  22
ATOM     22  C   UNL     1      31.257 -11.586 -21.078  0.00  0.00    -0.066 C 
BRANCH  22  23
ATOM     23  N   UNL     1      31.462 -10.266 -21.664  0.00  0.00    +0.385 N 
ATOM     24  C   UNL     1      32.373 -10.347 -22.807  0.00  0.00    -0.101 C 
ATOM     25  C   UNL     1      31.984  -9.333 -20.664  0.00  0.00    -0.101 C 
ATOM     26  H   UNL     1      30.562  -9.916 -21.992  0.00  0.00    -0.080 HD
ENDBRANCH  22  23
ENDBRANCH  21  22
ENDBRANCH  20  21
ENDBRANCH  19  20
ENDBRANCH   5  19
TORSDOF 6
ENDMDL
MODEL 2
REMARK VINA RESULT:      -8.0      1.233      1.608
REMARK  Name = 448017
REMARK  6 active torsions:
REMARK  status: ('A' for Active; 'I' for Inactive)
REMARK    1  A    between atoms: C_5  and  C_19
REMARK    2  A    between atoms: C_9  and  N_16
REMARK    3  A    between atoms: C_19  and  S_20
REMARK    4  A    between atoms: S_20  and  C_21
REMARK    5  A    between atoms: C_21  and  C_22
REMARK    6  A    between atoms: C_22  and  N_23
REMARK                            x       y       z     vdW  Elec       q    Type
REMARK                         _______ _______ _______ _____ _____    ______ ____
ROOT
ATOM      1  O   UNL     1      34.832 -17.280 -25.722  0.00  0.00    -0.209 OA
ATOM      2  N   UNL     1      32.741 -13.956 -24.929  0.00  0.00    -0.275 N 
ATOM      3  N   UNL     1      33.584 -15.526 -26.508  0.00  0.00    -0.302 NA
ATOM      4  N   UNL     1      32.294 -13.681 -27.162  0.00  0.00    -0.320 N 
ATOM      5  C   UNL     1      33.168 -14.174 -22.536  0.00  0.00    +0.004 C 
ATOM      6  C   UNL     1      33.312 -14.631 -23.849  0.00  0.00    +0.060 C 
ATOM      7  C   UNL     1      34.049 -15.796 -24.093  0.00  0.00    +0.109 C 
ATOM      8  C   UNL     1      33.756 -14.876 -21.481  0.00  0.00    +0.012 C 
ATOM      9  C   UNL     1      34.489 -16.036 -21.734  0.00  0.00    +0.042 C 
ATOM     10  C   UNL     1      34.639 -16.501 -23.040  0.00  0.00    +0.028 C 
ATOM     11  C   UNL     1      34.186 -16.259 -25.501  0.00  0.00    +0.208 C 
ATOM     12  C   UNL     1      32.910 -14.446 -26.204  0.00  0.00    +0.248 C 
ATOM     13  H   UNL     1      32.219 -13.134 -24.779  0.00  0.00    +0.156 HD
ATOM     14  H   UNL     1      31.794 -12.874 -26.901  0.00  0.00    +0.146 HD
ATOM     15  H   UNL     1      32.351 -13.940 -28.110  0.00  0.00    +0.146 HD
ENDROOT
BRANCH   9  16
ATOM     16  N   UNL     1      35.080 -16.741 -20.664  0.00  0.00    -0.357 N 
ATOM     17  H   UNL     1      35.505 -17.615 -20.824  0.00  0.00    +0.142 HD
ATOM     18  H   UNL     1      35.066 -16.359 -19.756  0.00  0.00    +0.142 HD
ENDBRANCH   9  16
BRANCH   5  19
ATOM     19  C   UNL     1      32.391 -12.937 -22.221  0.00  0.00    +0.085 C 
BRANCH  19  20
ATOM     20  S   UNL     1      31.972 -12.812 -20.457  0.00  0.00    -0.138 S 
BRANCH  20  21
ATOM     21  C   UNL     1      31.146 -11.205 -20.499  0.00  0.00    +0.035 C 
BRANCH  21  22
ATOM     22  C   UNL     1      31.205 -10.614 -21.902  0.00  0.00    -0.066 C 
BRANCH  22  23
ATOM     23  N   UNL     1      31.776  -9.272 -21.852  0.00  0.00    +0.385 N 
ATOM     24  C   UNL     1      32.886  -9.150 -22.797  0.00  0.00    -0.101 C 
ATOM     25  C   UNL     1      32.225  -8.955 -20.496  0.00  0.00    -0.101 C 
ATOM     26  H   UNL     1      31.051  -8.605 -22.116  0.00  0.00    -0.080 HD
ENDBRANCH  22  23
ENDBRANCH  21  22
ENDBRANCH  20  21
ENDBRANCH  19  20
ENDBRANCH   5  19
TORSDOF 6
ENDMDL
MODEL 3
REMARK VINA RESULT:      -7.9     10.927     13.684
REMARK  Name = 448017
REMARK  6 active torsions:
REMARK  status: ('A' for Active; 'I' for Inactive)
REMARK    1  A    between atoms: C_5  and  C_19
REMARK    2  A    between atoms: C_9  and  N_16
REMARK    3  A    between atoms: C_19  and  S_20
REMARK    4  A    between atoms: S_20  and  C_21
REMARK    5  A    between atoms: C_21  and  C_22
REMARK    6  A    between atoms: C_22  and  N_23
REMARK                            x       y       z     vdW  Elec       q    Type
REMARK                         _______ _______ _______ _____ _____    ______ ____
ROOT
ATOM      1  O   UNL     1      31.855 -22.941 -17.397  0.00  0.00    -0.209 OA
ATOM      2  N   UNL     1      32.694 -24.410 -13.767  0.00  0.00    -0.275 N 
ATOM      3  N   UNL     1      31.107 -23.949 -15.481  0.00  0.00    -0.302 NA
ATOM      4  N   UNL     1      30.491 -24.973 -13.464  0.00  0.00    -0.320 N 
ATOM      5  C   UNL     1      35.056 -23.846 -14.007  0.00  0.00    +0.004 C 
ATOM      6  C   UNL     1      33.750 -23.875 -14.505  0.00  0.00    +0.060 C 
ATOM      7  C   UNL     1      33.490 -23.353 -15.778  0.00  0.00    +0.109 C 
ATOM      8  C   UNL     1      36.087 -23.301 -14.775  0.00  0.00    +0.012 C 
ATOM      9  C   UNL     1      35.818 -22.783 -16.043  0.00  0.00    +0.042 C 
ATOM     10  C   UNL     1      34.519 -22.807 -16.549  0.00  0.00    +0.028 C 
ATOM     11  C   UNL     1      32.090 -23.397 -16.283  0.00  0.00    +0.208 C 
ATOM     12  C   UNL     1      31.425 -24.417 -14.301  0.00  0.00    +0.248 C 
ATOM     13  H   UNL     1      32.855 -24.782 -12.869  0.00  0.00    +0.156 HD
ATOM     14  H   UNL     1      30.762 -25.317 -12.582  0.00  0.00    +0.146 HD
ATOM     15  H   UNL     1      29.549 -25.029 -13.745  0.00  0.00    +0.146 HD
ENDROOT
BRANCH   9  16
ATOM     16  N   UNL     1      36.864 -22.233 -16.814  0.00  0.00    -0.357 N 
ATOM     17  H   UNL     1      36.657 -21.664 -17.591  0.00  0.00    +0.142 HD
ATOM     18  H   UNL     1      37.801 -22.421 -16.576  0.00  0.00    +0.142 HD
ENDBRANCH   9  16
BRANCH   5  19
ATOM     19  C   UNL     1      35.388 -24.390 -12.655  0.00  0.00    +0.085 C 
BRANCH  19  20
ATOM     20  S   UNL     1      36.699 -23.440 -11.829  0.00  0.00    -0.138 S 
BRANCH  20  21
ATOM     21  C   UNL     1      38.058 -24.607 -12.073  0.00  0.00    +0.035 C 
BRANCH  21  22
ATOM     22  C   UNL     1      37.521 -25.960 -12.522  0.00  0.00    -0.066 C 
BRANCH  22  23
ATOM     23  N   UNL     1      38.253 -26.419 -13.697  0.00  0.00    +0.385 N 
ATOM     24  C   UNL     1      39.192 -25.393 -14.152  0.00  0.00    -0.101 C 
ATOM     25  C   UNL     1      37.327 -26.774 -14.774  0.00  0.00    -0.101 C 
ATOM     26  H   UNL     1      38.783 -27.252 -13.440  0.00  0.00    -0.080 HD
ENDBRANCH  22  23
ENDBRANCH  21  22
ENDBRANCH  20  21
ENDBRANCH  19  20
ENDBRANCH   5  19
TORSDOF 6
ENDMDL
MODEL 4
REMARK VINA RESULT:      -7.9      8.935     12.266
REMARK  Name = 448017
REMARK  6 active torsions:
REMARK  status: ('A' for Active; 'I' for Inactive)
REMARK    1  A    between atoms: C_5  and  C_19
REMARK    2  A    between atoms: C_9  and  N_16
REMARK    3  A    between atoms: C_19  and  S_20
REMARK    4  A    between atoms: S_20  and  C_21
REMARK    5  A    between atoms: C_21  and  C_22
REMARK    6  A    between atoms: C_22  and  N_23
REMARK                            x       y       z     vdW  Elec       q    Type
REMARK                         _______ _______ _______ _____ _____    ______ ____
ROOT
ATOM      1  O   UNL     1      36.924 -26.392 -11.978  0.00  0.00    -0.209 OA
ATOM      2  N   UNL     1      38.397 -24.407 -15.129  0.00  0.00    -0.275 N 
ATOM      3  N   UNL     1      38.686 -26.006 -13.389  0.00  0.00    -0.302 NA
ATOM      4  N   UNL     1      40.399 -25.502 -14.908  0.00  0.00    -0.320 N 
ATOM      5  C   UNL     1      36.300 -23.197 -15.436  0.00  0.00    +0.004 C 
ATOM      6  C   UNL     1      37.082 -24.130 -14.750  0.00  0.00    +0.060 C 
ATOM      7  C   UNL     1      36.538 -24.807 -13.653  0.00  0.00    +0.109 C 
ATOM      8  C   UNL     1      34.989 -22.945 -15.027  0.00  0.00    +0.012 C 
ATOM      9  C   UNL     1      34.454 -23.625 -13.931  0.00  0.00    +0.042 C 
ATOM     10  C   UNL     1      35.226 -24.558 -13.240  0.00  0.00    +0.028 C 
ATOM     11  C   UNL     1      37.394 -25.796 -12.941  0.00  0.00    +0.208 C 
ATOM     12  C   UNL     1      39.127 -25.335 -14.423  0.00  0.00    +0.248 C 
ATOM     13  H   UNL     1      38.799 -23.941 -15.898  0.00  0.00    +0.156 HD
ATOM     14  H   UNL     1      40.702 -24.983 -15.688  0.00  0.00    +0.146 HD
ATOM     15  H   UNL     1      41.011 -26.143 -14.477  0.00  0.00    +0.146 HD
ENDROOT
BRANCH   9  16
ATOM     16  N   UNL     1      33.128 -23.367 -13.522  0.00  0.00    -0.357 N 
ATOM     17  H   UNL     1      32.956 -22.931 -12.656  0.00  0.00    +0.142 HD
ATOM     18  H   UNL     1      32.376 -23.625 -14.103  0.00  0.00    +0.142 HD
ENDBRANCH   9  16
BRANCH   5  19
ATOM     19  C   UNL     1      36.833 -22.447 -16.614  0.00  0.00    +0.085 C 
BRANCH  19  20
ATOM     20  S   UNL     1      35.568 -22.173 -17.891  0.00  0.00    -0.138 S 
BRANCH  20  21
ATOM     21  C   UNL     1      36.521 -21.080 -18.970  0.00  0.00    +0.035 C 
BRANCH  21  22
ATOM     22  C   UNL     1      35.825 -20.926 -20.317  0.00  0.00    -0.066 C 
BRANCH  22  23
ATOM     23  N   UNL     1      35.212 -19.606 -20.411  0.00  0.00    +0.385 N 
ATOM     24  C   UNL     1      33.838 -19.710 -20.903  0.00  0.00    -0.101 C 
ATOM     25  C   UNL     1      35.999 -18.733 -21.282  0.00  0.00    -0.101 C 
ATOM     26  H   UNL     1      35.191 -19.195 -19.477  0.00  0.00    -0.080 HD
ENDBRANCH  22  23
ENDBRANCH  21  22
ENDBRANCH  20  21
ENDBRANCH  19  20
ENDBRANCH   5  19
TORSDOF 6
ENDMDL
MODEL 5
REMARK VINA RESULT:      -7.9      7.985     10.654
REMARK  Name = 448017
REMARK  6 active torsions:
REMARK  status: ('A' for Active; 'I' for Inactive)
REMARK    1  A    between atoms: C_5  and  C_19
REMARK    2  A    between atoms: C_9  and  N_16
REMARK    3  A    between atoms: C_19  and  S_20
REMARK    4  A    between atoms: S_20  and  C_21
REMARK    5  A    between atoms: C_21  and  C_22
REMARK    6  A    between atoms: C_22  and  N_23
REMARK                            x       y       z     vdW  Elec       q    Type
REMARK                         _______ _______ _______ _____ _____    ______ ____
ROOT
ATOM      1  O   UNL     1      30.802 -23.960 -13.026  0.00  0.00    -0.209 OA
ATOM      2  N   UNL     1      31.035 -22.884 -16.877  0.00  0.00    -0.275 N 
ATOM      3  N   UNL     1      29.723 -23.287 -14.931  0.00  0.00    -0.302 NA
ATOM      4  N   UNL     1      28.761 -22.597 -16.954  0.00  0.00    -0.320 N 
ATOM      5  C   UNL     1      33.459 -23.164 -16.881  0.00  0.00    +0.004 C 
ATOM      6  C   UNL     1      32.226 -23.209 -16.225  0.00  0.00    +0.060 C 
ATOM      7  C   UNL     1      32.178 -23.589 -14.879  0.00  0.00    +0.109 C 
ATOM      8  C   UNL     1      34.630 -23.497 -16.197  0.00  0.00    +0.012 C 
ATOM      9  C   UNL     1      34.573 -23.876 -14.854  0.00  0.00    +0.042 C 
ATOM     10  C   UNL     1      33.348 -23.923 -14.190  0.00  0.00    +0.028 C 
ATOM     11  C   UNL     1      30.851 -23.627 -14.206  0.00  0.00    +0.208 C 
ATOM     12  C   UNL     1      29.845 -22.942 -16.188  0.00  0.00    +0.248 C 
ATOM     13  H   UNL     1      31.046 -22.615 -17.825  0.00  0.00    +0.156 HD
ATOM     14  H   UNL     1      28.885 -22.341 -17.897  0.00  0.00    +0.146 HD
ATOM     15  H   UNL     1      27.858 -22.604 -16.562  0.00  0.00    +0.146 HD
ENDROOT
BRANCH   9  16
ATOM     16  N   UNL     1      35.759 -24.211 -14.168  0.00  0.00    -0.357 N 
ATOM     17  H   UNL     1      35.724 -24.814 -13.390  0.00  0.00    +0.142 HD
ATOM     18  H   UNL     1      36.621 -23.840 -14.465  0.00  0.00    +0.142 HD
ENDBRANCH   9  16
BRANCH   5  19
ATOM     19  C   UNL     1      33.565 -22.765 -18.318  0.00  0.00    +0.085 C 
BRANCH  19  20
ATOM     20  S   UNL     1      35.187 -22.050 -18.720  0.00  0.00    -0.138 S 
BRANCH  20  21
ATOM     21  C   UNL     1      34.652 -20.899 -20.007  0.00  0.00    +0.035 C 
BRANCH  21  22
ATOM     22  C   UNL     1      35.840 -20.103 -20.533  0.00  0.00    -0.066 C 
BRANCH  22  23
ATOM     23  N   UNL     1      35.410 -18.760 -20.908  0.00  0.00    +0.385 N 
ATOM     24  C   UNL     1      33.970 -18.735 -21.169  0.00  0.00    -0.101 C 
ATOM     25  C   UNL     1      36.147 -18.293 -22.083  0.00  0.00    -0.101 C 
ATOM     26  H   UNL     1      35.609 -18.131 -20.131  0.00  0.00    -0.080 HD
ENDBRANCH  22  23
ENDBRANCH  21  22
ENDBRANCH  20  21
ENDBRANCH  19  20
ENDBRANCH   5  19
TORSDOF 6
ENDMDL
MODEL 6
REMARK VINA RESULT:      -7.7      1.050      3.417
REMARK  Name = 448017
REMARK  6 active torsions:
REMARK  status: ('A' for Active; 'I' for Inactive)
REMARK    1  A    between atoms: C_5  and  C_19
REMARK    2  A    between atoms: C_9  and  N_16
REMARK    3  A    between atoms: C_19  and  S_20
REMARK    4  A    between atoms: S_20  and  C_21
REMARK    5  A    between atoms: C_21  and  C_22
REMARK    6  A    between atoms: C_22  and  N_23
REMARK                            x       y       z     vdW  Elec       q    Type
REMARK                         _______ _______ _______ _____ _____    ______ ____
ROOT
ATOM      1  O   UNL     1      34.808 -19.356 -25.038  0.00  0.00    -0.209 OA
ATOM      2  N   UNL     1      35.071 -16.976 -21.826  0.00  0.00    -0.275 N 
ATOM      3  N   UNL     1      35.384 -19.110 -22.834  0.00  0.00    -0.302 NA
ATOM      4  N   UNL     1      35.926 -18.708 -20.589  0.00  0.00    -0.320 N 
ATOM      5  C   UNL     1      34.168 -15.080 -23.070  0.00  0.00    +0.004 C 
ATOM      6  C   UNL     1      34.568 -16.418 -23.002  0.00  0.00    +0.060 C 
ATOM      7  C   UNL     1      34.464 -17.223 -24.143  0.00  0.00    +0.109 C 
ATOM      8  C   UNL     1      33.669 -14.557 -24.264  0.00  0.00    +0.012 C 
ATOM      9  C   UNL     1      33.568 -15.368 -25.396  0.00  0.00    +0.042 C 
ATOM     10  C   UNL     1      33.964 -16.703 -25.340  0.00  0.00    +0.028 C 
ATOM     11  C   UNL     1      34.898 -18.644 -24.042  0.00  0.00    +0.208 C 
ATOM     12  C   UNL     1      35.453 -18.298 -21.810  0.00  0.00    +0.248 C 
ATOM     13  H   UNL     1      35.152 -16.427 -21.012  0.00  0.00    +0.156 HD
ATOM     14  H   UNL     1      35.965 -18.073 -19.837  0.00  0.00    +0.146 HD
ATOM     15  H   UNL     1      36.227 -19.637 -20.464  0.00  0.00    +0.146 HD
ENDROOT
BRANCH   9  16
ATOM     16  N   UNL     1      33.063 -14.833 -26.601  0.00  0.00    -0.357 N 
ATOM     17  H   UNL     1      33.331 -15.225 -27.464  0.00  0.00    +0.142 HD
ATOM     18  H   UNL     1      32.444 -14.068 -26.578  0.00  0.00    +0.142 HD
ENDBRANCH   9  16
BRANCH   5  19
ATOM     19  C   UNL     1      34.259 -14.178 -21.882  0.00  0.00    +0.085 C 
BRANCH  19  20
ATOM     20  S   UNL     1      32.726 -14.161 -20.905  0.00  0.00    -0.138 S 
BRANCH  20  21
ATOM     21  C   UNL     1      31.980 -12.677 -21.617  0.00  0.00    +0.035 C 
BRANCH  21  22
ATOM     22  C   UNL     1      31.594 -11.697 -20.517  0.00  0.00    -0.066 C 
BRANCH  22  23
ATOM     23  N   UNL     1      31.437 -10.359 -21.076  0.00  0.00    +0.385 N 
ATOM     24  C   UNL     1      32.105 -10.263 -22.375  0.00  0.00    -0.101 C 
ATOM     25  C   UNL     1      31.966  -9.351 -20.157  0.00  0.00    -0.101 C 
ATOM     26  H   UNL     1      30.441 -10.182 -21.211  0.00  0.00    -0.080 HD
ENDBRANCH  22  23
ENDBRANCH  21  22
ENDBRANCH  20  21
ENDBRANCH  19  20
ENDBRANCH   5  19
TORSDOF 6
ENDMDL
MODEL 7
REMARK VINA RESULT:      -7.6      7.412     10.539
REMARK  Name = 448017
REMARK  6 active torsions:
REMARK  status: ('A' for Active; 'I' for Inactive)
REMARK    1  A    between atoms: C_5  and  C_19
REMARK    2  A    between atoms: C_9  and  N_16
REMARK    3  A    between atoms: C_19  and  S_20
REMARK    4  A    between atoms: S_20  and  C_21
REMARK    5  A    between atoms: C_21  and  C_22
REMARK    6  A    between atoms: C_22  and  N_23
REMARK                            x       y       z     vdW  Elec       q    Type
REMARK                         _______ _______ _______ _____ _____    ______ ____
ROOT
ATOM      1  O   UNL     1      34.023 -24.257 -12.863  0.00  0.00    -0.209 OA
ATOM      2  N   UNL     1      35.812 -23.351 -16.331  0.00  0.00    -0.275 N 
ATOM      3  N   UNL     1      35.967 -24.038 -14.056  0.00  0.00    -0.302 NA
ATOM      4  N   UNL     1      37.867 -23.769 -15.402  0.00  0.00    -0.320 N 
ATOM      5  C   UNL     1      33.667 -22.887 -17.397  0.00  0.00    +0.004 C 
ATOM      6  C   UNL     1      34.420 -23.270 -16.283  0.00  0.00    +0.060 C 
ATOM      7  C   UNL     1      33.764 -23.580 -15.085  0.00  0.00    +0.109 C 
ATOM      8  C   UNL     1      32.275 -22.815 -17.311  0.00  0.00    +0.012 C 
ATOM      9  C   UNL     1      31.630 -23.126 -16.112  0.00  0.00    +0.042 C 
ATOM     10  C   UNL     1      32.371 -23.509 -14.996  0.00  0.00    +0.028 C 
ATOM     11  C   UNL     1      34.592 -23.984 -13.916  0.00  0.00    +0.208 C 
ATOM     12  C   UNL     1      36.510 -23.734 -15.207  0.00  0.00    +0.248 C 
ATOM     13  H   UNL     1      36.293 -23.137 -17.163  0.00  0.00    +0.156 HD
ATOM     14  H   UNL     1      38.245 -23.535 -16.280  0.00  0.00    +0.146 HD
ATOM     15  H   UNL     1      38.464 -24.030 -14.663  0.00  0.00    +0.146 HD
ENDROOT
BRANCH   9  16
ATOM     16  N   UNL     1      30.223 -23.052 -16.032  0.00  0.00    -0.357 N 
ATOM     17  H   UNL     1      29.723 -22.484 -16.662  0.00  0.00    +0.142 HD
ATOM     18  H   UNL     1      29.742 -23.568 -15.345  0.00  0.00    +0.142 HD
ENDBRANCH   9  16
BRANCH   5  19
ATOM     19  C   UNL     1      34.317 -22.546 -18.698  0.00  0.00    +0.085 C 
BRANCH  19  20
ATOM     20  S   UNL     1      33.378 -21.305 -19.637  0.00  0.00    -0.138 S 
BRANCH  20  21
ATOM     21  C   UNL     1      34.775 -20.398 -20.339  0.00  0.00    +0.035 C 
BRANCH  21  22
ATOM     22  C   UNL     1      34.294 -19.113 -21.002  0.00  0.00    -0.066 C 
BRANCH  22  23
ATOM     23  N   UNL     1      35.383 -18.143 -21.053  0.00  0.00    +0.385 N 
ATOM     24  C   UNL     1      34.861 -16.779 -20.960  0.00  0.00    -0.101 C 
ATOM     25  C   UNL     1      36.161 -18.308 -22.282  0.00  0.00    -0.101 C 
ATOM     26  H   UNL     1      35.998 -18.310 -20.257  0.00  0.00    -0.080 HD
ENDBRANCH  22  23
ENDBRANCH  21  22
ENDBRANCH  20  21
ENDBRANCH  19  20
ENDBRANCH   5  19
TORSDOF 6
ENDMDL
MODEL 8
REMARK VINA RESULT:      -7.6      9.979     13.348
REMARK  Name = 448017
REMARK  6 active torsions:
REMARK  status: ('A' for Active; 'I' for Inactive)
REMARK    1  A    between atoms: C_5  and  C_19
REMARK    2  A    between atoms: C_9  and  N_16
REMARK    3  A    between atoms: C_19  and  S_20
REMARK    4  A    between atoms: S_20  and  C_21
REMARK    5  A    between atoms: C_21  and  C_22
REMARK    6  A    between atoms: C_22  and  N_23
REMARK                            x       y       z     vdW  Elec       q    Type
REMARK                         _______ _______ _______ _____ _____    ______ ____
ROOT
ATOM      1  O   UNL     1      29.609 -22.927 -17.008  0.00  0.00    -0.209 OA
ATOM      2  N   UNL     1      32.109 -24.191 -14.144  0.00  0.00    -0.275 N 
ATOM      3  N   UNL     1      29.887 -23.822 -14.917  0.00  0.00    -0.302 NA
ATOM      4  N   UNL     1      30.329 -24.728 -12.801  0.00  0.00    -0.320 N 
ATOM      5  C   UNL     1      34.058 -23.648 -15.508  0.00  0.00    +0.004 C 
ATOM      6  C   UNL     1      32.674 -23.701 -15.323  0.00  0.00    +0.060 C 
ATOM      7  C   UNL     1      31.827 -23.252 -16.343  0.00  0.00    +0.109 C 
ATOM      8  C   UNL     1      34.587 -23.150 -16.701  0.00  0.00    +0.012 C 
ATOM      9  C   UNL     1      33.735 -22.704 -17.713  0.00  0.00    +0.042 C 
ATOM     10  C   UNL     1      32.353 -22.753 -17.538  0.00  0.00    +0.028 C 
ATOM     11  C   UNL     1      30.357 -23.320 -16.118  0.00  0.00    +0.208 C 
ATOM     12  C   UNL     1      30.739 -24.224 -14.009  0.00  0.00    +0.248 C 
ATOM     13  H   UNL     1      32.687 -24.511 -13.413  0.00  0.00    +0.156 HD
ATOM     14  H   UNL     1      30.995 -25.023 -12.138  0.00  0.00    +0.146 HD
ATOM     15  H   UNL     1      29.368 -24.798 -12.597  0.00  0.00    +0.146 HD
ENDROOT
BRANCH   9  16
ATOM     16  N   UNL     1      34.275 -22.203 -18.916  0.00  0.00    -0.357 N 
ATOM     17  H   UNL     1      34.506 -21.248 -18.992  0.00  0.00    +0.142 HD
ATOM     18  H   UNL     1      34.420 -22.807 -19.680  0.00  0.00    +0.142 HD
ENDBRANCH   9  16
BRANCH   5  19
ATOM     19  C   UNL     1      35.006 -24.115 -14.451  0.00  0.00    +0.085 C 
BRANCH  19  20
ATOM     20  S   UNL     1      36.533 -23.131 -14.406  0.00  0.00    -0.138 S 
BRANCH  20  21
ATOM     21  C   UNL     1      37.666 -24.379 -15.059  0.00  0.00    +0.035 C 
BRANCH  21  22
ATOM     22  C   UNL     1      38.562 -24.915 -13.949  0.00  0.00    -0.066 C 
BRANCH  22  23
ATOM     23  N   UNL     1      38.141 -26.262 -13.580  0.00  0.00    +0.385 N 
ATOM     24  C   UNL     1      37.414 -26.895 -14.681  0.00  0.00    -0.101 C 
ATOM     25  C   UNL     1      37.312 -26.231 -12.375  0.00  0.00    -0.101 C 
ATOM     26  H   UNL     1      38.975 -26.816 -13.383  0.00  0.00    -0.080 HD
ENDBRANCH  22  23
ENDBRANCH  21  22
ENDBRANCH  20  21
ENDBRANCH  19  20
ENDBRANCH   5  19
TORSDOF 6
ENDMDL
MODEL 9
REMARK VINA RESULT:      -7.5     10.211     12.306
REMARK  Name = 448017
REMARK  6 active torsions:
REMARK  status: ('A' for Active; 'I' for Inactive)
REMARK    1  A    between atoms: C_5  and  C_19
REMARK    2  A    between atoms: C_9  and  N_16
REMARK    3  A    between atoms: C_19  and  S_20
REMARK    4  A    between atoms: S_20  and  C_21
REMARK    5  A    between atoms: C_21  and  C_22
REMARK    6  A    between atoms: C_22  and  N_23
REMARK                            x       y       z     vdW  Elec       q    Type
REMARK                         _______ _______ _______ _____ _____    ______ ____
ROOT
ATOM      1  O   UNL     1      37.178 -23.192 -16.132  0.00  0.00    -0.209 OA
ATOM      2  N   UNL     1      34.074 -23.621 -13.637  0.00  0.00    -0.275 N 
ATOM      3  N   UNL     1      36.427 -23.575 -14.002  0.00  0.00    -0.302 NA
ATOM      4  N   UNL     1      35.509 -23.957 -11.879  0.00  0.00    -0.320 N 
ATOM      5  C   UNL     1      32.479 -23.272 -15.450  0.00  0.00    +0.004 C 
ATOM      6  C   UNL     1      33.791 -23.370 -14.981  0.00  0.00    +0.060 C 
ATOM      7  C   UNL     1      34.854 -23.216 -15.878  0.00  0.00    +0.109 C 
ATOM      8  C   UNL     1      32.234 -23.021 -16.802  0.00  0.00    +0.012 C 
ATOM      9  C   UNL     1      33.301 -22.869 -17.690  0.00  0.00    +0.042 C 
ATOM     10  C   UNL     1      34.614 -22.965 -17.232  0.00  0.00    +0.028 C 
ATOM     11  C   UNL     1      36.242 -23.326 -15.350  0.00  0.00    +0.208 C 
ATOM     12  C   UNL     1      35.384 -23.708 -13.223  0.00  0.00    +0.248 C 
ATOM     13  H   UNL     1      33.341 -23.733 -12.989  0.00  0.00    +0.156 HD
ATOM     14  H   UNL     1      34.704 -24.052 -11.319  0.00  0.00    +0.146 HD
ATOM     15  H   UNL     1      36.403 -24.040 -11.474  0.00  0.00    +0.146 HD
ENDROOT
BRANCH   9  16
ATOM     16  N   UNL     1      33.048 -22.616 -19.055  0.00  0.00    -0.357 N 
ATOM     17  H   UNL     1      32.137 -22.725 -19.415  0.00  0.00    +0.142 HD
ATOM     18  H   UNL     1      33.781 -22.332 -19.647  0.00  0.00    +0.142 HD
ENDBRANCH   9  16
BRANCH   5  19
ATOM     19  C   UNL     1      31.308 -23.428 -14.534  0.00  0.00    +0.085 C 
BRANCH  19  20
ATOM     20  S   UNL     1      30.770 -25.158 -14.387  0.00  0.00    -0.138 S 
BRANCH  20  21
ATOM     21  C   UNL     1      29.036 -24.930 -14.841  0.00  0.00    +0.035 C 
BRANCH  21  22
ATOM     22  C   UNL     1      28.927 -24.236 -16.193  0.00  0.00    -0.066 C 
BRANCH  22  23
ATOM     23  N   UNL     1      27.836 -23.268 -16.167  0.00  0.00    +0.385 N 
ATOM     24  C   UNL     1      27.542 -22.788 -17.518  0.00  0.00    -0.101 C 
ATOM     25  C   UNL     1      28.164 -22.145 -15.289  0.00  0.00    -0.101 C 
ATOM     26  H   UNL     1      27.004 -23.732 -15.801  0.00  0.00    -0.080 HD
ENDBRANCH  22  23
ENDBRANCH  21  22
ENDBRANCH  20  21
ENDBRANCH  19  20
ENDBRANCH   5  19
TORSDOF 6
ENDMDL
