MODEL 1
REMARK VINA RESULT:     -10.9      0.000      0.000
REMARK  Name = 25273230
REMARK  3 active torsions:
REMARK  status: ('A' for Active; 'I' for Inactive)
REMARK    1  A    between atoms: N_3  and  C_22
REMARK    2  A    between atoms: C_4  and  N_13
REMARK    3  A    between atoms: C_12  and  C_30
REMARK                            x       y       z     vdW  Elec       q    Type
REMARK                         _______ _______ _______ _____ _____    ______ ____
ROOT
ATOM      1  F   UNL     1      34.670 -25.055 -11.847  0.00  0.00    -0.203 F 
ATOM      2  O   UNL     1      30.256 -23.992 -13.997  0.00  0.00    -0.286 OA
ATOM      3  N   UNL     1      33.072 -22.960 -16.798  0.00  0.00    -0.264 N 
ATOM      4  C   UNL     1      35.254 -24.235 -13.995  0.00  0.00    +0.077 C 
ATOM      5  C   UNL     1      34.861 -23.715 -15.233  0.00  0.00    +0.032 C 
ATOM      6  C   UNL     1      33.505 -23.492 -15.534  0.00  0.00    +0.060 C 
ATOM      7  C   UNL     1      34.300 -24.557 -13.036  0.00  0.00    +0.153 C 
ATOM      8  C   UNL     1      32.554 -23.855 -14.554  0.00  0.00    +0.055 C 
ATOM      9  C   UNL     1      32.949 -24.374 -13.314  0.00  0.00    +0.035 C 
ATOM     10  C   UNL     1      31.104 -23.715 -14.835  0.00  0.00    +0.204 C 
ATOM     11  C   UNL     1      31.701 -22.900 -17.034  0.00  0.00    +0.079 C 
ATOM     12  C   UNL     1      30.727 -23.231 -16.182  0.00  0.00    +0.134 C 
ENDROOT
BRANCH   4  13
ATOM     13  N   UNL     1      36.613 -24.431 -13.726  0.00  0.00    -0.310 N 
ATOM     14  N   UNL     1      39.393 -24.707 -13.339  0.00  0.00    +0.386 N 
ATOM     15  C   UNL     1      37.436 -25.043 -14.780  0.00  0.00    +0.068 C 
ATOM     16  C   UNL     1      37.309 -23.517 -12.813  0.00  0.00    +0.068 C 
ATOM     17  C   UNL     1      38.671 -25.701 -14.184  0.00  0.00    -0.060 C 
ATOM     18  C   UNL     1      38.549 -24.181 -12.229  0.00  0.00    -0.060 C 
ATOM     19  H   UNL     1      39.683 -23.926 -13.927  0.00  0.00    -0.084 HD
ATOM     20  H   UNL     1      40.195 -25.179 -12.922  0.00  0.00    -0.084 HD
ENDBRANCH   4  13
BRANCH   3  22
ATOM     21  F   UNL     1      36.501 -20.967 -20.697  0.00  0.00    -0.204 F 
ATOM     22  C   UNL     1      33.957 -22.447 -17.802  0.00  0.00    +0.056 C 
ATOM     23  C   UNL     1      33.447 -22.035 -19.033  0.00  0.00    +0.017 C 
ATOM     24  C   UNL     1      35.325 -22.358 -17.548  0.00  0.00    +0.017 C 
ATOM     25  C   UNL     1      34.306 -21.535 -20.012  0.00  0.00    +0.031 C 
ATOM     26  C   UNL     1      36.185 -21.858 -18.527  0.00  0.00    +0.031 C 
ATOM     27  C   UNL     1      35.676 -21.446 -19.759  0.00  0.00    +0.140 C 
ENDBRANCH   3  22
BRANCH  12  30
ATOM     28  O   UNL     1      28.937 -21.891 -16.898  0.00  0.00    -0.240 OA
ATOM     29  O   UNL     1      28.616 -24.144 -16.653  0.00  0.00    -0.240 OA
ATOM     30  C   UNL     1      29.289 -23.074 -16.620  0.00  0.00    +0.392 C 
ENDBRANCH  12  30
TORSDOF 3
ENDMDL
MODEL 2
REMARK VINA RESULT:     -10.7      3.582      6.972
REMARK  Name = 25273230
REMARK  3 active torsions:
REMARK  status: ('A' for Active; 'I' for Inactive)
REMARK    1  A    between atoms: N_3  and  C_22
REMARK    2  A    between atoms: C_4  and  N_13
REMARK    3  A    between atoms: C_12  and  C_30
REMARK                            x       y       z     vdW  Elec       q    Type
REMARK                         _______ _______ _______ _____ _____    ______ ____
ROOT
ATOM      1  F   UNL     1      37.573 -21.325 -18.017  0.00  0.00    -0.203 F 
ATOM      2  O   UNL     1      38.018 -23.761 -13.647  0.00  0.00    -0.286 OA
ATOM      3  N   UNL     1      34.035 -24.020 -14.600  0.00  0.00    -0.264 N 
ATOM      4  C   UNL     1      35.374 -22.083 -17.548  0.00  0.00    +0.077 C 
ATOM      5  C   UNL     1      34.488 -22.757 -16.702  0.00  0.00    +0.032 C 
ATOM      6  C   UNL     1      34.924 -23.322 -15.489  0.00  0.00    +0.060 C 
ATOM      7  C   UNL     1      36.718 -21.970 -17.209  0.00  0.00    +0.153 C 
ATOM      8  C   UNL     1      36.298 -23.220 -15.182  0.00  0.00    +0.055 C 
ATOM      9  C   UNL     1      37.185 -22.542 -16.030  0.00  0.00    +0.035 C 
ATOM     10  C   UNL     1      36.837 -23.857 -13.956  0.00  0.00    +0.204 C 
ATOM     11  C   UNL     1      34.598 -24.648 -13.491  0.00  0.00    +0.079 C 
ATOM     12  C   UNL     1      35.883 -24.622 -13.124  0.00  0.00    +0.134 C 
ENDROOT
BRANCH   4  13
ATOM     13  N   UNL     1      34.902 -21.522 -18.740  0.00  0.00    -0.310 N 
ATOM     14  N   UNL     1      34.006 -20.559 -21.236  0.00  0.00    +0.386 N 
ATOM     15  C   UNL     1      35.862 -21.357 -19.843  0.00  0.00    +0.068 C 
ATOM     16  C   UNL     1      33.501 -21.717 -19.129  0.00  0.00    +0.068 C 
ATOM     17  C   UNL     1      35.402 -20.267 -20.798  0.00  0.00    -0.060 C 
ATOM     18  C   UNL     1      33.052 -20.627 -20.092  0.00  0.00    -0.060 C 
ATOM     19  H   UNL     1      33.995 -21.455 -21.722  0.00  0.00    -0.084 HD
ATOM     20  H   UNL     1      33.706 -19.798 -21.844  0.00  0.00    -0.084 HD
ENDBRANCH   4  13
BRANCH   3  22
ATOM     21  F   UNL     1      28.509 -24.216 -15.205  0.00  0.00    -0.204 F 
ATOM     22  C   UNL     1      32.611 -24.070 -14.757  0.00  0.00    +0.056 C 
ATOM     23  C   UNL     1      31.866 -25.009 -14.044  0.00  0.00    +0.017 C 
ATOM     24  C   UNL     1      31.972 -23.181 -15.620  0.00  0.00    +0.017 C 
ATOM     25  C   UNL     1      30.479 -25.058 -14.195  0.00  0.00    +0.031 C 
ATOM     26  C   UNL     1      30.586 -23.230 -15.771  0.00  0.00    +0.031 C 
ATOM     27  C   UNL     1      29.840 -24.169 -15.059  0.00  0.00    +0.140 C 
ENDBRANCH   3  22
BRANCH  12  30
ATOM     28  O   UNL     1      37.074 -26.335 -12.048  0.00  0.00    -0.240 OA
ATOM     29  O   UNL     1      35.817 -24.892 -10.793  0.00  0.00    -0.240 OA
ATOM     30  C   UNL     1      36.298 -25.353 -11.868  0.00  0.00    +0.392 C 
ENDBRANCH  12  30
TORSDOF 3
ENDMDL
MODEL 3
REMARK VINA RESULT:      -9.4     10.262     13.257
REMARK  Name = 25273230
REMARK  3 active torsions:
REMARK  status: ('A' for Active; 'I' for Inactive)
REMARK    1  A    between atoms: N_3  and  C_22
REMARK    2  A    between atoms: C_4  and  N_13
REMARK    3  A    between atoms: C_12  and  C_30
REMARK                            x       y       z     vdW  Elec       q    Type
REMARK                         _______ _______ _______ _____ _____    ______ ____
ROOT
ATOM      1  F   UNL     1      32.780 -16.377 -20.635  0.00  0.00    -0.203 F 
ATOM      2  O   UNL     1      31.473 -11.592 -19.849  0.00  0.00    -0.286 OA
ATOM      3  N   UNL     1      33.281 -11.602 -23.533  0.00  0.00    -0.264 N 
ATOM      4  C   UNL     1      33.489 -15.252 -22.600  0.00  0.00    +0.077 C 
ATOM      5  C   UNL     1      33.613 -14.065 -23.329  0.00  0.00    +0.032 C 
ATOM      6  C   UNL     1      33.166 -12.838 -22.806  0.00  0.00    +0.060 C 
ATOM      7  C   UNL     1      32.903 -15.242 -21.339  0.00  0.00    +0.153 C 
ATOM      8  C   UNL     1      32.548 -12.859 -21.537  0.00  0.00    +0.055 C 
ATOM      9  C   UNL     1      32.426 -14.049 -20.806  0.00  0.00    +0.035 C 
ATOM     10  C   UNL     1      31.989 -11.612 -20.960  0.00  0.00    +0.204 C 
ATOM     11  C   UNL     1      32.691 -10.470 -22.974  0.00  0.00    +0.079 C 
ATOM     12  C   UNL     1      32.074 -10.392 -21.792  0.00  0.00    +0.134 C 
ENDROOT
BRANCH   4  13
ATOM     13  N   UNL     1      33.957 -16.453 -23.146  0.00  0.00    -0.310 N 
ATOM     14  N   UNL     1      35.070 -18.776 -24.297  0.00  0.00    +0.386 N 
ATOM     15  C   UNL     1      34.288 -16.466 -24.580  0.00  0.00    +0.068 C 
ATOM     16  C   UNL     1      34.708 -17.388 -22.302  0.00  0.00    +0.068 C 
ATOM     17  C   UNL     1      34.219 -17.881 -25.134  0.00  0.00    -0.060 C 
ATOM     18  C   UNL     1      34.640 -18.799 -22.869  0.00  0.00    -0.060 C 
ATOM     19  H   UNL     1      36.034 -18.447 -24.342  0.00  0.00    -0.084 HD
ATOM     20  H   UNL     1      34.978 -19.723 -24.663  0.00  0.00    -0.084 HD
ENDBRANCH   4  13
BRANCH   3  22
ATOM     21  F   UNL     1      36.066 -11.029 -28.314  0.00  0.00    -0.204 F 
ATOM     22  C   UNL     1      34.000 -11.454 -24.765  0.00  0.00    +0.056 C 
ATOM     23  C   UNL     1      33.703 -12.282 -25.847  0.00  0.00    +0.017 C 
ATOM     24  C   UNL     1      34.993 -10.482 -24.881  0.00  0.00    +0.017 C 
ATOM     25  C   UNL     1      34.401 -12.139 -27.047  0.00  0.00    +0.031 C 
ATOM     26  C   UNL     1      35.691 -10.339 -26.081  0.00  0.00    +0.031 C 
ATOM     27  C   UNL     1      35.395 -11.167 -27.163  0.00  0.00    +0.140 C 
ENDBRANCH   3  22
BRANCH  12  30
ATOM     28  O   UNL     1      31.117  -8.306 -22.282  0.00  0.00    -0.240 OA
ATOM     29  O   UNL     1      31.515  -8.865 -20.099  0.00  0.00    -0.240 OA
ATOM     30  C   UNL     1      31.515  -9.059 -21.348  0.00  0.00    +0.392 C 
ENDBRANCH  12  30
TORSDOF 3
ENDMDL
MODEL 4
REMARK VINA RESULT:      -9.4      2.979      5.099
REMARK  Name = 25273230
REMARK  3 active torsions:
REMARK  status: ('A' for Active; 'I' for Inactive)
REMARK    1  A    between atoms: N_3  and  C_22
REMARK    2  A    between atoms: C_4  and  N_13
REMARK    3  A    between atoms: C_12  and  C_30
REMARK                            x       y       z     vdW  Elec       q    Type
REMARK                         _______ _______ _______ _____ _____    ______ ____
ROOT
ATOM      1  F   UNL     1      38.709 -23.133 -15.739  0.00  0.00    -0.203 F 
ATOM      2  O   UNL     1      36.290 -21.198 -19.692  0.00  0.00    -0.286 OA
ATOM      3  N   UNL     1      33.328 -22.612 -17.230  0.00  0.00    -0.264 N 
ATOM      4  C   UNL     1      36.414 -23.464 -15.234  0.00  0.00    +0.077 C 
ATOM      5  C   UNL     1      35.070 -23.333 -15.599  0.00  0.00    +0.032 C 
ATOM      6  C   UNL     1      34.701 -22.759 -16.829  0.00  0.00    +0.060 C 
ATOM      7  C   UNL     1      37.419 -23.011 -16.083  0.00  0.00    +0.153 C 
ATOM      8  C   UNL     1      35.737 -22.281 -17.660  0.00  0.00    +0.055 C 
ATOM      9  C   UNL     1      37.084 -22.413 -17.294  0.00  0.00    +0.035 C 
ATOM     10  C   UNL     1      35.414 -21.598 -18.936  0.00  0.00    +0.204 C 
ATOM     11  C   UNL     1      33.074 -21.915 -18.409  0.00  0.00    +0.079 C 
ATOM     12  C   UNL     1      33.980 -21.414 -19.252  0.00  0.00    +0.134 C 
ENDROOT
BRANCH   4  13
ATOM     13  N   UNL     1      36.746 -24.053 -14.008  0.00  0.00    -0.310 N 
ATOM     14  N   UNL     1      37.219 -25.287 -11.516  0.00  0.00    +0.386 N 
ATOM     15  C   UNL     1      36.101 -23.518 -12.799  0.00  0.00    +0.068 C 
ATOM     16  C   UNL     1      37.125 -25.470 -13.964  0.00  0.00    +0.068 C 
ATOM     17  C   UNL     1      36.937 -23.823 -11.565  0.00  0.00    -0.060 C 
ATOM     18  C   UNL     1      37.953 -25.767 -12.722  0.00  0.00    -0.060 C 
ATOM     19  H   UNL     1      36.334 -25.789 -11.452  0.00  0.00    -0.084 HD
ATOM     20  H   UNL     1      37.810 -25.462 -10.704  0.00  0.00    -0.084 HD
ENDBRANCH   4  13
BRANCH   3  22
ATOM     21  F   UNL     1      29.010 -24.793 -14.484  0.00  0.00    -0.204 F 
ATOM     22  C   UNL     1      32.215 -23.174 -16.521  0.00  0.00    +0.056 C 
ATOM     23  C   UNL     1      30.915 -22.802 -16.860  0.00  0.00    +0.017 C 
ATOM     24  C   UNL     1      32.434 -24.094 -15.496  0.00  0.00    +0.017 C 
ATOM     25  C   UNL     1      29.831 -23.349 -16.172  0.00  0.00    +0.031 C 
ATOM     26  C   UNL     1      31.350 -24.640 -14.808  0.00  0.00    +0.031 C 
ATOM     27  C   UNL     1      30.049 -24.268 -15.145  0.00  0.00    +0.140 C 
ENDBRANCH   3  22
BRANCH  12  30
ATOM     28  O   UNL     1      32.298 -20.922 -20.814  0.00  0.00    -0.240 OA
ATOM     29  O   UNL     1      34.369 -19.984 -21.073  0.00  0.00    -0.240 OA
ATOM     30  C   UNL     1      33.503 -20.705 -20.499  0.00  0.00    +0.392 C 
ENDBRANCH  12  30
TORSDOF 3
ENDMDL
MODEL 5
REMARK VINA RESULT:      -9.4     10.812     13.691
REMARK  Name = 25273230
REMARK  3 active torsions:
REMARK  status: ('A' for Active; 'I' for Inactive)
REMARK    1  A    between atoms: N_3  and  C_22
REMARK    2  A    between atoms: C_4  and  N_13
REMARK    3  A    between atoms: C_12  and  C_30
REMARK                            x       y       z     vdW  Elec       q    Type
REMARK                         _______ _______ _______ _____ _____    ______ ____
ROOT
ATOM      1  F   UNL     1      32.554 -15.025 -19.851  0.00  0.00    -0.203 F 
ATOM      2  O   UNL     1      31.211 -10.195 -20.159  0.00  0.00    -0.286 OA
ATOM      3  N   UNL     1      33.162 -10.977 -23.684  0.00  0.00    -0.264 N 
ATOM      4  C   UNL     1      33.337 -14.341 -21.983  0.00  0.00    +0.077 C 
ATOM      5  C   UNL     1      33.489 -13.336 -22.944  0.00  0.00    +0.032 C 
ATOM      6  C   UNL     1      33.020 -12.029 -22.714  0.00  0.00    +0.060 C 
ATOM      7  C   UNL     1      32.702 -14.066 -20.776  0.00  0.00    +0.153 C 
ATOM      8  C   UNL     1      32.353 -11.784 -21.494  0.00  0.00    +0.055 C 
ATOM      9  C   UNL     1      32.203 -12.791 -20.530  0.00  0.00    +0.035 C 
ATOM     10  C   UNL     1      31.770 -10.448 -21.219  0.00  0.00    +0.204 C 
ATOM     11  C   UNL     1      32.550  -9.758 -23.403  0.00  0.00    +0.079 C 
ATOM     12  C   UNL     1      31.887  -9.434 -22.290  0.00  0.00    +0.134 C 
ENDROOT
BRANCH   4  13
ATOM     13  N   UNL     1      33.828 -15.626 -22.240  0.00  0.00    -0.310 N 
ATOM     14  N   UNL     1      34.992 -18.131 -22.812  0.00  0.00    +0.386 N 
ATOM     15  C   UNL     1      34.286 -15.919 -23.607  0.00  0.00    +0.068 C 
ATOM     16  C   UNL     1      34.482 -16.381 -21.165  0.00  0.00    +0.068 C 
ATOM     17  C   UNL     1      34.237 -17.414 -23.880  0.00  0.00    -0.060 C 
ATOM     18  C   UNL     1      34.436 -17.875 -21.452  0.00  0.00    -0.060 C 
ATOM     19  H   UNL     1      35.962 -17.820 -22.832  0.00  0.00    -0.084 HD
ATOM     20  H   UNL     1      34.914 -19.131 -22.995  0.00  0.00    -0.084 HD
ENDBRANCH   4  13
BRANCH   3  22
ATOM     21  F   UNL     1      36.140 -11.412 -28.362  0.00  0.00    -0.204 F 
ATOM     22  C   UNL     1      33.929 -11.090 -24.890  0.00  0.00    +0.056 C 
ATOM     23  C   UNL     1      35.027 -10.256 -25.096  0.00  0.00    +0.017 C 
ATOM     24  C   UNL     1      33.577 -12.033 -25.855  0.00  0.00    +0.017 C 
ATOM     25  C   UNL     1      35.775 -10.365 -26.269  0.00  0.00    +0.031 C 
ATOM     26  C   UNL     1      34.325 -12.141 -27.028  0.00  0.00    +0.031 C 
ATOM     27  C   UNL     1      35.423 -11.307 -27.236  0.00  0.00    +0.140 C 
ENDBRANCH   3  22
BRANCH  12  30
ATOM     28  O   UNL     1      30.536  -7.694 -23.102  0.00  0.00    -0.240 OA
ATOM     29  O   UNL     1      31.670  -7.400 -21.136  0.00  0.00    -0.240 OA
ATOM     30  C   UNL     1      31.308  -8.042 -22.163  0.00  0.00    +0.392 C 
ENDBRANCH  12  30
TORSDOF 3
ENDMDL
MODEL 6
REMARK VINA RESULT:      -8.6     10.853     14.113
REMARK  Name = 25273230
REMARK  3 active torsions:
REMARK  status: ('A' for Active; 'I' for Inactive)
REMARK    1  A    between atoms: N_3  and  C_22
REMARK    2  A    between atoms: C_4  and  N_13
REMARK    3  A    between atoms: C_12  and  C_30
REMARK                            x       y       z     vdW  Elec       q    Type
REMARK                         _______ _______ _______ _____ _____    ______ ____
ROOT
ATOM      1  F   UNL     1      31.117 -10.024 -19.384  0.00  0.00    -0.203 F 
ATOM      2  O   UNL     1      32.274 -14.905 -19.128  0.00  0.00    -0.286 OA
ATOM      3  N   UNL     1      33.080 -13.830 -23.006  0.00  0.00    -0.264 N 
ATOM      4  C   UNL     1      31.891 -10.552 -21.564  0.00  0.00    +0.077 C 
ATOM      5  C   UNL     1      32.384 -11.496 -22.471  0.00  0.00    +0.032 C 
ATOM      6  C   UNL     1      32.575 -12.839 -22.095  0.00  0.00    +0.060 C 
ATOM      7  C   UNL     1      31.590 -10.925 -20.258  0.00  0.00    +0.153 C 
ATOM      8  C   UNL     1      32.290 -13.185 -20.756  0.00  0.00    +0.055 C 
ATOM      9  C   UNL     1      31.794 -12.239 -19.848  0.00  0.00    +0.035 C 
ATOM     10  C   UNL     1      32.538 -14.566 -20.274  0.00  0.00    +0.204 C 
ATOM     11  C   UNL     1      33.349 -15.097 -22.492  0.00  0.00    +0.079 C 
ATOM     12  C   UNL     1      33.129 -15.516 -21.243  0.00  0.00    +0.134 C 
ENDROOT
BRANCH   4  13
ATOM     13  N   UNL     1      31.701  -9.228 -21.977  0.00  0.00    -0.310 N 
ATOM     14  N   UNL     1      31.516  -6.549 -22.839  0.00  0.00    +0.386 N 
ATOM     15  C   UNL     1      32.400  -8.174 -21.226  0.00  0.00    +0.068 C 
ATOM     16  C   UNL     1      31.428  -8.942 -23.389  0.00  0.00    +0.068 C 
ATOM     17  C   UNL     1      31.689  -6.839 -21.386  0.00  0.00    -0.060 C 
ATOM     18  C   UNL     1      30.725  -7.600 -23.540  0.00  0.00    -0.060 C 
ATOM     19  H   UNL     1      32.437  -6.490 -23.273  0.00  0.00    -0.084 HD
ATOM     20  H   UNL     1      31.006  -5.670 -22.922  0.00  0.00    -0.084 HD
ENDBRANCH   4  13
BRANCH   3  22
ATOM     21  F   UNL     1      33.847 -12.983 -28.449  0.00  0.00    -0.204 F 
ATOM     22  C   UNL     1      33.279 -13.611 -24.408  0.00  0.00    +0.056 C 
ATOM     23  C   UNL     1      33.015 -14.636 -25.316  0.00  0.00    +0.017 C 
ATOM     24  C   UNL     1      33.733 -12.374 -24.864  0.00  0.00    +0.017 C 
ATOM     25  C   UNL     1      33.207 -14.424 -26.682  0.00  0.00    +0.031 C 
ATOM     26  C   UNL     1      33.925 -12.163 -26.230  0.00  0.00    +0.031 C 
ATOM     27  C   UNL     1      33.662 -13.187 -27.139  0.00  0.00    +0.140 C 
ENDBRANCH   3  22
BRANCH  12  30
ATOM     28  O   UNL     1      34.698 -17.174 -20.698  0.00  0.00    -0.240 OA
ATOM     29  O   UNL     1      32.482 -17.731 -20.809  0.00  0.00    -0.240 OA
ATOM     30  C   UNL     1      33.469 -16.944 -20.881  0.00  0.00    +0.392 C 
ENDBRANCH  12  30
TORSDOF 3
ENDMDL
MODEL 7
REMARK VINA RESULT:      -8.2     11.728     14.916
REMARK  Name = 25273230
REMARK  3 active torsions:
REMARK  status: ('A' for Active; 'I' for Inactive)
REMARK    1  A    between atoms: N_3  and  C_22
REMARK    2  A    between atoms: C_4  and  N_13
REMARK    3  A    between atoms: C_12  and  C_30
REMARK                            x       y       z     vdW  Elec       q    Type
REMARK                         _______ _______ _______ _____ _____    ______ ____
ROOT
ATOM      1  F   UNL     1      30.633  -9.953 -19.643  0.00  0.00    -0.203 F 
ATOM      2  O   UNL     1      32.020 -14.734 -20.309  0.00  0.00    -0.286 OA
ATOM      3  N   UNL     1      33.663 -12.706 -23.476  0.00  0.00    -0.264 N 
ATOM      4  C   UNL     1      31.944  -9.907 -21.620  0.00  0.00    +0.077 C 
ATOM      5  C   UNL     1      32.704 -10.588 -22.577  0.00  0.00    +0.032 C 
ATOM      6  C   UNL     1      32.887 -11.981 -22.506  0.00  0.00    +0.060 C 
ATOM      7  C   UNL     1      31.362 -10.600 -20.564  0.00  0.00    +0.153 C 
ATOM      8  C   UNL     1      32.312 -12.657 -21.408  0.00  0.00    +0.055 C 
ATOM      9  C   UNL     1      31.549 -11.974 -20.451  0.00  0.00    +0.035 C 
ATOM     10  C   UNL     1      32.529 -14.114 -21.234  0.00  0.00    +0.204 C 
ATOM     11  C   UNL     1      33.885 -14.061 -23.237  0.00  0.00    +0.079 C 
ATOM     12  C   UNL     1      33.398 -14.785 -22.225  0.00  0.00    +0.134 C 
ENDROOT
BRANCH   4  13
ATOM     13  N   UNL     1      31.770  -8.522 -21.730  0.00  0.00    -0.310 N 
ATOM     14  N   UNL     1      31.616  -5.718 -21.997  0.00  0.00    +0.386 N 
ATOM     15  C   UNL     1      32.570  -7.663 -20.843  0.00  0.00    +0.068 C 
ATOM     16  C   UNL     1      31.390  -7.940 -23.022  0.00  0.00    +0.068 C 
ATOM     17  C   UNL     1      31.899  -6.311 -20.658  0.00  0.00    -0.060 C 
ATOM     18  C   UNL     1      30.728  -6.583 -22.827  0.00  0.00    -0.060 C 
ATOM     19  H   UNL     1      32.499  -5.588 -22.491  0.00  0.00    -0.084 HD
ATOM     20  H   UNL     1      31.134  -4.832 -21.849  0.00  0.00    -0.084 HD
ENDBRANCH   4  13
BRANCH   3  22
ATOM     21  F   UNL     1      35.669 -10.498 -28.170  0.00  0.00    -0.204 F 
ATOM     22  C   UNL     1      34.179 -12.138 -24.686  0.00  0.00    +0.056 C 
ATOM     23  C   UNL     1      34.949 -10.976 -24.635  0.00  0.00    +0.017 C 
ATOM     24  C   UNL     1      33.913 -12.746 -25.912  0.00  0.00    +0.017 C 
ATOM     25  C   UNL     1      35.453 -10.421 -25.812  0.00  0.00    +0.031 C 
ATOM     26  C   UNL     1      34.417 -12.191 -27.089  0.00  0.00    +0.031 C 
ATOM     27  C   UNL     1      35.187 -11.029 -27.040  0.00  0.00    +0.140 C 
ENDBRANCH   3  22
BRANCH  12  30
ATOM     28  O   UNL     1      33.485 -16.811 -21.043  0.00  0.00    -0.240 OA
ATOM     29  O   UNL     1      34.230 -16.749 -23.206  0.00  0.00    -0.240 OA
ATOM     30  C   UNL     1      33.737 -16.257 -22.152  0.00  0.00    +0.392 C 
ENDBRANCH  12  30
TORSDOF 3
ENDMDL
MODEL 8
REMARK VINA RESULT:      -8.1      2.248      5.791
REMARK  Name = 25273230
REMARK  3 active torsions:
REMARK  status: ('A' for Active; 'I' for Inactive)
REMARK    1  A    between atoms: N_3  and  C_22
REMARK    2  A    between atoms: C_4  and  N_13
REMARK    3  A    between atoms: C_12  and  C_30
REMARK                            x       y       z     vdW  Elec       q    Type
REMARK                         _______ _______ _______ _____ _____    ______ ____
ROOT
ATOM      1  F   UNL     1      32.453 -21.045 -19.975  0.00  0.00    -0.203 F 
ATOM      2  O   UNL     1      30.048 -23.501 -16.313  0.00  0.00    -0.286 OA
ATOM      3  N   UNL     1      34.033 -23.920 -15.427  0.00  0.00    -0.264 N 
ATOM      4  C   UNL     1      34.192 -21.843 -18.573  0.00  0.00    +0.077 C 
ATOM      5  C   UNL     1      34.592 -22.556 -17.438  0.00  0.00    +0.032 C 
ATOM      6  C   UNL     1      33.651 -23.181 -16.600  0.00  0.00    +0.060 C 
ATOM      7  C   UNL     1      32.843 -21.727 -18.889  0.00  0.00    +0.153 C 
ATOM      8  C   UNL     1      32.286 -23.024 -16.925  0.00  0.00    +0.055 C 
ATOM      9  C   UNL     1      31.886 -22.311 -18.064  0.00  0.00    +0.035 C 
ATOM     10  C   UNL     1      31.239 -23.595 -16.043  0.00  0.00    +0.204 C 
ATOM     11  C   UNL     1      33.013 -24.389 -14.602  0.00  0.00    +0.079 C 
ATOM     12  C   UNL     1      31.699 -24.279 -14.814  0.00  0.00    +0.134 C 
ENDROOT
BRANCH   4  13
ATOM     13  N   UNL     1      35.157 -21.246 -19.392  0.00  0.00    -0.310 N 
ATOM     14  N   UNL     1      37.075 -19.872 -20.938  0.00  0.00    +0.386 N 
ATOM     15  C   UNL     1      34.748 -20.077 -20.186  0.00  0.00    +0.068 C 
ATOM     16  C   UNL     1      36.571 -21.299 -19.003  0.00  0.00    +0.068 C 
ATOM     17  C   UNL     1      35.655 -19.904 -21.394  0.00  0.00    -0.060 C 
ATOM     18  C   UNL     1      37.471 -21.116 -20.217  0.00  0.00    -0.060 C 
ATOM     19  H   UNL     1      37.200 -19.078 -20.311  0.00  0.00    -0.084 HD
ATOM     20  H   UNL     1      37.665 -19.793 -21.766  0.00  0.00    -0.084 HD
ENDBRANCH   4  13
BRANCH   3  22
ATOM     21  F   UNL     1      39.284 -25.167 -14.083  0.00  0.00    -0.204 F 
ATOM     22  C   UNL     1      35.386 -24.242 -15.082  0.00  0.00    +0.056 C 
ATOM     23  C   UNL     1      36.221 -23.260 -14.550  0.00  0.00    +0.017 C 
ATOM     24  C   UNL     1      35.867 -25.537 -15.274  0.00  0.00    +0.017 C 
ATOM     25  C   UNL     1      37.539 -23.572 -14.213  0.00  0.00    +0.031 C 
ATOM     26  C   UNL     1      37.184 -25.849 -14.937  0.00  0.00    +0.031 C 
ATOM     27  C   UNL     1      38.020 -24.867 -14.407  0.00  0.00    +0.140 C 
ENDBRANCH   3  22
BRANCH  12  30
ATOM     28  O   UNL     1      30.080 -25.870 -14.218  0.00  0.00    -0.240 OA
ATOM     29  O   UNL     1      30.727 -24.307 -12.677  0.00  0.00    -0.240 OA
ATOM     30  C   UNL     1      30.744 -24.876 -13.806  0.00  0.00    +0.392 C 
ENDBRANCH  12  30
TORSDOF 3
ENDMDL
MODEL 9
REMARK VINA RESULT:      -8.0      8.568     11.934
REMARK  Name = 25273230
REMARK  3 active torsions:
REMARK  status: ('A' for Active; 'I' for Inactive)
REMARK    1  A    between atoms: N_3  and  C_22
REMARK    2  A    between atoms: C_4  and  N_13
REMARK    3  A    between atoms: C_12  and  C_30
REMARK                            x       y       z     vdW  Elec       q    Type
REMARK                         _______ _______ _______ _____ _____    ______ ____
ROOT
ATOM      1  F   UNL     1      34.986 -19.406 -24.553  0.00  0.00    -0.203 F 
ATOM      2  O   UNL     1      33.959 -15.389 -27.387  0.00  0.00    -0.286 OA
ATOM      3  N   UNL     1      33.222 -14.180 -23.535  0.00  0.00    -0.264 N 
ATOM      4  C   UNL     1      34.347 -17.740 -22.989  0.00  0.00    +0.077 C 
ATOM      5  C   UNL     1      33.910 -16.437 -22.728  0.00  0.00    +0.032 C 
ATOM      6  C   UNL     1      33.671 -15.526 -23.773  0.00  0.00    +0.060 C 
ATOM      7  C   UNL     1      34.567 -18.158 -24.297  0.00  0.00    +0.153 C 
ATOM      8  C   UNL     1      33.931 -15.964 -25.090  0.00  0.00    +0.055 C 
ATOM      9  C   UNL     1      34.366 -17.271 -25.350  0.00  0.00    +0.035 C 
ATOM     10  C   UNL     1      33.770 -15.031 -26.231  0.00  0.00    +0.204 C 
ATOM     11  C   UNL     1      33.140 -13.326 -24.633  0.00  0.00    +0.079 C 
ATOM     12  C   UNL     1      33.377 -13.641 -25.909  0.00  0.00    +0.134 C 
ENDROOT
BRANCH   4  13
ATOM     13  N   UNL     1      34.562 -18.624 -21.925  0.00  0.00    -0.310 N 
ATOM     14  N   UNL     1      35.028 -20.247 -19.665  0.00  0.00    +0.386 N 
ATOM     15  C   UNL     1      35.876 -18.591 -21.266  0.00  0.00    +0.068 C 
ATOM     16  C   UNL     1      33.430 -19.039 -21.088  0.00  0.00    +0.068 C 
ATOM     17  C   UNL     1      36.164 -19.914 -20.573  0.00  0.00    -0.060 C 
ATOM     18  C   UNL     1      33.731 -20.359 -20.392  0.00  0.00    -0.060 C 
ATOM     19  H   UNL     1      34.945 -19.513 -18.962  0.00  0.00    -0.084 HD
ATOM     20  H   UNL     1      35.225 -21.153 -19.241  0.00  0.00    -0.084 HD
ENDBRANCH   4  13
BRANCH   3  22
ATOM     21  F   UNL     1      31.628 -12.240 -18.572  0.00  0.00    -0.204 F 
ATOM     22  C   UNL     1      32.812 -13.681 -22.256  0.00  0.00    +0.056 C 
ATOM     23  C   UNL     1      32.124 -12.471 -22.169  0.00  0.00    +0.017 C 
ATOM     24  C   UNL     1      33.100 -14.404 -21.099  0.00  0.00    +0.017 C 
ATOM     25  C   UNL     1      31.723 -11.984 -20.925  0.00  0.00    +0.031 C 
ATOM     26  C   UNL     1      32.700 -13.917 -19.854  0.00  0.00    +0.031 C 
ATOM     27  C   UNL     1      32.012 -12.707 -19.767  0.00  0.00    +0.140 C 
ENDBRANCH   3  22
BRANCH  12  30
ATOM     28  O   UNL     1      34.080 -11.654 -26.944  0.00  0.00    -0.240 OA
ATOM     29  O   UNL     1      32.225 -12.731 -27.741  0.00  0.00    -0.240 OA
ATOM     30  C   UNL     1      33.212 -12.573 -26.967  0.00  0.00    +0.392 C 
ENDBRANCH  12  30
TORSDOF 3
ENDMDL
