MODEL 1
REMARK VINA RESULT:      -6.8      0.000      0.000
REMARK  Name = 104406
REMARK  3 active torsions:
REMARK  status: ('A' for Active; 'I' for Inactive)
REMARK    1  A    between atoms: C_8  and  C_10
REMARK    2  A    between atoms: C_10  and  O_11
REMARK    3  A    between atoms: O_11  and  C_12
REMARK                            x       y       z     vdW  Elec       q    Type
REMARK                         _______ _______ _______ _____ _____    ______ ____
ROOT
ATOM      1  O   UNL     1      34.981 -16.878 -20.450  0.00  0.00    -0.263 OA
ATOM      2  N   UNL     1      35.225 -17.352 -22.739  0.00  0.00    -0.271 N 
ATOM      3  C   UNL     1      34.257 -16.836 -25.410  0.00  0.00    +0.004 C 
ATOM      4  C   UNL     1      33.995 -15.860 -24.264  0.00  0.00    +0.022 C 
ATOM      5  C   UNL     1      34.425 -18.262 -24.885  0.00  0.00    +0.022 C 
ATOM      6  C   UNL     1      35.073 -15.969 -23.189  0.00  0.00    +0.094 C 
ATOM      7  C   UNL     1      35.495 -18.331 -23.798  0.00  0.00    +0.094 C 
ATOM      8  C   UNL     1      35.158 -17.647 -21.385  0.00  0.00    +0.325 C 
ENDROOT
BRANCH   8  10
ATOM      9  O   UNL     1      36.290 -19.461 -20.395  0.00  0.00    -0.240 OA
ATOM     10  C   UNL     1      35.321 -19.072 -21.018  0.00  0.00    +0.396 C 
BRANCH  10  11
ATOM     11  O   UNL     1      34.257 -19.750 -21.484  0.00  0.00    -0.442 OA
BRANCH  11  12
ATOM     12  C   UNL     1      33.155 -19.853 -20.578  0.00  0.00    +0.209 C 
ATOM     13  C   UNL     1      33.316 -21.106 -19.744  0.00  0.00    +0.051 C 
ENDBRANCH  11  12
ENDBRANCH  10  11
ENDBRANCH   8  10
TORSDOF 3
ENDMDL
MODEL 2
REMARK VINA RESULT:      -6.7      3.236      4.697
REMARK  Name = 104406
REMARK  3 active torsions:
REMARK  status: ('A' for Active; 'I' for Inactive)
REMARK    1  A    between atoms: C_8  and  C_10
REMARK    2  A    between atoms: C_10  and  O_11
REMARK    3  A    between atoms: O_11  and  C_12
REMARK                            x       y       z     vdW  Elec       q    Type
REMARK                         _______ _______ _______ _____ _____    ______ ____
ROOT
ATOM      1  O   UNL     1      33.010 -14.936 -25.616  0.00  0.00    -0.263 OA
ATOM      2  N   UNL     1      34.439 -16.205 -24.249  0.00  0.00    -0.271 N 
ATOM      3  C   UNL     1      35.181 -18.850 -23.358  0.00  0.00    +0.004 C 
ATOM      4  C   UNL     1      34.424 -18.632 -24.668  0.00  0.00    +0.022 C 
ATOM      5  C   UNL     1      34.885 -17.729 -22.364  0.00  0.00    +0.022 C 
ATOM      6  C   UNL     1      34.702 -17.246 -25.242  0.00  0.00    +0.094 C 
ATOM      7  C   UNL     1      35.154 -16.356 -22.977  0.00  0.00    +0.094 C 
ATOM      8  C   UNL     1      33.601 -15.147 -24.565  0.00  0.00    +0.325 C 
ENDROOT
BRANCH   8  10
ATOM      9  O   UNL     1      34.057 -13.126 -23.442  0.00  0.00    -0.240 OA
ATOM     10  C   UNL     1      33.388 -14.140 -23.501  0.00  0.00    +0.396 C 
BRANCH  10  11
ATOM     11  O   UNL     1      32.388 -14.569 -22.710  0.00  0.00    -0.442 OA
BRANCH  11  12
ATOM     12  C   UNL     1      32.344 -13.979 -21.408  0.00  0.00    +0.209 C 
ATOM     13  C   UNL     1      32.914 -14.957 -20.403  0.00  0.00    +0.051 C 
ENDBRANCH  11  12
ENDBRANCH  10  11
ENDBRANCH   8  10
TORSDOF 3
ENDMDL
MODEL 3
REMARK VINA RESULT:      -6.6      3.207      5.618
REMARK  Name = 104406
REMARK  3 active torsions:
REMARK  status: ('A' for Active; 'I' for Inactive)
REMARK    1  A    between atoms: C_8  and  C_10
REMARK    2  A    between atoms: C_10  and  O_11
REMARK    3  A    between atoms: O_11  and  C_12
REMARK                            x       y       z     vdW  Elec       q    Type
REMARK                         _______ _______ _______ _____ _____    ______ ____
ROOT
ATOM      1  O   UNL     1      32.996 -14.954 -25.552  0.00  0.00    -0.263 OA
ATOM      2  N   UNL     1      34.378 -16.268 -24.179  0.00  0.00    -0.271 N 
ATOM      3  C   UNL     1      35.135 -18.942 -23.395  0.00  0.00    +0.004 C 
ATOM      4  C   UNL     1      34.446 -18.666 -24.731  0.00  0.00    +0.022 C 
ATOM      5  C   UNL     1      34.758 -17.885 -22.358  0.00  0.00    +0.022 C 
ATOM      6  C   UNL     1      34.721 -17.245 -25.212  0.00  0.00    +0.094 C 
ATOM      7  C   UNL     1      35.027 -16.475 -22.879  0.00  0.00    +0.094 C 
ATOM      8  C   UNL     1      33.533 -15.211 -24.483  0.00  0.00    +0.325 C 
ENDROOT
BRANCH   8  10
ATOM      9  O   UNL     1      32.369 -14.502 -22.560  0.00  0.00    -0.240 OA
ATOM     10  C   UNL     1      33.238 -14.270 -23.379  0.00  0.00    +0.396 C 
BRANCH  10  11
ATOM     11  O   UNL     1      34.073 -13.221 -23.486  0.00  0.00    -0.442 OA
BRANCH  11  12
ATOM     12  C   UNL     1      33.448 -11.975 -23.807  0.00  0.00    +0.209 C 
ATOM     13  C   UNL     1      34.123 -11.382 -25.025  0.00  0.00    +0.051 C 
ENDBRANCH  11  12
ENDBRANCH  10  11
ENDBRANCH   8  10
TORSDOF 3
ENDMDL
MODEL 4
REMARK VINA RESULT:      -6.6      1.222      1.650
REMARK  Name = 104406
REMARK  3 active torsions:
REMARK  status: ('A' for Active; 'I' for Inactive)
REMARK    1  A    between atoms: C_8  and  C_10
REMARK    2  A    between atoms: C_10  and  O_11
REMARK    3  A    between atoms: O_11  and  C_12
REMARK                            x       y       z     vdW  Elec       q    Type
REMARK                         _______ _______ _______ _____ _____    ______ ____
ROOT
ATOM      1  O   UNL     1      35.030 -17.058 -20.458  0.00  0.00    -0.263 OA
ATOM      2  N   UNL     1      35.209 -17.772 -22.690  0.00  0.00    -0.271 N 
ATOM      3  C   UNL     1      34.421 -17.301 -25.428  0.00  0.00    +0.004 C 
ATOM      4  C   UNL     1      34.353 -16.194 -24.377  0.00  0.00    +0.022 C 
ATOM      5  C   UNL     1      34.273 -18.678 -24.782  0.00  0.00    +0.022 C 
ATOM      6  C   UNL     1      35.363 -16.433 -23.258  0.00  0.00    +0.094 C 
ATOM      7  C   UNL     1      35.283 -18.875 -23.654  0.00  0.00    +0.094 C 
ATOM      8  C   UNL     1      35.056 -17.926 -21.320  0.00  0.00    +0.325 C 
ENDROOT
BRANCH   8  10
ATOM      9  O   UNL     1      33.848 -19.910 -20.923  0.00  0.00    -0.240 OA
ATOM     10  C   UNL     1      34.905 -19.315 -20.831  0.00  0.00    +0.396 C 
BRANCH  10  11
ATOM     11  O   UNL     1      36.086 -19.713 -20.324  0.00  0.00    -0.442 OA
BRANCH  11  12
ATOM     12  C   UNL     1      36.232 -21.126 -20.155  0.00  0.00    +0.209 C 
ATOM     13  C   UNL     1      36.452 -21.428 -18.689  0.00  0.00    +0.051 C 
ENDBRANCH  11  12
ENDBRANCH  10  11
ENDBRANCH   8  10
TORSDOF 3
ENDMDL
MODEL 5
REMARK VINA RESULT:      -6.5      2.447      3.386
REMARK  Name = 104406
REMARK  3 active torsions:
REMARK  status: ('A' for Active; 'I' for Inactive)
REMARK    1  A    between atoms: C_8  and  C_10
REMARK    2  A    between atoms: C_10  and  O_11
REMARK    3  A    between atoms: O_11  and  C_12
REMARK                            x       y       z     vdW  Elec       q    Type
REMARK                         _______ _______ _______ _____ _____    ______ ____
ROOT
ATOM      1  O   UNL     1      35.546 -16.261 -23.465  0.00  0.00    -0.263 OA
ATOM      2  N   UNL     1      33.612 -15.353 -22.485  0.00  0.00    -0.271 N 
ATOM      3  C   UNL     1      32.140 -12.947 -21.868  0.00  0.00    +0.004 C 
ATOM      4  C   UNL     1      33.195 -12.976 -22.974  0.00  0.00    +0.022 C 
ATOM      5  C   UNL     1      32.445 -13.991 -20.795  0.00  0.00    +0.022 C 
ATOM      6  C   UNL     1      33.355 -14.381 -23.547  0.00  0.00    +0.094 C 
ATOM      7  C   UNL     1      32.620 -15.380 -21.404  0.00  0.00    +0.094 C 
ATOM      8  C   UNL     1      34.708 -16.199 -22.575  0.00  0.00    +0.325 C 
ENDROOT
BRANCH   8  10
ATOM      9  O   UNL     1      35.311 -16.785 -20.374  0.00  0.00    -0.240 OA
ATOM     10  C   UNL     1      34.894 -17.150 -21.456  0.00  0.00    +0.396 C 
BRANCH  10  11
ATOM     11  O   UNL     1      34.527 -18.374 -21.879  0.00  0.00    -0.442 OA
BRANCH  11  12
ATOM     12  C   UNL     1      34.520 -19.390 -20.873  0.00  0.00    +0.209 C 
ATOM     13  C   UNL     1      33.107 -19.905 -20.701  0.00  0.00    +0.051 C 
ENDBRANCH  11  12
ENDBRANCH  10  11
ENDBRANCH   8  10
TORSDOF 3
ENDMDL
MODEL 6
REMARK VINA RESULT:      -6.4      9.961     11.470
REMARK  Name = 104406
REMARK  3 active torsions:
REMARK  status: ('A' for Active; 'I' for Inactive)
REMARK    1  A    between atoms: C_8  and  C_10
REMARK    2  A    between atoms: C_10  and  O_11
REMARK    3  A    between atoms: O_11  and  C_12
REMARK                            x       y       z     vdW  Elec       q    Type
REMARK                         _______ _______ _______ _____ _____    ______ ____
ROOT
ATOM      1  O   UNL     1      36.194 -25.577 -11.302  0.00  0.00    -0.263 OA
ATOM      2  N   UNL     1      35.929 -24.082 -13.096  0.00  0.00    -0.271 N 
ATOM      3  C   UNL     1      34.464 -23.467 -15.508  0.00  0.00    +0.004 C 
ATOM      4  C   UNL     1      33.886 -24.391 -14.436  0.00  0.00    +0.022 C 
ATOM      5  C   UNL     1      35.992 -23.499 -15.490  0.00  0.00    +0.022 C 
ATOM      6  C   UNL     1      34.467 -24.074 -13.061  0.00  0.00    +0.094 C 
ATOM      7  C   UNL     1      36.539 -23.198 -14.096  0.00  0.00    +0.094 C 
ATOM      8  C   UNL     1      36.635 -24.855 -12.186  0.00  0.00    +0.325 C 
ENDROOT
BRANCH   8  10
ATOM      9  O   UNL     1      38.747 -23.853 -11.885  0.00  0.00    -0.240 OA
ATOM     10  C   UNL     1      38.111 -24.806 -12.293  0.00  0.00    +0.396 C 
BRANCH  10  11
ATOM     11  O   UNL     1      38.528 -25.942 -12.881  0.00  0.00    -0.442 OA
BRANCH  11  12
ATOM     12  C   UNL     1      38.897 -25.817 -14.257  0.00  0.00    +0.209 C 
ATOM     13  C   UNL     1      40.407 -25.779 -14.362  0.00  0.00    +0.051 C 
ENDBRANCH  11  12
ENDBRANCH  10  11
ENDBRANCH   8  10
TORSDOF 3
ENDMDL
MODEL 7
REMARK VINA RESULT:      -6.3      9.895     11.112
REMARK  Name = 104406
REMARK  3 active torsions:
REMARK  status: ('A' for Active; 'I' for Inactive)
REMARK    1  A    between atoms: C_8  and  C_10
REMARK    2  A    between atoms: C_10  and  O_11
REMARK    3  A    between atoms: O_11  and  C_12
REMARK                            x       y       z     vdW  Elec       q    Type
REMARK                         _______ _______ _______ _____ _____    ______ ____
ROOT
ATOM      1  O   UNL     1      27.605 -24.372 -17.424  0.00  0.00    -0.263 OA
ATOM      2  N   UNL     1      29.283 -23.673 -15.933  0.00  0.00    -0.271 N 
ATOM      3  C   UNL     1      31.126 -24.465 -13.856  0.00  0.00    +0.004 C 
ATOM      4  C   UNL     1      30.542 -25.482 -14.836  0.00  0.00    +0.022 C 
ATOM      5  C   UNL     1      30.179 -23.280 -13.672  0.00  0.00    +0.022 C 
ATOM      6  C   UNL     1      30.161 -24.821 -16.157  0.00  0.00    +0.094 C 
ATOM      7  C   UNL     1      29.802 -22.655 -15.013  0.00  0.00    +0.094 C 
ATOM      8  C   UNL     1      28.077 -23.586 -16.613  0.00  0.00    +0.325 C 
ENDROOT
BRANCH   8  10
ATOM      9  O   UNL     1      26.674 -22.258 -15.263  0.00  0.00    -0.240 OA
ATOM     10  C   UNL     1      27.250 -22.392 -16.326  0.00  0.00    +0.396 C 
BRANCH  10  11
ATOM     11  O   UNL     1      27.290 -21.584 -17.401  0.00  0.00    -0.442 OA
BRANCH  11  12
ATOM     12  C   UNL     1      26.035 -21.015 -17.783  0.00  0.00    +0.209 C 
ATOM     13  C   UNL     1      25.707 -21.444 -19.197  0.00  0.00    +0.051 C 
ENDBRANCH  11  12
ENDBRANCH  10  11
ENDBRANCH   8  10
TORSDOF 3
ENDMDL
MODEL 8
REMARK VINA RESULT:      -6.2      2.390      4.701
REMARK  Name = 104406
REMARK  3 active torsions:
REMARK  status: ('A' for Active; 'I' for Inactive)
REMARK    1  A    between atoms: C_8  and  C_10
REMARK    2  A    between atoms: C_10  and  O_11
REMARK    3  A    between atoms: O_11  and  C_12
REMARK                            x       y       z     vdW  Elec       q    Type
REMARK                         _______ _______ _______ _____ _____    ______ ____
ROOT
ATOM      1  O   UNL     1      32.557 -16.710 -20.894  0.00  0.00    -0.263 OA
ATOM      2  N   UNL     1      34.348 -18.185 -21.271  0.00  0.00    -0.271 N 
ATOM      3  C   UNL     1      35.607 -20.672 -20.514  0.00  0.00    +0.004 C 
ATOM      4  C   UNL     1      34.131 -20.402 -20.223  0.00  0.00    +0.022 C 
ATOM      5  C   UNL     1      36.397 -19.365 -20.577  0.00  0.00    +0.022 C 
ATOM      6  C   UNL     1      33.544 -19.405 -21.217  0.00  0.00    +0.094 C 
ATOM      7  C   UNL     1      35.772 -18.383 -21.565  0.00  0.00    +0.094 C 
ATOM      8  C   UNL     1      33.740 -16.950 -21.098  0.00  0.00    +0.325 C 
ENDROOT
BRANCH   8  10
ATOM      9  O   UNL     1      35.057 -15.236 -20.160  0.00  0.00    -0.240 OA
ATOM     10  C   UNL     1      34.628 -15.768 -21.166  0.00  0.00    +0.396 C 
BRANCH  10  11
ATOM     11  O   UNL     1      34.826 -15.464 -22.461  0.00  0.00    -0.442 OA
BRANCH  11  12
ATOM     12  C   UNL     1      34.226 -14.242 -22.900  0.00  0.00    +0.209 C 
ATOM     13  C   UNL     1      33.337 -14.528 -24.091  0.00  0.00    +0.051 C 
ENDBRANCH  11  12
ENDBRANCH  10  11
ENDBRANCH   8  10
TORSDOF 3
ENDMDL
MODEL 9
REMARK VINA RESULT:      -6.2      1.900      4.621
REMARK  Name = 104406
REMARK  3 active torsions:
REMARK  status: ('A' for Active; 'I' for Inactive)
REMARK    1  A    between atoms: C_8  and  C_10
REMARK    2  A    between atoms: C_10  and  O_11
REMARK    3  A    between atoms: O_11  and  C_12
REMARK                            x       y       z     vdW  Elec       q    Type
REMARK                         _______ _______ _______ _____ _____    ______ ____
ROOT
ATOM      1  O   UNL     1      37.154 -18.576 -22.498  0.00  0.00    -0.263 OA
ATOM      2  N   UNL     1      35.226 -19.005 -21.224  0.00  0.00    -0.271 N 
ATOM      3  C   UNL     1      33.662 -20.998 -19.838  0.00  0.00    +0.004 C 
ATOM      4  C   UNL     1      35.144 -21.215 -20.140  0.00  0.00    +0.022 C 
ATOM      5  C   UNL     1      33.027 -20.059 -20.863  0.00  0.00    +0.022 C 
ATOM      6  C   UNL     1      35.884 -19.886 -20.259  0.00  0.00    +0.094 C 
ATOM      7  C   UNL     1      33.803 -18.748 -20.972  0.00  0.00    +0.094 C 
ATOM      8  C   UNL     1      35.962 -18.442 -22.256  0.00  0.00    +0.325 C 
ENDROOT
BRANCH   8  10
ATOM      9  O   UNL     1      34.541 -18.023 -24.089  0.00  0.00    -0.240 OA
ATOM     10  C   UNL     1      35.217 -17.565 -23.187  0.00  0.00    +0.396 C 
BRANCH  10  11
ATOM     11  O   UNL     1      35.441 -16.287 -22.832  0.00  0.00    -0.442 OA
BRANCH  11  12
ATOM     12  C   UNL     1      34.271 -15.529 -22.508  0.00  0.00    +0.209 C 
ATOM     13  C   UNL     1      34.441 -14.922 -21.132  0.00  0.00    +0.051 C 
ENDBRANCH  11  12
ENDBRANCH  10  11
ENDBRANCH   8  10
TORSDOF 3
ENDMDL
