MODEL 1
REMARK VINA RESULT:      -9.1      0.000      0.000
REMARK  Name = 647499
REMARK  4 active torsions:
REMARK  status: ('A' for Active; 'I' for Inactive)
REMARK    1  A    between atoms: C_1  and  C_8
REMARK    2  A    between atoms: C_2  and  C_19
REMARK    3  A    between atoms: C_10  and  C_13
REMARK    4  A    between atoms: C_13  and  O_14
REMARK                            x       y       z     vdW  Elec       q    Type
REMARK                         _______ _______ _______ _____ _____    ______ ____
ROOT
ATOM      1  C   UNL     1      34.987 -17.303 -21.530  0.00  0.00    +0.038 C 
ATOM      2  C   UNL     1      34.848 -17.086 -22.901  0.00  0.00    +0.074 C 
ATOM      3  C   UNL     1      34.776 -16.255 -20.634  0.00  0.00    +0.003 C 
ATOM      4  C   UNL     1      34.496 -15.822 -23.376  0.00  0.00    +0.004 C 
ATOM      5  C   UNL     1      34.426 -14.991 -21.108  0.00  0.00    +0.000 C 
ATOM      6  C   UNL     1      34.286 -14.774 -22.479  0.00  0.00    -0.000 C 
ENDROOT
BRANCH   1   8
ATOM      7  O   UNL     1      34.306 -19.399 -20.680  0.00  0.00    -0.447 OA
ATOM      8  C   UNL     1      35.350 -18.602 -21.013  0.00  0.00    +0.146 C 
ATOM      9  C   UNL     1      36.545 -19.227 -20.777  0.00  0.00    +0.041 C 
ATOM     10  C   UNL     1      34.843 -20.558 -20.221  0.00  0.00    +0.220 C 
ATOM     11  C   UNL     1      36.218 -20.504 -20.260  0.00  0.00    +0.047 C 
BRANCH  10  13
ATOM     12  O   UNL     1      32.700 -21.523 -19.771  0.00  0.00    -0.242 OA
ATOM     13  C   UNL     1      33.953 -21.584 -19.796  0.00  0.00    +0.373 C 
BRANCH  13  14
ATOM     14  O   UNL     1      34.587 -22.732 -19.388  0.00  0.00    -0.475 OA
ATOM     15  H   UNL     1      35.514 -22.818 -19.493  0.00  0.00    +0.296 HD
ENDBRANCH  13  14
ENDBRANCH  10  13
ENDBRANCH   1   8
BRANCH   2  19
ATOM     16  F   UNL     1      36.300 -18.761 -23.801  0.00  0.00    -0.166 F 
ATOM     17  F   UNL     1      34.178 -19.212 -23.768  0.00  0.00    -0.166 F 
ATOM     18  F   UNL     1      34.954 -17.753 -25.180  0.00  0.00    -0.166 F 
ATOM     19  C   UNL     1      35.066 -18.184 -23.892  0.00  0.00    +0.419 C 
ENDBRANCH   2  19
TORSDOF 4
ENDMDL
MODEL 2
REMARK VINA RESULT:      -9.1      2.235      3.171
REMARK  Name = 647499
REMARK  4 active torsions:
REMARK  status: ('A' for Active; 'I' for Inactive)
REMARK    1  A    between atoms: C_1  and  C_8
REMARK    2  A    between atoms: C_2  and  C_19
REMARK    3  A    between atoms: C_10  and  C_13
REMARK    4  A    between atoms: C_13  and  O_14
REMARK                            x       y       z     vdW  Elec       q    Type
REMARK                         _______ _______ _______ _____ _____    ______ ____
ROOT
ATOM      1  C   UNL     1      34.382 -18.497 -22.776  0.00  0.00    +0.038 C 
ATOM      2  C   UNL     1      34.585 -17.129 -22.595  0.00  0.00    +0.074 C 
ATOM      3  C   UNL     1      34.438 -19.047 -24.056  0.00  0.00    +0.003 C 
ATOM      4  C   UNL     1      34.844 -16.311 -23.695  0.00  0.00    +0.004 C 
ATOM      5  C   UNL     1      34.695 -18.230 -25.157  0.00  0.00    +0.000 C 
ATOM      6  C   UNL     1      34.899 -16.861 -24.976  0.00  0.00    -0.000 C 
ENDROOT
BRANCH   1   8
ATOM      7  O   UNL     1      35.195 -20.006 -21.150  0.00  0.00    -0.447 OA
ATOM      8  C   UNL     1      34.112 -19.366 -21.653  0.00  0.00    +0.146 C 
ATOM      9  C   UNL     1      32.977 -19.697 -20.964  0.00  0.00    +0.041 C 
ATOM     10  C   UNL     1      34.743 -20.764 -20.117  0.00  0.00    +0.220 C 
ATOM     11  C   UNL     1      33.385 -20.609 -19.961  0.00  0.00    +0.047 C 
BRANCH  10  13
ATOM     12  O   UNL     1      35.442 -22.362 -18.480  0.00  0.00    -0.242 OA
ATOM     13  C   UNL     1      35.690 -21.551 -19.404  0.00  0.00    +0.373 C 
BRANCH  13  14
ATOM     14  O   UNL     1      36.987 -21.362 -19.814  0.00  0.00    -0.475 OA
ATOM     15  H   UNL     1      37.183 -21.284 -20.727  0.00  0.00    +0.296 HD
ENDBRANCH  13  14
ENDBRANCH  10  13
ENDBRANCH   1   8
BRANCH   2  19
ATOM     16  F   UNL     1      33.289 -16.522 -20.679  0.00  0.00    -0.166 F 
ATOM     17  F   UNL     1      35.346 -17.112 -20.328  0.00  0.00    -0.166 F 
ATOM     18  F   UNL     1      34.912 -15.194 -21.254  0.00  0.00    -0.166 F 
ATOM     19  C   UNL     1      34.533 -16.503 -21.239  0.00  0.00    +0.419 C 
ENDBRANCH   2  19
TORSDOF 4
ENDMDL
MODEL 3
REMARK VINA RESULT:      -8.8      2.025      2.874
REMARK  Name = 647499
REMARK  4 active torsions:
REMARK  status: ('A' for Active; 'I' for Inactive)
REMARK    1  A    between atoms: C_1  and  C_8
REMARK    2  A    between atoms: C_2  and  C_19
REMARK    3  A    between atoms: C_10  and  C_13
REMARK    4  A    between atoms: C_13  and  O_14
REMARK                            x       y       z     vdW  Elec       q    Type
REMARK                         _______ _______ _______ _____ _____    ______ ____
ROOT
ATOM      1  C   UNL     1      34.787 -17.965 -22.891  0.00  0.00    +0.038 C 
ATOM      2  C   UNL     1      34.414 -16.652 -22.607  0.00  0.00    +0.074 C 
ATOM      3  C   UNL     1      34.920 -18.380 -24.216  0.00  0.00    +0.003 C 
ATOM      4  C   UNL     1      34.174 -15.753 -23.646  0.00  0.00    +0.004 C 
ATOM      5  C   UNL     1      34.680 -17.482 -25.256  0.00  0.00    +0.000 C 
ATOM      6  C   UNL     1      34.307 -16.169 -24.971  0.00  0.00    -0.000 C 
ENDROOT
BRANCH   1   8
ATOM      7  O   UNL     1      33.951 -19.588 -21.392  0.00  0.00    -0.447 OA
ATOM      8  C   UNL     1      35.041 -18.915 -21.832  0.00  0.00    +0.146 C 
ATOM      9  C   UNL     1      36.167 -19.298 -21.155  0.00  0.00    +0.041 C 
ATOM     10  C   UNL     1      34.388 -20.420 -20.412  0.00  0.00    +0.220 C 
ATOM     11  C   UNL     1      35.744 -20.280 -20.228  0.00  0.00    +0.047 C 
BRANCH  10  13
ATOM     12  O   UNL     1      33.553 -22.478 -19.520  0.00  0.00    -0.242 OA
ATOM     13  C   UNL     1      33.431 -21.254 -19.769  0.00  0.00    +0.373 C 
BRANCH  13  14
ATOM     14  O   UNL     1      32.281 -20.597 -19.405  0.00  0.00    -0.475 OA
ATOM     15  H   UNL     1      31.446 -20.976 -19.595  0.00  0.00    +0.296 HD
ENDBRANCH  13  14
ENDBRANCH  10  13
ENDBRANCH   1   8
BRANCH   2  19
ATOM     16  F   UNL     1      33.099 -16.577 -20.609  0.00  0.00    -0.166 F 
ATOM     17  F   UNL     1      35.255 -16.596 -20.368  0.00  0.00    -0.166 F 
ATOM     18  F   UNL     1      34.263 -14.810 -21.111  0.00  0.00    -0.166 F 
ATOM     19  C   UNL     1      34.260 -16.170 -21.199  0.00  0.00    +0.419 C 
ENDBRANCH   2  19
TORSDOF 4
ENDMDL
MODEL 4
REMARK VINA RESULT:      -8.6      2.692      5.347
REMARK  Name = 647499
REMARK  4 active torsions:
REMARK  status: ('A' for Active; 'I' for Inactive)
REMARK    1  A    between atoms: C_1  and  C_8
REMARK    2  A    between atoms: C_2  and  C_19
REMARK    3  A    between atoms: C_10  and  C_13
REMARK    4  A    between atoms: C_13  and  O_14
REMARK                            x       y       z     vdW  Elec       q    Type
REMARK                         _______ _______ _______ _____ _____    ______ ____
ROOT
ATOM      1  C   UNL     1      35.393 -19.528 -20.856  0.00  0.00    +0.038 C 
ATOM      2  C   UNL     1      34.330 -20.234 -20.293  0.00  0.00    +0.074 C 
ATOM      3  C   UNL     1      36.705 -19.938 -20.619  0.00  0.00    +0.003 C 
ATOM      4  C   UNL     1      34.579 -21.350 -19.493  0.00  0.00    +0.004 C 
ATOM      5  C   UNL     1      36.955 -21.052 -19.818  0.00  0.00    +0.000 C 
ATOM      6  C   UNL     1      35.891 -21.758 -19.255  0.00  0.00    -0.000 C 
ENDROOT
BRANCH   1   8
ATOM      7  O   UNL     1      34.948 -18.639 -22.999  0.00  0.00    -0.447 OA
ATOM      8  C   UNL     1      35.162 -18.370 -21.688  0.00  0.00    +0.146 C 
ATOM      9  C   UNL     1      35.109 -17.024 -21.444  0.00  0.00    +0.041 C 
ATOM     10  C   UNL     1      34.755 -17.440 -23.607  0.00  0.00    +0.220 C 
ATOM     11  C   UNL     1      34.843 -16.415 -22.693  0.00  0.00    +0.047 C 
BRANCH  10  13
ATOM     12  O   UNL     1      34.866 -16.555 -25.827  0.00  0.00    -0.242 OA
ATOM     13  C   UNL     1      34.507 -17.435 -25.008  0.00  0.00    +0.373 C 
BRANCH  13  14
ATOM     14  O   UNL     1      33.803 -18.528 -25.449  0.00  0.00    -0.475 OA
ATOM     15  H   UNL     1      34.237 -19.350 -25.562  0.00  0.00    +0.296 HD
ENDBRANCH  13  14
ENDBRANCH  10  13
ENDBRANCH   1   8
BRANCH   2  19
ATOM     16  F   UNL     1      32.738 -18.474 -20.590  0.00  0.00    -0.166 F 
ATOM     17  F   UNL     1      32.388 -20.313 -21.687  0.00  0.00    -0.166 F 
ATOM     18  F   UNL     1      32.077 -20.257 -19.536  0.00  0.00    -0.166 F 
ATOM     19  C   UNL     1      32.911 -19.826 -20.524  0.00  0.00    +0.419 C 
ENDBRANCH   2  19
TORSDOF 4
ENDMDL
MODEL 5
REMARK VINA RESULT:      -8.4      2.713      5.419
REMARK  Name = 647499
REMARK  4 active torsions:
REMARK  status: ('A' for Active; 'I' for Inactive)
REMARK    1  A    between atoms: C_1  and  C_8
REMARK    2  A    between atoms: C_2  and  C_19
REMARK    3  A    between atoms: C_10  and  C_13
REMARK    4  A    between atoms: C_13  and  O_14
REMARK                            x       y       z     vdW  Elec       q    Type
REMARK                         _______ _______ _______ _____ _____    ______ ____
ROOT
ATOM      1  C   UNL     1      35.353 -19.650 -20.830  0.00  0.00    +0.038 C 
ATOM      2  C   UNL     1      34.309 -20.339 -20.213  0.00  0.00    +0.074 C 
ATOM      3  C   UNL     1      36.674 -20.032 -20.596  0.00  0.00    +0.003 C 
ATOM      4  C   UNL     1      34.586 -21.409 -19.361  0.00  0.00    +0.004 C 
ATOM      5  C   UNL     1      36.952 -21.101 -19.744  0.00  0.00    +0.000 C 
ATOM      6  C   UNL     1      35.907 -21.789 -19.127  0.00  0.00    -0.000 C 
ENDROOT
BRANCH   1   8
ATOM      7  O   UNL     1      35.057 -17.324 -21.117  0.00  0.00    -0.447 OA
ATOM      8  C   UNL     1      35.093 -18.539 -21.716  0.00  0.00    +0.146 C 
ATOM      9  C   UNL     1      34.869 -18.434 -23.063  0.00  0.00    +0.041 C 
ATOM     10  C   UNL     1      34.804 -16.423 -22.101  0.00  0.00    +0.220 C 
ATOM     11  C   UNL     1      34.680 -17.055 -23.317  0.00  0.00    +0.047 C 
BRANCH  10  13
ATOM     12  O   UNL     1      34.457 -14.090 -22.507  0.00  0.00    -0.242 OA
ATOM     13  C   UNL     1      34.711 -15.049 -21.740  0.00  0.00    +0.373 C 
BRANCH  13  14
ATOM     14  O   UNL     1      34.930 -14.813 -20.404  0.00  0.00    -0.475 OA
ATOM     15  H   UNL     1      35.160 -15.521 -19.835  0.00  0.00    +0.296 HD
ENDBRANCH  13  14
ENDBRANCH  10  13
ENDBRANCH   1   8
BRANCH   2  19
ATOM     16  F   UNL     1      32.357 -20.475 -21.588  0.00  0.00    -0.166 F 
ATOM     17  F   UNL     1      32.044 -20.375 -19.444  0.00  0.00    -0.166 F 
ATOM     18  F   UNL     1      32.708 -18.610 -20.526  0.00  0.00    -0.166 F 
ATOM     19  C   UNL     1      32.881 -19.959 -20.439  0.00  0.00    +0.419 C 
ENDBRANCH   2  19
TORSDOF 4
ENDMDL
MODEL 6
REMARK VINA RESULT:      -8.4      4.645      7.135
REMARK  Name = 647499
REMARK  4 active torsions:
REMARK  status: ('A' for Active; 'I' for Inactive)
REMARK    1  A    between atoms: C_1  and  C_8
REMARK    2  A    between atoms: C_2  and  C_19
REMARK    3  A    between atoms: C_10  and  C_13
REMARK    4  A    between atoms: C_13  and  O_14
REMARK                            x       y       z     vdW  Elec       q    Type
REMARK                         _______ _______ _______ _____ _____    ______ ____
ROOT
ATOM      1  C   UNL     1      33.995 -15.550 -23.582  0.00  0.00    +0.038 C 
ATOM      2  C   UNL     1      34.498 -16.315 -22.531  0.00  0.00    +0.074 C 
ATOM      3  C   UNL     1      34.030 -16.046 -24.885  0.00  0.00    +0.003 C 
ATOM      4  C   UNL     1      35.037 -17.577 -22.782  0.00  0.00    +0.004 C 
ATOM      5  C   UNL     1      34.570 -17.307 -25.137  0.00  0.00    +0.000 C 
ATOM      6  C   UNL     1      35.073 -18.073 -24.085  0.00  0.00    -0.000 C 
ENDROOT
BRANCH   1   8
ATOM      7  O   UNL     1      34.118 -13.212 -23.905  0.00  0.00    -0.447 OA
ATOM      8  C   UNL     1      33.431 -14.240 -23.349  0.00  0.00    +0.146 C 
ATOM      9  C   UNL     1      32.329 -13.790 -22.673  0.00  0.00    +0.041 C 
ATOM     10  C   UNL     1      33.441 -12.081 -23.578  0.00  0.00    +0.220 C 
ATOM     11  C   UNL     1      32.332 -12.383 -22.821  0.00  0.00    +0.047 C 
BRANCH  10  13
ATOM     12  O   UNL     1      33.607  -9.696 -23.659  0.00  0.00    -0.242 OA
ATOM     13  C   UNL     1      33.955 -10.838 -24.042  0.00  0.00    +0.373 C 
BRANCH  13  14
ATOM     14  O   UNL     1      34.929 -10.967 -25.002  0.00  0.00    -0.475 OA
ATOM     15  H   UNL     1      34.994 -11.758 -25.499  0.00  0.00    +0.296 HD
ENDBRANCH  13  14
ENDBRANCH  10  13
ENDBRANCH   1   8
BRANCH   2  19
ATOM     16  F   UNL     1      34.966 -14.550 -20.986  0.00  0.00    -0.166 F 
ATOM     17  F   UNL     1      33.227 -15.780 -20.576  0.00  0.00    -0.166 F 
ATOM     18  F   UNL     1      35.222 -16.593 -20.284  0.00  0.00    -0.166 F 
ATOM     19  C   UNL     1      34.477 -15.817 -21.122  0.00  0.00    +0.419 C 
ENDBRANCH   2  19
TORSDOF 4
ENDMDL
MODEL 7
REMARK VINA RESULT:      -8.3      2.370      3.026
REMARK  Name = 647499
REMARK  4 active torsions:
REMARK  status: ('A' for Active; 'I' for Inactive)
REMARK    1  A    between atoms: C_1  and  C_8
REMARK    2  A    between atoms: C_2  and  C_19
REMARK    3  A    between atoms: C_10  and  C_13
REMARK    4  A    between atoms: C_13  and  O_14
REMARK                            x       y       z     vdW  Elec       q    Type
REMARK                         _______ _______ _______ _____ _____    ______ ____
ROOT
ATOM      1  C   UNL     1      34.438 -16.857 -23.084  0.00  0.00    +0.038 C 
ATOM      2  C   UNL     1      33.927 -15.669 -22.561  0.00  0.00    +0.074 C 
ATOM      3  C   UNL     1      34.477 -17.050 -24.465  0.00  0.00    +0.003 C 
ATOM      4  C   UNL     1      33.456 -14.675 -23.418  0.00  0.00    +0.004 C 
ATOM      5  C   UNL     1      34.004 -16.057 -25.323  0.00  0.00    +0.000 C 
ATOM      6  C   UNL     1      33.494 -14.869 -24.799  0.00  0.00    -0.000 C 
ENDROOT
BRANCH   1   8
ATOM      7  O   UNL     1      33.980 -18.698 -21.677  0.00  0.00    -0.447 OA
ATOM      8  C   UNL     1      34.933 -17.902 -22.218  0.00  0.00    +0.146 C 
ATOM      9  C   UNL     1      36.184 -18.280 -21.810  0.00  0.00    +0.041 C 
ATOM     10  C   UNL     1      34.634 -19.605 -20.905  0.00  0.00    +0.220 C 
ATOM     11  C   UNL     1      35.992 -19.390 -20.954  0.00  0.00    +0.047 C 
BRANCH  10  13
ATOM     12  O   UNL     1      32.626 -20.776 -20.340  0.00  0.00    -0.242 OA
ATOM     13  C   UNL     1      33.857 -20.574 -20.211  0.00  0.00    +0.373 C 
BRANCH  13  14
ATOM     14  O   UNL     1      34.583 -21.334 -19.327  0.00  0.00    -0.475 OA
ATOM     15  H   UNL     1      34.170 -22.036 -18.865  0.00  0.00    +0.296 HD
ENDBRANCH  13  14
ENDBRANCH  10  13
ENDBRANCH   1   8
BRANCH   2  19
ATOM     16  F   UNL     1      35.062 -15.627 -20.456  0.00  0.00    -0.166 F 
ATOM     17  F   UNL     1      33.500 -14.153 -20.761  0.00  0.00    -0.166 F 
ATOM     18  F   UNL     1      32.976 -16.242 -20.459  0.00  0.00    -0.166 F 
ATOM     19  C   UNL     1      33.870 -15.426 -21.087  0.00  0.00    +0.419 C 
ENDBRANCH   2  19
TORSDOF 4
ENDMDL
MODEL 8
REMARK VINA RESULT:      -8.3      7.221      8.788
REMARK  Name = 647499
REMARK  4 active torsions:
REMARK  status: ('A' for Active; 'I' for Inactive)
REMARK    1  A    between atoms: C_1  and  C_8
REMARK    2  A    between atoms: C_2  and  C_19
REMARK    3  A    between atoms: C_10  and  C_13
REMARK    4  A    between atoms: C_13  and  O_14
REMARK                            x       y       z     vdW  Elec       q    Type
REMARK                         _______ _______ _______ _____ _____    ______ ____
ROOT
ATOM      1  C   UNL     1      33.343 -23.680 -14.959  0.00  0.00    +0.038 C 
ATOM      2  C   UNL     1      32.718 -23.294 -16.144  0.00  0.00    +0.074 C 
ATOM      3  C   UNL     1      32.597 -23.806 -13.787  0.00  0.00    +0.003 C 
ATOM      4  C   UNL     1      31.347 -23.033 -16.158  0.00  0.00    +0.004 C 
ATOM      5  C   UNL     1      31.227 -23.544 -13.799  0.00  0.00    +0.000 C 
ATOM      6  C   UNL     1      30.602 -23.157 -14.985  0.00  0.00    -0.000 C 
ENDROOT
BRANCH   1   8
ATOM      7  O   UNL     1      35.100 -25.249 -15.144  0.00  0.00    -0.447 OA
ATOM      8  C   UNL     1      34.760 -23.957 -14.918  0.00  0.00    +0.146 C 
ATOM      9  C   UNL     1      35.869 -23.185 -14.696  0.00  0.00    +0.041 C 
ATOM     10  C   UNL     1      36.454 -25.306 -15.064  0.00  0.00    +0.220 C 
ATOM     11  C   UNL     1      36.976 -24.062 -14.791  0.00  0.00    +0.047 C 
BRANCH  10  13
ATOM     12  O   UNL     1      37.970 -27.082 -14.544  0.00  0.00    -0.242 OA
ATOM     13  C   UNL     1      37.082 -26.568 -15.264  0.00  0.00    +0.373 C 
BRANCH  13  14
ATOM     14  O   UNL     1      36.626 -27.242 -16.370  0.00  0.00    -0.475 OA
ATOM     15  H   UNL     1      37.016 -27.087 -17.207  0.00  0.00    +0.296 HD
ENDBRANCH  13  14
ENDBRANCH  10  13
ENDBRANCH   1   8
BRANCH   2  19
ATOM     16  F   UNL     1      34.711 -22.574 -17.255  0.00  0.00    -0.166 F 
ATOM     17  F   UNL     1      33.724 -24.336 -18.048  0.00  0.00    -0.166 F 
ATOM     18  F   UNL     1      32.833 -22.373 -18.333  0.00  0.00    -0.166 F 
ATOM     19  C   UNL     1      33.484 -23.148 -17.420  0.00  0.00    +0.419 C 
ENDBRANCH   2  19
TORSDOF 4
ENDMDL
MODEL 9
REMARK VINA RESULT:      -8.2      7.911      9.739
REMARK  Name = 647499
REMARK  4 active torsions:
REMARK  status: ('A' for Active; 'I' for Inactive)
REMARK    1  A    between atoms: C_1  and  C_8
REMARK    2  A    between atoms: C_2  and  C_19
REMARK    3  A    between atoms: C_10  and  C_13
REMARK    4  A    between atoms: C_13  and  O_14
REMARK                            x       y       z     vdW  Elec       q    Type
REMARK                         _______ _______ _______ _____ _____    ______ ____
ROOT
ATOM      1  C   UNL     1      32.120 -23.463 -16.202  0.00  0.00    +0.038 C 
ATOM      2  C   UNL     1      33.026 -23.474 -15.143  0.00  0.00    +0.074 C 
ATOM      3  C   UNL     1      32.553 -23.130 -17.486  0.00  0.00    +0.003 C 
ATOM      4  C   UNL     1      34.365 -23.151 -15.365  0.00  0.00    +0.004 C 
ATOM      5  C   UNL     1      33.891 -22.806 -17.709  0.00  0.00    +0.000 C 
ATOM      6  C   UNL     1      34.797 -22.816 -16.649  0.00  0.00    -0.000 C 
ENDROOT
BRANCH   1   8
ATOM      7  O   UNL     1      29.860 -22.776 -16.211  0.00  0.00    -0.447 OA
ATOM      8  C   UNL     1      30.729 -23.794 -15.998  0.00  0.00    +0.146 C 
ATOM      9  C   UNL     1      30.072 -24.936 -15.627  0.00  0.00    +0.041 C 
ATOM     10  C   UNL     1      28.621 -23.278 -15.971  0.00  0.00    +0.220 C 
ATOM     11  C   UNL     1      28.697 -24.603 -15.609  0.00  0.00    +0.047 C 
BRANCH  10  13
ATOM     12  O   UNL     1      26.498 -22.345 -15.381  0.00  0.00    -0.242 OA
ATOM     13  C   UNL     1      27.507 -22.404 -16.123  0.00  0.00    +0.373 C 
BRANCH  13  14
ATOM     14  O   UNL     1      27.606 -21.566 -17.206  0.00  0.00    -0.475 OA
ATOM     15  H   UNL     1      27.263 -21.831 -18.036  0.00  0.00    +0.296 HD
ENDBRANCH  13  14
ENDBRANCH  10  13
ENDBRANCH   1   8
BRANCH   2  19
ATOM     16  F   UNL     1      31.529 -23.104 -13.314  0.00  0.00    -0.166 F 
ATOM     17  F   UNL     1      32.235 -25.133 -13.612  0.00  0.00    -0.166 F 
ATOM     18  F   UNL     1      33.588 -23.618 -12.837  0.00  0.00    -0.166 F 
ATOM     19  C   UNL     1      32.600 -23.826 -13.754  0.00  0.00    +0.419 C 
ENDBRANCH   2  19
TORSDOF 4
ENDMDL
