MODEL 1
REMARK VINA RESULT:      -7.8      0.000      0.000
REMARK  Name = 5280567
REMARK  1 active torsions:
REMARK  status: ('A' for Active; 'I' for Inactive)
REMARK    1  A    between atoms: C_11  and  O_13
REMARK                            x       y       z     vdW  Elec       q    Type
REMARK                         _______ _______ _______ _____ _____    ______ ____
ROOT
ATOM      1  O   UNL     1      33.734 -15.376 -24.545  0.00  0.00    -0.421 OA
ATOM      2  O   UNL     1      34.841 -16.874 -25.873  0.00  0.00    -0.244 OA
ATOM      3  C   UNL     1      33.859 -15.612 -22.117  0.00  0.00    +0.031 C 
ATOM      4  C   UNL     1      34.714 -16.792 -22.300  0.00  0.00    -0.012 C 
ATOM      5  C   UNL     1      33.395 -14.940 -23.249  0.00  0.00    +0.151 C 
ATOM      6  C   UNL     1      33.476 -15.115 -20.863  0.00  0.00    +0.006 C 
ATOM      7  C   UNL     1      32.578 -13.810 -23.163  0.00  0.00    +0.074 C 
ATOM      8  C   UNL     1      35.020 -17.184 -23.545  0.00  0.00    +0.078 C 
ATOM      9  C   UNL     1      35.228 -17.537 -21.103  0.00  0.00    +0.031 C 
ATOM     10  C   UNL     1      32.658 -13.984 -20.761  0.00  0.00    +0.037 C 
ATOM     11  C   UNL     1      32.210 -13.333 -21.909  0.00  0.00    +0.137 C 
ATOM     12  C   UNL     1      34.539 -16.485 -24.749  0.00  0.00    +0.346 C 
ENDROOT
BRANCH  11  13
ATOM     13  O   UNL     1      31.415 -12.234 -21.804  0.00  0.00    -0.505 OA
ATOM     14  H   UNL     1      30.569 -12.303 -21.405  0.00  0.00    +0.292 HD
ENDBRANCH  11  13
TORSDOF 1
ENDMDL
MODEL 2
REMARK VINA RESULT:      -7.7      1.863      3.655
REMARK  Name = 5280567
REMARK  1 active torsions:
REMARK  status: ('A' for Active; 'I' for Inactive)
REMARK    1  A    between atoms: C_11  and  O_13
REMARK                            x       y       z     vdW  Elec       q    Type
REMARK                         _______ _______ _______ _____ _____    ______ ____
ROOT
ATOM      1  O   UNL     1      34.144 -16.206 -24.775  0.00  0.00    -0.421 OA
ATOM      2  O   UNL     1      33.395 -15.353 -26.760  0.00  0.00    -0.244 OA
ATOM      3  C   UNL     1      33.748 -14.959 -22.713  0.00  0.00    +0.031 C 
ATOM      4  C   UNL     1      33.067 -13.922 -23.500  0.00  0.00    -0.012 C 
ATOM      5  C   UNL     1      34.266 -16.071 -23.378  0.00  0.00    +0.151 C 
ATOM      6  C   UNL     1      33.911 -14.899 -21.321  0.00  0.00    +0.006 C 
ATOM      7  C   UNL     1      34.927 -17.101 -22.705  0.00  0.00    +0.074 C 
ATOM      8  C   UNL     1      32.965 -14.077 -24.827  0.00  0.00    +0.078 C 
ATOM      9  C   UNL     1      32.499 -12.714 -22.814  0.00  0.00    +0.031 C 
ATOM     10  C   UNL     1      34.571 -15.923 -20.634  0.00  0.00    +0.037 C 
ATOM     11  C   UNL     1      35.078 -17.022 -21.325  0.00  0.00    +0.137 C 
ATOM     12  C   UNL     1      33.507 -15.245 -25.543  0.00  0.00    +0.346 C 
ENDROOT
BRANCH  11  13
ATOM     13  O   UNL     1      35.719 -18.015 -20.650  0.00  0.00    -0.505 OA
ATOM     14  H   UNL     1      35.975 -17.887 -19.757  0.00  0.00    +0.292 HD
ENDBRANCH  11  13
TORSDOF 1
ENDMDL
MODEL 3
REMARK VINA RESULT:      -7.6      2.229      3.052
REMARK  Name = 5280567
REMARK  1 active torsions:
REMARK  status: ('A' for Active; 'I' for Inactive)
REMARK    1  A    between atoms: C_11  and  O_13
REMARK                            x       y       z     vdW  Elec       q    Type
REMARK                         _______ _______ _______ _____ _____    ______ ____
ROOT
ATOM      1  O   UNL     1      35.090 -17.112 -20.621  0.00  0.00    -0.421 OA
ATOM      2  O   UNL     1      36.381 -19.000 -20.651  0.00  0.00    -0.244 OA
ATOM      3  C   UNL     1      34.258 -16.200 -22.728  0.00  0.00    +0.031 C 
ATOM      4  C   UNL     1      34.937 -17.291 -23.440  0.00  0.00    -0.012 C 
ATOM      5  C   UNL     1      34.357 -16.145 -21.337  0.00  0.00    +0.151 C 
ATOM      6  C   UNL     1      33.510 -15.200 -23.366  0.00  0.00    +0.006 C 
ATOM      7  C   UNL     1      33.743 -15.142 -20.584  0.00  0.00    +0.074 C 
ATOM      8  C   UNL     1      35.627 -18.197 -22.733  0.00  0.00    +0.078 C 
ATOM      9  C   UNL     1      34.849 -17.377 -24.936  0.00  0.00    +0.031 C 
ATOM     10  C   UNL     1      32.889 -14.189 -22.625  0.00  0.00    +0.037 C 
ATOM     11  C   UNL     1      33.006 -14.160 -21.237  0.00  0.00    +0.137 C 
ATOM     12  C   UNL     1      35.741 -18.153 -21.265  0.00  0.00    +0.346 C 
ENDROOT
BRANCH  11  13
ATOM     13  O   UNL     1      32.400 -13.174 -20.522  0.00  0.00    -0.505 OA
ATOM     14  H   UNL     1      31.706 -12.674 -20.906  0.00  0.00    +0.292 HD
ENDBRANCH  11  13
TORSDOF 1
ENDMDL
MODEL 4
REMARK VINA RESULT:      -7.5      2.039      3.760
REMARK  Name = 5280567
REMARK  1 active torsions:
REMARK  status: ('A' for Active; 'I' for Inactive)
REMARK    1  A    between atoms: C_11  and  O_13
REMARK                            x       y       z     vdW  Elec       q    Type
REMARK                         _______ _______ _______ _____ _____    ______ ____
ROOT
ATOM      1  O   UNL     1      34.877 -16.863 -22.656  0.00  0.00    -0.421 OA
ATOM      2  O   UNL     1      35.530 -17.676 -20.621  0.00  0.00    -0.244 OA
ATOM      3  C   UNL     1      33.439 -14.891 -22.749  0.00  0.00    +0.031 C 
ATOM      4  C   UNL     1      33.449 -14.844 -21.281  0.00  0.00    -0.012 C 
ATOM      5  C   UNL     1      34.155 -15.902 -23.392  0.00  0.00    +0.151 C 
ATOM      6  C   UNL     1      32.747 -13.973 -23.553  0.00  0.00    +0.006 C 
ATOM      7  C   UNL     1      34.198 -16.017 -24.783  0.00  0.00    +0.074 C 
ATOM      8  C   UNL     1      34.144 -15.771 -20.607  0.00  0.00    +0.078 C 
ATOM      9  C   UNL     1      32.688 -13.769 -20.561  0.00  0.00    +0.031 C 
ATOM     10  C   UNL     1      32.780 -14.076 -24.948  0.00  0.00    +0.037 C 
ATOM     11  C   UNL     1      33.505 -15.097 -25.562  0.00  0.00    +0.137 C 
ATOM     12  C   UNL     1      34.905 -16.844 -21.271  0.00  0.00    +0.346 C 
ENDROOT
BRANCH  11  13
ATOM     13  O   UNL     1      33.534 -15.192 -26.918  0.00  0.00    -0.505 OA
ATOM     14  H   UNL     1      34.321 -14.990 -27.386  0.00  0.00    +0.292 HD
ENDBRANCH  11  13
TORSDOF 1
ENDMDL
MODEL 5
REMARK VINA RESULT:      -7.4      2.244      3.250
REMARK  Name = 5280567
REMARK  1 active torsions:
REMARK  status: ('A' for Active; 'I' for Inactive)
REMARK    1  A    between atoms: C_11  and  O_13
REMARK                            x       y       z     vdW  Elec       q    Type
REMARK                         _______ _______ _______ _____ _____    ______ ____
ROOT
ATOM      1  O   UNL     1      35.086 -16.326 -21.519  0.00  0.00    -0.421 OA
ATOM      2  O   UNL     1      35.843 -18.235 -20.512  0.00  0.00    -0.244 OA
ATOM      3  C   UNL     1      34.317 -16.422 -23.835  0.00  0.00    +0.031 C 
ATOM      4  C   UNL     1      34.623 -17.858 -23.852  0.00  0.00    -0.012 C 
ATOM      5  C   UNL     1      34.559 -15.699 -22.666  0.00  0.00    +0.151 C 
ATOM      6  C   UNL     1      33.791 -15.725 -24.933  0.00  0.00    +0.006 C 
ATOM      7  C   UNL     1      34.296 -14.331 -22.566  0.00  0.00    +0.074 C 
ATOM      8  C   UNL     1      35.123 -18.428 -22.747  0.00  0.00    +0.078 C 
ATOM      9  C   UNL     1      34.373 -18.663 -25.094  0.00  0.00    +0.031 C 
ATOM     10  C   UNL     1      33.523 -14.354 -24.848  0.00  0.00    +0.037 C 
ATOM     11  C   UNL     1      33.775 -13.659 -23.667  0.00  0.00    +0.137 C 
ATOM     12  C   UNL     1      35.384 -17.679 -21.505  0.00  0.00    +0.346 C 
ENDROOT
BRANCH  11  13
ATOM     13  O   UNL     1      33.512 -12.326 -23.590  0.00  0.00    -0.505 OA
ATOM     14  H   UNL     1      32.848 -12.012 -23.008  0.00  0.00    +0.292 HD
ENDBRANCH  11  13
TORSDOF 1
ENDMDL
MODEL 6
REMARK VINA RESULT:      -7.3      1.321      3.968
REMARK  Name = 5280567
REMARK  1 active torsions:
REMARK  status: ('A' for Active; 'I' for Inactive)
REMARK    1  A    between atoms: C_11  and  O_13
REMARK                            x       y       z     vdW  Elec       q    Type
REMARK                         _______ _______ _______ _____ _____    ______ ____
ROOT
ATOM      1  O   UNL     1      32.620 -13.740 -22.512  0.00  0.00    -0.421 OA
ATOM      2  O   UNL     1      32.234 -13.067 -20.360  0.00  0.00    -0.244 OA
ATOM      3  C   UNL     1      34.002 -15.713 -22.917  0.00  0.00    +0.031 C 
ATOM      4  C   UNL     1      34.170 -15.862 -21.465  0.00  0.00    -0.012 C 
ATOM      5  C   UNL     1      33.229 -14.653 -23.395  0.00  0.00    +0.151 C 
ATOM      6  C   UNL     1      34.574 -16.577 -23.860  0.00  0.00    +0.006 C 
ATOM      7  C   UNL     1      33.019 -14.439 -24.759  0.00  0.00    +0.074 C 
ATOM      8  C   UNL     1      33.579 -14.979 -20.649  0.00  0.00    +0.078 C 
ATOM      9  C   UNL     1      34.995 -16.992 -20.920  0.00  0.00    +0.031 C 
ATOM     10  C   UNL     1      34.373 -16.375 -25.230  0.00  0.00    +0.037 C 
ATOM     11  C   UNL     1      33.596 -15.308 -25.679  0.00  0.00    +0.137 C 
ATOM     12  C   UNL     1      32.761 -13.856 -21.138  0.00  0.00    +0.346 C 
ENDROOT
BRANCH  11  13
ATOM     13  O   UNL     1      33.404 -15.117 -27.012  0.00  0.00    -0.505 OA
ATOM     14  H   UNL     1      33.967 -15.538 -27.632  0.00  0.00    +0.292 HD
ENDBRANCH  11  13
TORSDOF 1
ENDMDL
MODEL 7
REMARK VINA RESULT:      -7.3      9.314     11.092
REMARK  Name = 5280567
REMARK  1 active torsions:
REMARK  status: ('A' for Active; 'I' for Inactive)
REMARK    1  A    between atoms: C_11  and  O_13
REMARK                            x       y       z     vdW  Elec       q    Type
REMARK                         _______ _______ _______ _____ _____    ______ ____
ROOT
ATOM      1  O   UNL     1      30.330 -22.350 -17.191  0.00  0.00    -0.421 OA
ATOM      2  O   UNL     1      28.096 -22.068 -16.793  0.00  0.00    -0.244 OA
ATOM      3  C   UNL     1      31.736 -23.345 -15.460  0.00  0.00    +0.031 C 
ATOM      4  C   UNL     1      30.551 -23.463 -14.600  0.00  0.00    -0.012 C 
ATOM      5  C   UNL     1      31.587 -22.790 -16.732  0.00  0.00    +0.151 C 
ATOM      6  C   UNL     1      33.020 -23.759 -15.077  0.00  0.00    +0.006 C 
ATOM      7  C   UNL     1      32.662 -22.642 -17.611  0.00  0.00    +0.074 C 
ATOM      8  C   UNL     1      29.368 -23.036 -15.063  0.00  0.00    +0.078 C 
ATOM      9  C   UNL     1      30.678 -24.055 -13.226  0.00  0.00    +0.031 C 
ATOM     10  C   UNL     1      34.106 -23.617 -15.948  0.00  0.00    +0.037 C 
ATOM     11  C   UNL     1      33.927 -23.059 -17.212  0.00  0.00    +0.137 C 
ATOM     12  C   UNL     1      29.195 -22.448 -16.403  0.00  0.00    +0.346 C 
ENDROOT
BRANCH  11  13
ATOM     13  O   UNL     1      34.987 -22.924 -18.054  0.00  0.00    -0.505 OA
ATOM     14  H   UNL     1      34.853 -22.929 -18.982  0.00  0.00    +0.292 HD
ENDBRANCH  11  13
TORSDOF 1
ENDMDL
MODEL 8
REMARK VINA RESULT:      -7.3     12.358     14.131
REMARK  Name = 5280567
REMARK  1 active torsions:
REMARK  status: ('A' for Active; 'I' for Inactive)
REMARK    1  A    between atoms: C_11  and  O_13
REMARK                            x       y       z     vdW  Elec       q    Type
REMARK                         _______ _______ _______ _____ _____    ______ ____
ROOT
ATOM      1  O   UNL     1      38.992 -26.016 -13.321  0.00  0.00    -0.421 OA
ATOM      2  O   UNL     1      40.778 -26.457 -14.679  0.00  0.00    -0.244 OA
ATOM      3  C   UNL     1      37.447 -24.222 -13.922  0.00  0.00    +0.031 C 
ATOM      4  C   UNL     1      38.257 -23.960 -15.119  0.00  0.00    -0.012 C 
ATOM      5  C   UNL     1      37.842 -25.245 -13.058  0.00  0.00    +0.151 C 
ATOM      6  C   UNL     1      36.291 -23.501 -13.590  0.00  0.00    +0.006 C 
ATOM      7  C   UNL     1      37.129 -25.560 -11.899  0.00  0.00    +0.074 C 
ATOM      8  C   UNL     1      39.345 -24.709 -15.343  0.00  0.00    +0.078 C 
ATOM      9  C   UNL     1      37.859 -22.866 -16.067  0.00  0.00    +0.031 C 
ATOM     10  C   UNL     1      35.566 -23.805 -12.432  0.00  0.00    +0.037 C 
ATOM     11  C   UNL     1      35.985 -24.833 -11.588  0.00  0.00    +0.137 C 
ATOM     12  C   UNL     1      39.775 -25.792 -14.441  0.00  0.00    +0.346 C 
ENDROOT
BRANCH  11  13
ATOM     13  O   UNL     1      35.276 -25.123 -10.464  0.00  0.00    -0.505 OA
ATOM     14  H   UNL     1      35.694 -25.553  -9.744  0.00  0.00    +0.292 HD
ENDBRANCH  11  13
TORSDOF 1
ENDMDL
MODEL 9
REMARK VINA RESULT:      -7.2      1.670      4.324
REMARK  Name = 5280567
REMARK  1 active torsions:
REMARK  status: ('A' for Active; 'I' for Inactive)
REMARK    1  A    between atoms: C_11  and  O_13
REMARK                            x       y       z     vdW  Elec       q    Type
REMARK                         _______ _______ _______ _____ _____    ______ ____
ROOT
ATOM      1  O   UNL     1      33.984 -15.436 -24.728  0.00  0.00    -0.421 OA
ATOM      2  O   UNL     1      33.518 -13.199 -24.653  0.00  0.00    -0.244 OA
ATOM      3  C   UNL     1      34.533 -16.613 -22.660  0.00  0.00    +0.031 C 
ATOM      4  C   UNL     1      34.370 -15.350 -21.927  0.00  0.00    -0.012 C 
ATOM      5  C   UNL     1      34.334 -16.615 -24.041  0.00  0.00    +0.151 C 
ATOM      6  C   UNL     1      34.880 -17.827 -22.050  0.00  0.00    +0.006 C 
ATOM      7  C   UNL     1      34.470 -17.772 -24.812  0.00  0.00    +0.074 C 
ATOM      8  C   UNL     1      34.036 -14.244 -22.607  0.00  0.00    +0.078 C 
ATOM      9  C   UNL     1      34.577 -15.315 -20.441  0.00  0.00    +0.031 C 
ATOM     10  C   UNL     1      35.019 -18.994 -22.810  0.00  0.00    +0.037 C 
ATOM     11  C   UNL     1      34.814 -18.967 -24.188  0.00  0.00    +0.137 C 
ATOM     12  C   UNL     1      33.823 -14.231 -24.064  0.00  0.00    +0.346 C 
ENDROOT
BRANCH  11  13
ATOM     13  O   UNL     1      34.951 -20.105 -24.921  0.00  0.00    -0.505 OA
ATOM     14  H   UNL     1      34.503 -20.192 -25.740  0.00  0.00    +0.292 HD
ENDBRANCH  11  13
TORSDOF 1
ENDMDL
