MODEL 1
REMARK VINA RESULT:      -9.3      0.000      0.000
REMARK  Name = 16122633
REMARK  3 active torsions:
REMARK  status: ('A' for Active; 'I' for Inactive)
REMARK    1  A    between atoms: C_1  and  C_19
REMARK    2  A    between atoms: C_6  and  C_11
REMARK    3  A    between atoms: C_19  and  C_27
REMARK                            x       y       z     vdW  Elec       q    Type
REMARK                         _______ _______ _______ _____ _____    ______ ____
ROOT
ATOM      1  C   UNL     1      33.123  -9.049 -23.320  0.00  0.00    -0.019 C 
ATOM      2  C   UNL     1      32.162  -9.975 -22.912  0.00  0.00    -0.004 C 
ATOM      3  C   UNL     1      34.216  -9.466 -24.079  0.00  0.00    -0.004 C 
ATOM      4  C   UNL     1      32.295 -11.319 -23.265  0.00  0.00    +0.001 C 
ATOM      5  C   UNL     1      34.349 -10.809 -24.430  0.00  0.00    +0.001 C 
ATOM      6  C   UNL     1      33.389 -11.736 -24.024  0.00  0.00    +0.015 C 
ENDROOT
BRANCH   6  11
ATOM      7  N   UNL     1      33.211 -13.501 -25.649  0.00  0.00    -0.247 NA
ATOM      8  N   UNL     1      34.358 -14.120 -22.211  0.00  0.00    -0.271 NA
ATOM      9  N   UNL     1      33.764 -15.831 -25.187  0.00  0.00    -0.232 NA
ATOM     10  N   UNL     1      34.521 -16.230 -22.912  0.00  0.00    -0.307 N 
ATOM     11  C   UNL     1      33.526 -13.129 -24.388  0.00  0.00    +0.077 C 
ATOM     12  C   UNL     1      33.962 -14.108 -23.518  0.00  0.00    +0.150 C 
ATOM     13  C   UNL     1      34.072 -15.429 -23.930  0.00  0.00    +0.123 C 
ATOM     14  C   UNL     1      33.348 -14.810 -25.967  0.00  0.00    +0.251 C 
ATOM     15  C   UNL     1      34.684 -15.413 -21.893  0.00  0.00    +0.163 C 
ATOM     16  H   UNL     1      34.403 -13.343 -21.607  0.00  0.00    +0.125 HD
ATOM     17  H   UNL     1      34.686 -17.200 -22.937  0.00  0.00    +0.149 HD
ENDBRANCH   6  11
BRANCH   1  19
ATOM     18  N   UNL     1      32.222  -7.409 -20.009  0.00  0.00    +0.384 N 
ATOM     19  C   UNL     1      32.975  -7.556 -22.929  0.00  0.00    +0.034 C 
ATOM     20  C   UNL     1      33.950  -7.210 -21.749  0.00  0.00    -0.015 C 
ATOM     21  C   UNL     1      31.558  -7.155 -22.387  0.00  0.00    -0.015 C 
ATOM     22  C   UNL     1      33.548  -7.856 -20.420  0.00  0.00    -0.081 C 
ATOM     23  C   UNL     1      31.217  -7.745 -21.012  0.00  0.00    -0.081 C 
ATOM     24  H   UNL     1      32.237  -6.396 -19.880  0.00  0.00    -0.085 HD
ATOM     25  H   UNL     1      31.978  -7.878 -19.137  0.00  0.00    -0.085 HD
BRANCH  19  27
ATOM     26 CL   UNL     1      34.065  -4.232 -27.884  0.00  0.00    -0.082 Cl
ATOM     27  C   UNL     1      33.255  -6.705 -24.199  0.00  0.00    -0.019 C 
ATOM     28  C   UNL     1      32.239  -5.930 -24.757  0.00  0.00    -0.003 C 
ATOM     29  C   UNL     1      34.523  -6.716 -24.783  0.00  0.00    -0.003 C 
ATOM     30  C   UNL     1      32.489  -5.166 -25.896  0.00  0.00    +0.011 C 
ATOM     31  C   UNL     1      34.774  -5.953 -25.922  0.00  0.00    +0.011 C 
ATOM     32  C   UNL     1      33.757  -5.177 -26.479  0.00  0.00    +0.058 C 
ENDBRANCH  19  27
ENDBRANCH   1  19
TORSDOF 3
ENDMDL
MODEL 2
REMARK VINA RESULT:      -8.8     11.194     15.877
REMARK  Name = 16122633
REMARK  3 active torsions:
REMARK  status: ('A' for Active; 'I' for Inactive)
REMARK    1  A    between atoms: C_1  and  C_19
REMARK    2  A    between atoms: C_6  and  C_11
REMARK    3  A    between atoms: C_19  and  C_27
REMARK                            x       y       z     vdW  Elec       q    Type
REMARK                         _______ _______ _______ _____ _____    ______ ____
ROOT
ATOM      1  C   UNL     1      35.237 -23.109 -16.226  0.00  0.00    -0.019 C 
ATOM      2  C   UNL     1      36.333 -22.246 -16.241  0.00  0.00    -0.004 C 
ATOM      3  C   UNL     1      34.373 -23.160 -17.320  0.00  0.00    -0.004 C 
ATOM      4  C   UNL     1      36.565 -21.434 -17.353  0.00  0.00    +0.001 C 
ATOM      5  C   UNL     1      34.605 -22.348 -18.430  0.00  0.00    +0.001 C 
ATOM      6  C   UNL     1      35.701 -21.485 -18.447  0.00  0.00    +0.015 C 
ENDROOT
BRANCH   6  11
ATOM      7  N   UNL     1      37.213 -20.269 -19.870  0.00  0.00    -0.247 NA
ATOM      8  N   UNL     1      33.589 -20.353 -20.489  0.00  0.00    -0.271 NA
ATOM      9  N   UNL     1      36.506 -18.997 -21.826  0.00  0.00    -0.232 NA
ATOM     10  N   UNL     1      34.109 -19.058 -22.227  0.00  0.00    -0.307 N 
ATOM     11  C   UNL     1      35.943 -20.643 -19.598  0.00  0.00    +0.077 C 
ATOM     12  C   UNL     1      34.945 -20.194 -20.440  0.00  0.00    +0.150 C 
ATOM     13  C   UNL     1      35.243 -19.386 -21.529  0.00  0.00    +0.123 C 
ATOM     14  C   UNL     1      37.414 -19.481 -20.952  0.00  0.00    +0.251 C 
ATOM     15  C   UNL     1      33.134 -19.655 -21.576  0.00  0.00    +0.163 C 
ATOM     16  H   UNL     1      33.040 -20.873 -19.859  0.00  0.00    +0.125 HD
ATOM     17  H   UNL     1      34.041 -18.500 -23.035  0.00  0.00    +0.149 HD
ENDBRANCH   6  11
BRANCH   1  19
ATOM     18  N   UNL     1      37.648 -24.854 -13.858  0.00  0.00    +0.384 N 
ATOM     19  C   UNL     1      34.979 -24.012 -14.992  0.00  0.00    +0.034 C 
ATOM     20  C   UNL     1      35.669 -23.397 -13.724  0.00  0.00    -0.015 C 
ATOM     21  C   UNL     1      35.583 -25.457 -15.097  0.00  0.00    -0.015 C 
ATOM     22  C   UNL     1      37.198 -23.469 -13.769  0.00  0.00    -0.081 C 
ATOM     23  C   UNL     1      37.117 -25.505 -15.049  0.00  0.00    -0.081 C 
ATOM     24  H   UNL     1      37.330 -25.361 -13.031  0.00  0.00    -0.085 HD
ATOM     25  H   UNL     1      38.667 -24.860 -13.913  0.00  0.00    -0.085 HD
BRANCH  19  27
ATOM     26 CL   UNL     1      28.975 -24.559 -14.335  0.00  0.00    -0.082 Cl
ATOM     27  C   UNL     1      33.441 -24.152 -14.822  0.00  0.00    -0.019 C 
ATOM     28  C   UNL     1      32.580 -23.406 -15.627  0.00  0.00    -0.003 C 
ATOM     29  C   UNL     1      32.920 -25.025 -13.866  0.00  0.00    -0.003 C 
ATOM     30  C   UNL     1      31.200 -23.531 -15.476  0.00  0.00    +0.011 C 
ATOM     31  C   UNL     1      31.539 -25.151 -13.715  0.00  0.00    +0.011 C 
ATOM     32  C   UNL     1      30.679 -24.404 -14.520  0.00  0.00    +0.058 C 
ENDBRANCH  19  27
ENDBRANCH   1  19
TORSDOF 3
ENDMDL
MODEL 3
REMARK VINA RESULT:      -8.5      0.607      2.039
REMARK  Name = 16122633
REMARK  3 active torsions:
REMARK  status: ('A' for Active; 'I' for Inactive)
REMARK    1  A    between atoms: C_1  and  C_19
REMARK    2  A    between atoms: C_6  and  C_11
REMARK    3  A    between atoms: C_19  and  C_27
REMARK                            x       y       z     vdW  Elec       q    Type
REMARK                         _______ _______ _______ _____ _____    ______ ____
ROOT
ATOM      1  C   UNL     1      33.108  -8.944 -23.107  0.00  0.00    -0.019 C 
ATOM      2  C   UNL     1      34.193  -9.386 -23.865  0.00  0.00    -0.004 C 
ATOM      3  C   UNL     1      32.187  -9.863 -22.605  0.00  0.00    -0.004 C 
ATOM      4  C   UNL     1      34.356 -10.749 -24.120  0.00  0.00    +0.001 C 
ATOM      5  C   UNL     1      32.350 -11.224 -22.861  0.00  0.00    +0.001 C 
ATOM      6  C   UNL     1      33.434 -11.668 -23.618  0.00  0.00    +0.015 C 
ENDROOT
BRANCH   6  11
ATOM      7  N   UNL     1      34.087 -13.868 -22.898  0.00  0.00    -0.247 NA
ATOM      8  N   UNL     1      32.809 -13.221 -26.284  0.00  0.00    -0.271 NA
ATOM      9  N   UNL     1      33.968 -15.850 -24.314  0.00  0.00    -0.232 NA
ATOM     10  N   UNL     1      33.122 -15.412 -26.551  0.00  0.00    -0.307 N 
ATOM     11  C   UNL     1      33.604 -13.080 -23.883  0.00  0.00    +0.077 C 
ATOM     12  C   UNL     1      33.300 -13.673 -25.092  0.00  0.00    +0.150 C 
ATOM     13  C   UNL     1      33.486 -15.035 -25.283  0.00  0.00    +0.123 C 
ATOM     14  C   UNL     1      34.237 -15.186 -23.169  0.00  0.00    +0.251 C 
ATOM     15  C   UNL     1      32.720 -14.298 -27.126  0.00  0.00    +0.163 C 
ATOM     16  H   UNL     1      32.564 -12.292 -26.500  0.00  0.00    +0.125 HD
ATOM     17  H   UNL     1      33.154 -16.314 -26.943  0.00  0.00    +0.149 HD
ENDBRANCH   6  11
BRANCH   1  19
ATOM     18  N   UNL     1      32.090  -7.100 -19.940  0.00  0.00    +0.384 N 
ATOM     19  C   UNL     1      32.927  -7.431 -22.823  0.00  0.00    +0.034 C 
ATOM     20  C   UNL     1      33.864  -6.991 -21.643  0.00  0.00    -0.015 C 
ATOM     21  C   UNL     1      31.490  -7.018 -22.347  0.00  0.00    -0.015 C 
ATOM     22  C   UNL     1      33.434  -7.552 -20.284  0.00  0.00    -0.081 C 
ATOM     23  C   UNL     1      31.120  -7.519 -20.944  0.00  0.00    -0.081 C 
ATOM     24  H   UNL     1      32.087  -6.081 -19.879  0.00  0.00    -0.085 HD
ATOM     25  H   UNL     1      31.829  -7.514 -19.045  0.00  0.00    -0.085 HD
BRANCH  19  27
ATOM     26 CL   UNL     1      34.106  -4.430 -27.959  0.00  0.00    -0.082 Cl
ATOM     27  C   UNL     1      33.230  -6.663 -24.139  0.00  0.00    -0.019 C 
ATOM     28  C   UNL     1      32.229  -5.910 -24.753  0.00  0.00    -0.003 C 
ATOM     29  C   UNL     1      34.502  -6.726 -24.708  0.00  0.00    -0.003 C 
ATOM     30  C   UNL     1      32.500  -5.220 -25.934  0.00  0.00    +0.011 C 
ATOM     31  C   UNL     1      34.774  -6.036 -25.889  0.00  0.00    +0.011 C 
ATOM     32  C   UNL     1      33.772  -5.283 -26.502  0.00  0.00    +0.058 C 
ENDBRANCH  19  27
ENDBRANCH   1  19
TORSDOF 3
ENDMDL
MODEL 4
REMARK VINA RESULT:      -8.4      1.793      2.634
REMARK  Name = 16122633
REMARK  3 active torsions:
REMARK  status: ('A' for Active; 'I' for Inactive)
REMARK    1  A    between atoms: C_1  and  C_19
REMARK    2  A    between atoms: C_6  and  C_11
REMARK    3  A    between atoms: C_19  and  C_27
REMARK                            x       y       z     vdW  Elec       q    Type
REMARK                         _______ _______ _______ _____ _____    ______ ____
ROOT
ATOM      1  C   UNL     1      32.367 -11.167 -22.325  0.00  0.00    -0.019 C 
ATOM      2  C   UNL     1      33.236 -11.107 -23.416  0.00  0.00    -0.004 C 
ATOM      3  C   UNL     1      31.898 -12.400 -21.873  0.00  0.00    -0.004 C 
ATOM      4  C   UNL     1      33.636 -12.283 -24.053  0.00  0.00    +0.001 C 
ATOM      5  C   UNL     1      32.298 -13.575 -22.511  0.00  0.00    +0.001 C 
ATOM      6  C   UNL     1      33.167 -13.516 -23.601  0.00  0.00    +0.015 C 
ENDROOT
BRANCH   6  11
ATOM      7  N   UNL     1      33.201 -14.934 -25.544  0.00  0.00    -0.247 NA
ATOM      8  N   UNL     1      34.907 -15.860 -22.421  0.00  0.00    -0.271 NA
ATOM      9  N   UNL     1      34.347 -17.084 -25.634  0.00  0.00    -0.232 NA
ATOM     10  N   UNL     1      35.472 -17.687 -23.565  0.00  0.00    -0.307 N 
ATOM     11  C   UNL     1      33.582 -14.734 -24.263  0.00  0.00    +0.077 C 
ATOM     12  C   UNL     1      34.350 -15.709 -23.659  0.00  0.00    +0.150 C 
ATOM     13  C   UNL     1      34.714 -16.856 -24.350  0.00  0.00    +0.123 C 
ATOM     14  C   UNL     1      33.601 -16.081 -26.143  0.00  0.00    +0.251 C 
ATOM     15  C   UNL     1      35.570 -17.059 -22.413  0.00  0.00    +0.163 C 
ATOM     16  H   UNL     1      34.845 -15.224 -21.672  0.00  0.00    +0.125 HD
ATOM     17  H   UNL     1      35.858 -18.560 -23.809  0.00  0.00    +0.149 HD
ENDBRANCH   6  11
BRANCH   1  19
ATOM     18  N   UNL     1      31.010 -10.562 -18.824  0.00  0.00    +0.384 N 
ATOM     19  C   UNL     1      31.923  -9.862 -21.616  0.00  0.00    +0.034 C 
ATOM     20  C   UNL     1      32.755  -9.655 -20.302  0.00  0.00    -0.015 C 
ATOM     21  C   UNL     1      30.430  -9.852 -21.131  0.00  0.00    -0.015 C 
ATOM     22  C   UNL     1      32.415 -10.664 -19.202  0.00  0.00    -0.081 C 
ATOM     23  C   UNL     1      30.138 -10.809 -19.967  0.00  0.00    -0.081 C 
ATOM     24  H   UNL     1      30.829  -9.625 -18.464  0.00  0.00    -0.085 HD
ATOM     25  H   UNL     1      30.815 -11.265 -18.111  0.00  0.00    -0.085 HD
BRANCH  19  27
ATOM     26 CL   UNL     1      32.617  -5.295 -25.546  0.00  0.00    -0.082 Cl
ATOM     27  C   UNL     1      32.102  -8.692 -22.623  0.00  0.00    -0.019 C 
ATOM     28  C   UNL     1      31.030  -8.288 -23.419  0.00  0.00    -0.003 C 
ATOM     29  C   UNL     1      33.333  -8.046 -22.732  0.00  0.00    -0.003 C 
ATOM     30  C   UNL     1      31.190  -7.238 -24.323  0.00  0.00    +0.011 C 
ATOM     31  C   UNL     1      33.494  -6.996 -23.636  0.00  0.00    +0.011 C 
ATOM     32  C   UNL     1      32.421  -6.592 -24.432  0.00  0.00    +0.058 C 
ENDBRANCH  19  27
ENDBRANCH   1  19
TORSDOF 3
ENDMDL
MODEL 5
REMARK VINA RESULT:      -8.3      1.507      1.926
REMARK  Name = 16122633
REMARK  3 active torsions:
REMARK  status: ('A' for Active; 'I' for Inactive)
REMARK    1  A    between atoms: C_1  and  C_19
REMARK    2  A    between atoms: C_6  and  C_11
REMARK    3  A    between atoms: C_19  and  C_27
REMARK                            x       y       z     vdW  Elec       q    Type
REMARK                         _______ _______ _______ _____ _____    ______ ____
ROOT
ATOM      1  C   UNL     1      32.594  -8.038 -23.532  0.00  0.00    -0.019 C 
ATOM      2  C   UNL     1      33.835  -8.610 -23.814  0.00  0.00    -0.004 C 
ATOM      3  C   UNL     1      31.501  -8.853 -23.236  0.00  0.00    -0.004 C 
ATOM      4  C   UNL     1      33.982  -9.998 -23.800  0.00  0.00    +0.001 C 
ATOM      5  C   UNL     1      31.649 -10.240 -23.223  0.00  0.00    +0.001 C 
ATOM      6  C   UNL     1      32.889 -10.813 -23.504  0.00  0.00    +0.015 C 
ENDROOT
BRANCH   6  11
ATOM      7  N   UNL     1      33.484 -12.864 -24.612  0.00  0.00    -0.247 NA
ATOM      8  N   UNL     1      32.312 -12.795 -21.127  0.00  0.00    -0.271 NA
ATOM      9  N   UNL     1      33.372 -15.059 -23.555  0.00  0.00    -0.232 NA
ATOM     10  N   UNL     1      32.596 -15.003 -21.251  0.00  0.00    -0.307 N 
ATOM     11  C   UNL     1      33.043 -12.251 -23.491  0.00  0.00    +0.077 C 
ATOM     12  C   UNL     1      32.762 -13.040 -22.394  0.00  0.00    +0.150 C 
ATOM     13  C   UNL     1      32.931 -14.417 -22.446  0.00  0.00    +0.123 C 
ATOM     14  C   UNL     1      33.621 -14.211 -24.575  0.00  0.00    +0.251 C 
ATOM     15  C   UNL     1      32.229 -14.001 -20.481  0.00  0.00    +0.163 C 
ATOM     16  H   UNL     1      32.089 -11.914 -20.748  0.00  0.00    +0.125 HD
ATOM     17  H   UNL     1      32.624 -15.959 -21.021  0.00  0.00    +0.149 HD
ENDBRANCH   6  11
BRANCH   1  19
ATOM     18  N   UNL     1      30.842  -5.688 -21.108  0.00  0.00    +0.384 N 
ATOM     19  C   UNL     1      32.430  -6.497 -23.546  0.00  0.00    +0.034 C 
ATOM     20  C   UNL     1      33.024  -5.882 -22.230  0.00  0.00    -0.015 C 
ATOM     21  C   UNL     1      30.944  -5.993 -23.569  0.00  0.00    -0.015 C 
ATOM     22  C   UNL     1      32.199  -6.208 -20.981  0.00  0.00    -0.081 C 
ATOM     23  C   UNL     1      30.168  -6.254 -22.271  0.00  0.00    -0.081 C 
ATOM     24  H   UNL     1      30.882  -4.674 -21.207  0.00  0.00    -0.085 HD
ATOM     25  H   UNL     1      30.317  -5.947 -20.273  0.00  0.00    -0.085 HD
BRANCH  19  27
ATOM     26 CL   UNL     1      35.174  -4.391 -28.527  0.00  0.00    -0.082 Cl
ATOM     27  C   UNL     1      33.134  -5.959 -24.822  0.00  0.00    -0.019 C 
ATOM     28  C   UNL     1      32.453  -5.099 -25.684  0.00  0.00    -0.003 C 
ATOM     29  C   UNL     1      34.447  -6.334 -25.108  0.00  0.00    -0.003 C 
ATOM     30  C   UNL     1      33.083  -4.615 -26.829  0.00  0.00    +0.011 C 
ATOM     31  C   UNL     1      35.078  -5.851 -26.253  0.00  0.00    +0.011 C 
ATOM     32  C   UNL     1      34.396  -4.991 -27.114  0.00  0.00    +0.058 C 
ENDBRANCH  19  27
ENDBRANCH   1  19
TORSDOF 3
ENDMDL
MODEL 6
REMARK VINA RESULT:      -8.3      4.352      6.912
REMARK  Name = 16122633
REMARK  3 active torsions:
REMARK  status: ('A' for Active; 'I' for Inactive)
REMARK    1  A    between atoms: C_1  and  C_19
REMARK    2  A    between atoms: C_6  and  C_11
REMARK    3  A    between atoms: C_19  and  C_27
REMARK                            x       y       z     vdW  Elec       q    Type
REMARK                         _______ _______ _______ _____ _____    ______ ____
ROOT
ATOM      1  C   UNL     1      33.647 -14.532 -23.180  0.00  0.00    -0.019 C 
ATOM      2  C   UNL     1      34.061 -14.566 -21.848  0.00  0.00    -0.004 C 
ATOM      3  C   UNL     1      33.785 -15.665 -23.982  0.00  0.00    -0.004 C 
ATOM      4  C   UNL     1      34.612 -15.734 -21.319  0.00  0.00    +0.001 C 
ATOM      5  C   UNL     1      34.336 -16.831 -23.453  0.00  0.00    +0.001 C 
ATOM      6  C   UNL     1      34.749 -16.866 -22.121  0.00  0.00    +0.015 C 
ENDROOT
BRANCH   6  11
ATOM      7  N   UNL     1      36.662 -18.238 -21.624  0.00  0.00    -0.247 NA
ATOM      8  N   UNL     1      33.240 -19.274 -20.764  0.00  0.00    -0.271 NA
ATOM      9  N   UNL     1      36.525 -20.409 -20.522  0.00  0.00    -0.232 NA
ATOM     10  N   UNL     1      34.259 -21.085 -19.957  0.00  0.00    -0.307 N 
ATOM     11  C   UNL     1      35.321 -18.076 -21.571  0.00  0.00    +0.077 C 
ATOM     12  C   UNL     1      34.573 -19.082 -20.993  0.00  0.00    +0.150 C 
ATOM     13  C   UNL     1      35.184 -20.219 -20.484  0.00  0.00    +0.123 C 
ATOM     14  C   UNL     1      37.175 -19.378 -21.103  0.00  0.00    +0.251 C 
ATOM     15  C   UNL     1      33.101 -20.486 -20.142  0.00  0.00    +0.163 C 
ATOM     16  H   UNL     1      32.512 -18.654 -21.002  0.00  0.00    +0.125 HD
ATOM     17  H   UNL     1      34.424 -21.959 -19.536  0.00  0.00    +0.149 HD
ENDBRANCH   6  11
BRANCH   1  19
ATOM     18  N   UNL     1      33.419 -13.277 -26.764  0.00  0.00    +0.384 N 
ATOM     19  C   UNL     1      33.034 -13.235 -23.769  0.00  0.00    +0.034 C 
ATOM     20  C   UNL     1      31.933 -13.595 -24.828  0.00  0.00    -0.015 C 
ATOM     21  C   UNL     1      34.045 -12.329 -24.557  0.00  0.00    -0.015 C 
ATOM     22  C   UNL     1      32.501 -14.206 -26.112  0.00  0.00    -0.081 C 
ATOM     23  C   UNL     1      34.529 -12.928 -25.884  0.00  0.00    -0.081 C 
ATOM     24  H   UNL     1      32.912 -12.428 -27.013  0.00  0.00    -0.085 HD
ATOM     25  H   UNL     1      33.797 -13.728 -27.597  0.00  0.00    -0.085 HD
BRANCH  19  27
ATOM     26 CL   UNL     1      30.837  -9.979 -19.148  0.00  0.00    -0.082 Cl
ATOM     27  C   UNL     1      32.470 -12.400 -22.586  0.00  0.00    -0.019 C 
ATOM     28  C   UNL     1      32.082 -13.036 -21.407  0.00  0.00    -0.003 C 
ATOM     29  C   UNL     1      32.353 -11.015 -22.702  0.00  0.00    -0.003 C 
ATOM     30  C   UNL     1      31.576 -12.288 -20.345  0.00  0.00    +0.011 C 
ATOM     31  C   UNL     1      31.848 -10.266 -21.640  0.00  0.00    +0.011 C 
ATOM     32  C   UNL     1      31.459 -10.902 -20.460  0.00  0.00    +0.058 C 
ENDBRANCH  19  27
ENDBRANCH   1  19
TORSDOF 3
ENDMDL
MODEL 7
REMARK VINA RESULT:      -8.2      4.616      8.118
REMARK  Name = 16122633
REMARK  3 active torsions:
REMARK  status: ('A' for Active; 'I' for Inactive)
REMARK    1  A    between atoms: C_1  and  C_19
REMARK    2  A    between atoms: C_6  and  C_11
REMARK    3  A    between atoms: C_19  and  C_27
REMARK                            x       y       z     vdW  Elec       q    Type
REMARK                         _______ _______ _______ _____ _____    ______ ____
ROOT
ATOM      1  C   UNL     1      32.999  -6.906 -24.045  0.00  0.00    -0.019 C 
ATOM      2  C   UNL     1      34.366  -7.024 -24.299  0.00  0.00    -0.004 C 
ATOM      3  C   UNL     1      32.210  -6.079 -24.844  0.00  0.00    -0.004 C 
ATOM      4  C   UNL     1      34.943  -6.314 -25.353  0.00  0.00    +0.001 C 
ATOM      5  C   UNL     1      32.787  -5.370 -25.897  0.00  0.00    +0.001 C 
ATOM      6  C   UNL     1      34.154  -5.487 -26.152  0.00  0.00    +0.015 C 
ENDROOT
BRANCH   6  11
ATOM      7  N   UNL     1      36.099  -4.764 -27.369  0.00  0.00    -0.247 NA
ATOM      8  N   UNL     1      32.697  -3.788 -28.367  0.00  0.00    -0.271 NA
ATOM      9  N   UNL     1      36.010  -3.340 -29.347  0.00  0.00    -0.232 NA
ATOM     10  N   UNL     1      33.756  -2.701 -29.999  0.00  0.00    -0.307 N 
ATOM     11  C   UNL     1      34.753  -4.751 -27.244  0.00  0.00    +0.077 C 
ATOM     12  C   UNL     1      34.027  -4.031 -28.171  0.00  0.00    +0.150 C 
ATOM     13  C   UNL     1      34.663  -3.345 -29.196  0.00  0.00    +0.123 C 
ATOM     14  C   UNL     1      36.637  -4.068 -28.399  0.00  0.00    +0.251 C 
ATOM     15  C   UNL     1      32.584  -2.987 -29.473  0.00  0.00    +0.163 C 
ATOM     16  H   UNL     1      31.954  -4.126 -27.815  0.00  0.00    +0.125 HD
ATOM     17  H   UNL     1      33.941  -2.147 -30.791  0.00  0.00    +0.149 HD
ENDBRANCH   6  11
BRANCH   1  19
ATOM     18  N   UNL     1      31.045  -5.720 -21.005  0.00  0.00    +0.384 N 
ATOM     19  C   UNL     1      32.357  -7.695 -22.875  0.00  0.00    +0.034 C 
ATOM     20  C   UNL     1      30.820  -7.388 -22.800  0.00  0.00    -0.015 C 
ATOM     21  C   UNL     1      32.895  -7.314 -21.451  0.00  0.00    -0.015 C 
ATOM     22  C   UNL     1      30.507  -5.962 -22.339  0.00  0.00    -0.081 C 
ATOM     23  C   UNL     1      32.491  -5.911 -20.977  0.00  0.00    -0.081 C 
ATOM     24  H   UNL     1      30.611  -6.370 -20.348  0.00  0.00    -0.085 HD
ATOM     25  H   UNL     1      30.842  -4.756 -20.743  0.00  0.00    -0.085 HD
BRANCH  19  27
ATOM     26 CL   UNL     1      33.499 -13.583 -23.774  0.00  0.00    -0.082 Cl
ATOM     27  C   UNL     1      32.651  -9.204 -23.105  0.00  0.00    -0.019 C 
ATOM     28  C   UNL     1      31.944 -10.169 -22.388  0.00  0.00    -0.003 C 
ATOM     29  C   UNL     1      33.621  -9.594 -24.030  0.00  0.00    -0.003 C 
ATOM     30  C   UNL     1      32.207 -11.522 -22.594  0.00  0.00    +0.011 C 
ATOM     31  C   UNL     1      33.884 -10.947 -24.236  0.00  0.00    +0.011 C 
ATOM     32  C   UNL     1      33.176 -11.912 -23.518  0.00  0.00    +0.058 C 
ENDBRANCH  19  27
ENDBRANCH   1  19
TORSDOF 3
ENDMDL
MODEL 8
REMARK VINA RESULT:      -8.1     11.673     16.276
REMARK  Name = 16122633
REMARK  3 active torsions:
REMARK  status: ('A' for Active; 'I' for Inactive)
REMARK    1  A    between atoms: C_1  and  C_19
REMARK    2  A    between atoms: C_6  and  C_11
REMARK    3  A    between atoms: C_19  and  C_27
REMARK                            x       y       z     vdW  Elec       q    Type
REMARK                         _______ _______ _______ _____ _____    ______ ____
ROOT
ATOM      1  C   UNL     1      34.145 -23.452 -15.965  0.00  0.00    -0.019 C 
ATOM      2  C   UNL     1      32.940 -23.325 -16.658  0.00  0.00    -0.004 C 
ATOM      3  C   UNL     1      35.291 -22.813 -16.437  0.00  0.00    -0.004 C 
ATOM      4  C   UNL     1      32.883 -22.558 -17.823  0.00  0.00    +0.001 C 
ATOM      5  C   UNL     1      35.234 -22.047 -17.602  0.00  0.00    +0.001 C 
ATOM      6  C   UNL     1      34.030 -21.920 -18.295  0.00  0.00    +0.015 C 
ENDROOT
BRANCH   6  11
ATOM      7  N   UNL     1      32.781 -20.998 -20.133  0.00  0.00    -0.247 NA
ATOM      8  N   UNL     1      36.383 -20.386 -19.718  0.00  0.00    -0.271 NA
ATOM      9  N   UNL     1      33.760 -19.594 -21.870  0.00  0.00    -0.232 NA
ATOM     10  N   UNL     1      36.141 -19.195 -21.586  0.00  0.00    -0.307 N 
ATOM     11  C   UNL     1      33.970 -21.126 -19.503  0.00  0.00    +0.077 C 
ATOM     12  C   UNL     1      35.063 -20.488 -20.054  0.00  0.00    +0.150 C 
ATOM     13  C   UNL     1      34.938 -19.740 -21.217  0.00  0.00    +0.123 C 
ATOM     14  C   UNL     1      32.749 -20.250 -21.261  0.00  0.00    +0.251 C 
ATOM     15  C   UNL     1      36.988 -19.603 -20.665  0.00  0.00    +0.163 C 
ATOM     16  H   UNL     1      36.820 -20.800 -18.938  0.00  0.00    +0.125 HD
ATOM     17  H   UNL     1      36.330 -18.627 -22.367  0.00  0.00    +0.149 HD
ENDBRANCH   6  11
BRANCH   1  19
ATOM     18  N   UNL     1      31.446 -24.385 -13.453  0.00  0.00    +0.384 N 
ATOM     19  C   UNL     1      34.208 -24.302 -14.671  0.00  0.00    +0.034 C 
ATOM     20  C   UNL     1      33.201 -25.502 -14.767  0.00  0.00    -0.015 C 
ATOM     21  C   UNL     1      33.780 -23.544 -13.364  0.00  0.00    -0.015 C 
ATOM     22  C   UNL     1      31.734 -25.070 -14.708  0.00  0.00    -0.081 C 
ATOM     23  C   UNL     1      32.286 -23.203 -13.293  0.00  0.00    -0.081 C 
ATOM     24  H   UNL     1      31.621 -25.024 -12.677  0.00  0.00    -0.085 HD
ATOM     25  H   UNL     1      30.470 -24.089 -13.461  0.00  0.00    -0.085 HD
BRANCH  19  27
ATOM     26 CL   UNL     1      39.943 -26.141 -13.957  0.00  0.00    -0.082 Cl
ATOM     27  C   UNL     1      35.678 -24.773 -14.486  0.00  0.00    -0.019 C 
ATOM     28  C   UNL     1      36.124 -25.928 -15.126  0.00  0.00    -0.003 C 
ATOM     29  C   UNL     1      36.550 -24.040 -13.681  0.00  0.00    -0.003 C 
ATOM     30  C   UNL     1      37.443 -26.351 -14.962  0.00  0.00    +0.011 C 
ATOM     31  C   UNL     1      37.869 -24.463 -13.517  0.00  0.00    +0.011 C 
ATOM     32  C   UNL     1      38.316 -25.619 -14.158  0.00  0.00    +0.058 C 
ENDBRANCH  19  27
ENDBRANCH   1  19
TORSDOF 3
ENDMDL
MODEL 9
REMARK VINA RESULT:      -8.1     11.721     16.572
REMARK  Name = 16122633
REMARK  3 active torsions:
REMARK  status: ('A' for Active; 'I' for Inactive)
REMARK    1  A    between atoms: C_1  and  C_19
REMARK    2  A    between atoms: C_6  and  C_11
REMARK    3  A    between atoms: C_19  and  C_27
REMARK                            x       y       z     vdW  Elec       q    Type
REMARK                         _______ _______ _______ _____ _____    ______ ____
ROOT
ATOM      1  C   UNL     1      35.567 -23.430 -15.846  0.00  0.00    -0.019 C 
ATOM      2  C   UNL     1      36.680 -22.623 -16.085  0.00  0.00    -0.004 C 
ATOM      3  C   UNL     1      34.490 -23.413 -16.733  0.00  0.00    -0.004 C 
ATOM      4  C   UNL     1      36.716 -21.800 -17.212  0.00  0.00    +0.001 C 
ATOM      5  C   UNL     1      34.527 -22.590 -17.859  0.00  0.00    +0.001 C 
ATOM      6  C   UNL     1      35.640 -21.784 -18.098  0.00  0.00    +0.015 C 
ENDROOT
BRANCH   6  11
ATOM      7  N   UNL     1      36.875 -20.464 -19.685  0.00  0.00    -0.247 NA
ATOM      8  N   UNL     1      33.219 -20.820 -19.867  0.00  0.00    -0.271 NA
ATOM      9  N   UNL     1      35.846 -19.255 -21.537  0.00  0.00    -0.232 NA
ATOM     10  N   UNL     1      33.430 -19.497 -21.649  0.00  0.00    -0.307 N 
ATOM     11  C   UNL     1      35.678 -20.930 -19.266  0.00  0.00    +0.077 C 
ATOM     12  C   UNL     1      34.556 -20.560 -19.980  0.00  0.00    +0.150 C 
ATOM     13  C   UNL     1      34.661 -19.737 -21.092  0.00  0.00    +0.123 C 
ATOM     14  C   UNL     1      36.886 -19.667 -20.780  0.00  0.00    +0.251 C 
ATOM     15  C   UNL     1      32.586 -20.163 -20.889  0.00  0.00    +0.163 C 
ATOM     16  H   UNL     1      32.790 -21.379 -19.179  0.00  0.00    +0.125 HD
ATOM     17  H   UNL     1      33.223 -18.949 -22.440  0.00  0.00    +0.149 HD
ENDBRANCH   6  11
BRANCH   1  19
ATOM     18  N   UNL     1      32.726 -24.287 -13.467  0.00  0.00    +0.384 N 
ATOM     19  C   UNL     1      35.527 -24.345 -14.595  0.00  0.00    +0.034 C 
ATOM     20  C   UNL     1      34.441 -25.463 -14.783  0.00  0.00    -0.015 C 
ATOM     21  C   UNL     1      35.110 -23.623 -13.266  0.00  0.00    -0.015 C 
ATOM     22  C   UNL     1      33.007 -24.929 -14.746  0.00  0.00    -0.081 C 
ATOM     23  C   UNL     1      33.641 -23.178 -13.221  0.00  0.00    -0.081 C 
ATOM     24  H   UNL     1      32.829 -24.975 -12.720  0.00  0.00    -0.085 HD
ATOM     25  H   UNL     1      31.774 -23.922 -13.489  0.00  0.00    -0.085 HD
BRANCH  19  27
ATOM     26 CL   UNL     1      41.090 -26.625 -13.806  0.00  0.00    -0.082 Cl
ATOM     27  C   UNL     1      36.952 -24.929 -14.392  0.00  0.00    -0.019 C 
ATOM     28  C   UNL     1      37.380 -26.008 -15.165  0.00  0.00    -0.003 C 
ATOM     29  C   UNL     1      37.804 -24.375 -13.436  0.00  0.00    -0.003 C 
ATOM     30  C   UNL     1      38.659 -26.533 -14.983  0.00  0.00    +0.011 C 
ATOM     31  C   UNL     1      39.084 -24.899 -13.254  0.00  0.00    +0.011 C 
ATOM     32  C   UNL     1      39.511 -25.979 -14.028  0.00  0.00    +0.058 C 
ENDBRANCH  19  27
ENDBRANCH   1  19
TORSDOF 3
ENDMDL
