MODEL 1
REMARK VINA RESULT:      -8.6      0.000      0.000
REMARK  Name = 6323266
REMARK  2 active torsions:
REMARK  status: ('A' for Active; 'I' for Inactive)
REMARK    1  A    between atoms: C_6  and  C_12
REMARK    2  A    between atoms: C_12  and  N_13
REMARK                            x       y       z     vdW  Elec       q    Type
REMARK                         _______ _______ _______ _____ _____    ______ ____
ROOT
ATOM      1 CL   UNL     1      34.666 -15.871 -20.333  0.00  0.00    -0.076 Cl
ATOM      2  O   UNL     1      33.482 -14.389 -22.589  0.00  0.00    -0.266 OA
ATOM      3  O   UNL     1      34.809 -17.228 -25.964  0.00  0.00    -0.247 OA
ATOM      4  N   UNL     1      35.376 -17.720 -23.792  0.00  0.00    -0.308 N 
ATOM      5  N   UNL     1      34.141 -15.799 -24.284  0.00  0.00    -0.274 N 
ATOM      6  C   UNL     1      35.362 -17.428 -22.444  0.00  0.00    +0.073 A 
ATOM      7  C   UNL     1      34.741 -16.324 -21.995  0.00  0.00    +0.127 A 
ATOM      8  C   UNL     1      34.062 -15.407 -22.956  0.00  0.00    +0.273 A 
ATOM      9  C   UNL     1      34.779 -16.939 -24.766  0.00  0.00    +0.327 A 
ATOM     10  H   UNL     1      35.842 -18.539 -24.080  0.00  0.00    +0.170 HD
ATOM     11  H   UNL     1      33.705 -15.218 -24.948  0.00  0.00    +0.173 HD
ENDROOT
BRANCH   6  12
ATOM     12  C   UNL     1      36.075 -18.423 -21.602  0.00  0.00    +0.137 C 
BRANCH  12  13
ATOM     13  N   UNL     1      35.115 -19.307 -20.990  0.00  0.00    -0.292 N 
ATOM     14  N   UNL     1      36.502 -20.654 -19.526  0.00  0.00    -0.289 NA
ATOM     15  C   UNL     1      33.749 -19.370 -21.481  0.00  0.00    +0.093 C 
ATOM     16  C   UNL     1      33.058 -20.216 -20.410  0.00  0.00    +0.029 C 
ATOM     17  C   UNL     1      34.148 -21.148 -19.878  0.00  0.00    +0.062 C 
ATOM     18  C   UNL     1      35.397 -20.328 -20.106  0.00  0.00    +0.100 C 
ATOM     19  H   UNL     1      37.313 -20.118 -19.676  0.00  0.00    +0.188 HD
ENDBRANCH  12  13
ENDBRANCH   6  12
TORSDOF 2
ENDMDL
MODEL 2
REMARK VINA RESULT:      -8.6      9.308     11.073
REMARK  Name = 6323266
REMARK  2 active torsions:
REMARK  status: ('A' for Active; 'I' for Inactive)
REMARK    1  A    between atoms: C_6  and  C_12
REMARK    2  A    between atoms: C_12  and  N_13
REMARK                            x       y       z     vdW  Elec       q    Type
REMARK                         _______ _______ _______ _____ _____    ______ ____
ROOT
ATOM      1 CL   UNL     1      36.172 -23.539 -11.811  0.00  0.00    -0.076 Cl
ATOM      2  O   UNL     1      37.166 -26.312 -11.700  0.00  0.00    -0.266 OA
ATOM      3  O   UNL     1      36.715 -27.315 -16.171  0.00  0.00    -0.247 OA
ATOM      4  N   UNL     1      36.115 -25.227 -15.421  0.00  0.00    -0.308 N 
ATOM      5  N   UNL     1      36.943 -26.825 -13.931  0.00  0.00    -0.274 N 
ATOM      6  C   UNL     1      35.974 -24.303 -14.407  0.00  0.00    +0.073 A 
ATOM      7  C   UNL     1      36.312 -24.621 -13.146  0.00  0.00    +0.127 A 
ATOM      8  C   UNL     1      36.844 -25.979 -12.837  0.00  0.00    +0.273 A 
ATOM      9  C   UNL     1      36.598 -26.512 -15.244  0.00  0.00    +0.327 A 
ATOM     10  H   UNL     1      35.857 -24.954 -16.332  0.00  0.00    +0.170 HD
ATOM     11  H   UNL     1      37.290 -27.731 -13.766  0.00  0.00    +0.173 HD
ENDROOT
BRANCH   6  12
ATOM     12  C   UNL     1      35.433 -22.993 -14.855  0.00  0.00    +0.137 C 
BRANCH  12  13
ATOM     13  N   UNL     1      34.064 -23.160 -15.278  0.00  0.00    -0.292 N 
ATOM     14  N   UNL     1      32.894 -23.437 -13.173  0.00  0.00    -0.289 NA
ATOM     15  C   UNL     1      33.743 -23.347 -16.683  0.00  0.00    +0.093 C 
ATOM     16  C   UNL     1      32.218 -23.229 -16.684  0.00  0.00    +0.029 C 
ATOM     17  C   UNL     1      31.780 -23.741 -15.311  0.00  0.00    +0.062 C 
ATOM     18  C   UNL     1      32.985 -23.416 -14.460  0.00  0.00    +0.100 C 
ATOM     19  H   UNL     1      33.681 -23.225 -12.621  0.00  0.00    +0.188 HD
ENDBRANCH  12  13
ENDBRANCH   6  12
TORSDOF 2
ENDMDL
MODEL 3
REMARK VINA RESULT:      -8.5      9.636     11.568
REMARK  Name = 6323266
REMARK  2 active torsions:
REMARK  status: ('A' for Active; 'I' for Inactive)
REMARK    1  A    between atoms: C_6  and  C_12
REMARK    2  A    between atoms: C_12  and  N_13
REMARK                            x       y       z     vdW  Elec       q    Type
REMARK                         _______ _______ _______ _____ _____    ______ ____
ROOT
ATOM      1 CL   UNL     1      37.428 -22.889 -14.819  0.00  0.00    -0.076 Cl
ATOM      2  O   UNL     1      38.231 -22.175 -12.074  0.00  0.00    -0.266 OA
ATOM      3  O   UNL     1      35.269 -24.895  -9.831  0.00  0.00    -0.247 OA
ATOM      4  N   UNL     1      35.265 -24.882 -12.129  0.00  0.00    -0.308 N 
ATOM      5  N   UNL     1      36.754 -23.529 -10.943  0.00  0.00    -0.274 N 
ATOM      6  C   UNL     1      35.755 -24.427 -13.335  0.00  0.00    +0.073 A 
ATOM      7  C   UNL     1      36.747 -23.520 -13.366  0.00  0.00    +0.127 A 
ATOM      8  C   UNL     1      37.324 -23.002 -12.092  0.00  0.00    +0.273 A 
ATOM      9  C   UNL     1      35.727 -24.468 -10.892  0.00  0.00    +0.327 A 
ATOM     10  H   UNL     1      34.538 -25.547 -12.149  0.00  0.00    +0.170 HD
ATOM     11  H   UNL     1      37.108 -23.210 -10.082  0.00  0.00    +0.173 HD
ENDROOT
BRANCH   6  12
ATOM     12  C   UNL     1      35.091 -25.024 -14.522  0.00  0.00    +0.137 C 
BRANCH  12  13
ATOM     13  N   UNL     1      33.877 -24.299 -14.807  0.00  0.00    -0.292 N 
ATOM     14  N   UNL     1      32.333 -25.196 -13.167  0.00  0.00    -0.289 NA
ATOM     15  C   UNL     1      33.771 -23.477 -16.001  0.00  0.00    +0.093 C 
ATOM     16  C   UNL     1      32.457 -22.730 -15.762  0.00  0.00    +0.029 C 
ATOM     17  C   UNL     1      31.604 -23.686 -14.926  0.00  0.00    +0.062 C 
ATOM     18  C   UNL     1      32.658 -24.478 -14.189  0.00  0.00    +0.100 C 
ATOM     19  H   UNL     1      33.022 -25.711 -12.688  0.00  0.00    +0.188 HD
ENDBRANCH  12  13
ENDBRANCH   6  12
TORSDOF 2
ENDMDL
MODEL 4
REMARK VINA RESULT:      -8.4      1.937      2.662
REMARK  Name = 6323266
REMARK  2 active torsions:
REMARK  status: ('A' for Active; 'I' for Inactive)
REMARK    1  A    between atoms: C_6  and  C_12
REMARK    2  A    between atoms: C_12  and  N_13
REMARK                            x       y       z     vdW  Elec       q    Type
REMARK                         _______ _______ _______ _____ _____    ______ ____
ROOT
ATOM      1 CL   UNL     1      34.991 -19.033 -24.285  0.00  0.00    -0.076 Cl
ATOM      2  O   UNL     1      34.016 -16.259 -24.497  0.00  0.00    -0.266 OA
ATOM      3  O   UNL     1      34.746 -15.007 -20.126  0.00  0.00    -0.247 OA
ATOM      4  N   UNL     1      35.280 -17.142 -20.788  0.00  0.00    -0.308 N 
ATOM      5  N   UNL     1      34.375 -15.623 -22.315  0.00  0.00    -0.274 N 
ATOM      6  C   UNL     1      35.353 -18.124 -21.754  0.00  0.00    +0.073 A 
ATOM      7  C   UNL     1      34.941 -17.875 -23.008  0.00  0.00    +0.127 A 
ATOM      8  C   UNL     1      34.402 -16.531 -23.363  0.00  0.00    +0.273 A 
ATOM      9  C   UNL     1      34.798 -15.864 -21.010  0.00  0.00    +0.327 A 
ATOM     10  H   UNL     1      35.592 -17.365 -19.880  0.00  0.00    +0.170 HD
ATOM     11  H   UNL     1      34.024 -14.725 -22.511  0.00  0.00    +0.173 HD
ENDROOT
BRANCH   6  12
ATOM     12  C   UNL     1      35.908 -19.413 -21.264  0.00  0.00    +0.137 C 
BRANCH  12  13
ATOM     13  N   UNL     1      34.889 -20.126 -20.535  0.00  0.00    -0.292 N 
ATOM     14  N   UNL     1      36.193 -21.609 -19.127  0.00  0.00    -0.289 NA
ATOM     15  C   UNL     1      33.490 -20.006 -20.910  0.00  0.00    +0.093 C 
ATOM     16  C   UNL     1      32.783 -20.706 -19.747  0.00  0.00    +0.029 C 
ATOM     17  C   UNL     1      33.771 -21.767 -19.263  0.00  0.00    +0.062 C 
ATOM     18  C   UNL     1      35.099 -21.146 -19.630  0.00  0.00    +0.100 C 
ATOM     19  H   UNL     1      37.056 -21.202 -19.368  0.00  0.00    +0.188 HD
ENDBRANCH  12  13
ENDBRANCH   6  12
TORSDOF 2
ENDMDL
MODEL 5
REMARK VINA RESULT:      -7.9      1.885      2.613
REMARK  Name = 6323266
REMARK  2 active torsions:
REMARK  status: ('A' for Active; 'I' for Inactive)
REMARK    1  A    between atoms: C_6  and  C_12
REMARK    2  A    between atoms: C_12  and  N_13
REMARK                            x       y       z     vdW  Elec       q    Type
REMARK                         _______ _______ _______ _____ _____    ______ ____
ROOT
ATOM      1 CL   UNL     1      35.113 -17.145 -24.954  0.00  0.00    -0.076 Cl
ATOM      2  O   UNL     1      33.271 -14.861 -24.673  0.00  0.00    -0.266 OA
ATOM      3  O   UNL     1      32.906 -14.917 -20.083  0.00  0.00    -0.247 OA
ATOM      4  N   UNL     1      34.237 -16.475 -21.124  0.00  0.00    -0.308 N 
ATOM      5  N   UNL     1      33.080 -14.880 -22.380  0.00  0.00    -0.274 N 
ATOM      6  C   UNL     1      34.781 -17.030 -22.264  0.00  0.00    +0.073 A 
ATOM      7  C   UNL     1      34.486 -16.524 -23.473  0.00  0.00    +0.127 A 
ATOM      8  C   UNL     1      33.567 -15.355 -23.588  0.00  0.00    +0.273 A 
ATOM      9  C   UNL     1      33.375 -15.392 -21.119  0.00  0.00    +0.327 A 
ATOM     10  H   UNL     1      34.478 -16.875 -20.257  0.00  0.00    +0.170 HD
ATOM     11  H   UNL     1      32.469 -14.110 -22.416  0.00  0.00    +0.173 HD
ENDROOT
BRANCH   6  12
ATOM     12  C   UNL     1      35.677 -18.187 -22.004  0.00  0.00    +0.137 C 
BRANCH  12  13
ATOM     13  N   UNL     1      34.970 -19.174 -21.225  0.00  0.00    -0.292 N 
ATOM     14  N   UNL     1      36.751 -20.194 -19.933  0.00  0.00    -0.289 NA
ATOM     15  C   UNL     1      33.579 -19.481 -21.508  0.00  0.00    +0.093 C 
ATOM     16  C   UNL     1      33.193 -20.360 -20.316  0.00  0.00    +0.029 C 
ATOM     17  C   UNL     1      34.485 -21.074 -19.917  0.00  0.00    +0.062 C 
ATOM     18  C   UNL     1      35.537 -20.082 -20.356  0.00  0.00    +0.100 C 
ATOM     19  H   UNL     1      37.434 -19.546 -20.221  0.00  0.00    +0.188 HD
ENDBRANCH  12  13
ENDBRANCH   6  12
TORSDOF 2
ENDMDL
MODEL 6
REMARK VINA RESULT:      -7.8      9.423     10.932
REMARK  Name = 6323266
REMARK  2 active torsions:
REMARK  status: ('A' for Active; 'I' for Inactive)
REMARK    1  A    between atoms: C_6  and  C_12
REMARK    2  A    between atoms: C_12  and  N_13
REMARK                            x       y       z     vdW  Elec       q    Type
REMARK                         _______ _______ _______ _____ _____    ______ ____
ROOT
ATOM      1 CL   UNL     1      33.746 -23.602 -16.939  0.00  0.00    -0.076 Cl
ATOM      2  O   UNL     1      35.998 -25.134 -15.811  0.00  0.00    -0.266 OA
ATOM      3  O   UNL     1      34.866 -24.723 -11.366  0.00  0.00    -0.247 OA
ATOM      4  N   UNL     1      33.531 -23.747 -12.961  0.00  0.00    -0.308 N 
ATOM      5  N   UNL     1      35.443 -24.933 -13.587  0.00  0.00    -0.274 N 
ATOM      6  C   UNL     1      33.234 -23.461 -14.277  0.00  0.00    +0.073 A 
ATOM      7  C   UNL     1      34.030 -23.904 -15.265  0.00  0.00    +0.127 A 
ATOM      8  C   UNL     1      35.243 -24.709 -14.940  0.00  0.00    +0.273 A 
ATOM      9  C   UNL     1      34.628 -24.483 -12.551  0.00  0.00    +0.327 A 
ATOM     10  H   UNL     1      32.921 -23.404 -12.267  0.00  0.00    +0.170 HD
ATOM     11  H   UNL     1      36.235 -25.460 -13.334  0.00  0.00    +0.173 HD
ENDROOT
BRANCH   6  12
ATOM     12  C   UNL     1      32.000 -22.652 -14.457  0.00  0.00    +0.137 C 
BRANCH  12  13
ATOM     13  N   UNL     1      30.922 -23.512 -14.880  0.00  0.00    -0.292 N 
ATOM     14  N   UNL     1      30.191 -22.462 -16.939  0.00  0.00    -0.289 NA
ATOM     15  C   UNL     1      30.405 -24.540 -13.993  0.00  0.00    +0.093 C 
ATOM     16  C   UNL     1      29.485 -25.335 -14.921  0.00  0.00    +0.029 C 
ATOM     17  C   UNL     1      28.977 -24.316 -15.943  0.00  0.00    +0.062 C 
ATOM     18  C   UNL     1      30.115 -23.322 -15.982  0.00  0.00    +0.100 C 
ATOM     19  H   UNL     1      30.934 -21.815 -16.962  0.00  0.00    +0.188 HD
ENDBRANCH  12  13
ENDBRANCH   6  12
TORSDOF 2
ENDMDL
MODEL 7
REMARK VINA RESULT:      -7.8      8.384     10.761
REMARK  Name = 6323266
REMARK  2 active torsions:
REMARK  status: ('A' for Active; 'I' for Inactive)
REMARK    1  A    between atoms: C_6  and  C_12
REMARK    2  A    between atoms: C_12  and  N_13
REMARK                            x       y       z     vdW  Elec       q    Type
REMARK                         _______ _______ _______ _____ _____    ______ ____
ROOT
ATOM      1 CL   UNL     1      35.642 -23.698 -11.833  0.00  0.00    -0.076 Cl
ATOM      2  O   UNL     1      37.191 -26.203 -11.706  0.00  0.00    -0.266 OA
ATOM      3  O   UNL     1      36.853 -27.370 -16.147  0.00  0.00    -0.247 OA
ATOM      4  N   UNL     1      35.851 -25.436 -15.414  0.00  0.00    -0.308 N 
ATOM      5  N   UNL     1      37.027 -26.797 -13.922  0.00  0.00    -0.274 N 
ATOM      6  C   UNL     1      35.545 -24.541 -14.411  0.00  0.00    +0.073 A 
ATOM      7  C   UNL     1      35.971 -24.756 -13.155  0.00  0.00    +0.127 A 
ATOM      8  C   UNL     1      36.781 -25.967 -12.839  0.00  0.00    +0.273 A 
ATOM      9  C   UNL     1      36.594 -26.589 -15.230  0.00  0.00    +0.327 A 
ATOM     10  H   UNL     1      35.520 -25.242 -16.321  0.00  0.00    +0.170 HD
ATOM     11  H   UNL     1      37.558 -27.608 -13.753  0.00  0.00    +0.173 HD
ENDROOT
BRANCH   6  12
ATOM     12  C   UNL     1      34.734 -23.381 -14.863  0.00  0.00    +0.137 C 
BRANCH  12  13
ATOM     13  N   UNL     1      35.255 -22.892 -16.116  0.00  0.00    -0.292 N 
ATOM     14  N   UNL     1      37.563 -22.393 -15.563  0.00  0.00    -0.289 NA
ATOM     15  C   UNL     1      34.364 -22.608 -17.227  0.00  0.00    +0.093 C 
ATOM     16  C   UNL     1      35.345 -22.369 -18.376  0.00  0.00    +0.029 C 
ATOM     17  C   UNL     1      36.599 -21.795 -17.713  0.00  0.00    +0.062 C 
ATOM     18  C   UNL     1      36.528 -22.408 -16.334  0.00  0.00    +0.100 C 
ATOM     19  H   UNL     1      37.513 -22.793 -14.665  0.00  0.00    +0.188 HD
ENDBRANCH  12  13
ENDBRANCH   6  12
TORSDOF 2
ENDMDL
MODEL 8
REMARK VINA RESULT:      -7.8      1.760      2.455
REMARK  Name = 6323266
REMARK  2 active torsions:
REMARK  status: ('A' for Active; 'I' for Inactive)
REMARK    1  A    between atoms: C_6  and  C_12
REMARK    2  A    between atoms: C_12  and  N_13
REMARK                            x       y       z     vdW  Elec       q    Type
REMARK                         _______ _______ _______ _____ _____    ______ ____
ROOT
ATOM      1 CL   UNL     1      34.641 -15.174 -22.986  0.00  0.00    -0.076 Cl
ATOM      2  O   UNL     1      34.203 -16.019 -25.777  0.00  0.00    -0.266 OA
ATOM      3  O   UNL     1      34.865 -20.535 -25.170  0.00  0.00    -0.247 OA
ATOM      4  N   UNL     1      35.044 -19.121 -23.368  0.00  0.00    -0.308 N 
ATOM      5  N   UNL     1      34.533 -18.277 -25.486  0.00  0.00    -0.274 N 
ATOM      6  C   UNL     1      34.998 -17.858 -22.815  0.00  0.00    +0.073 A 
ATOM      7  C   UNL     1      34.721 -16.790 -23.582  0.00  0.00    +0.127 A 
ATOM      8  C   UNL     1      34.461 -16.966 -25.039  0.00  0.00    +0.273 A 
ATOM      9  C   UNL     1      34.818 -19.395 -24.705  0.00  0.00    +0.327 A 
ATOM     10  H   UNL     1      35.250 -19.878 -22.772  0.00  0.00    +0.170 HD
ATOM     11  H   UNL     1      34.368 -18.433 -26.443  0.00  0.00    +0.173 HD
ENDROOT
BRANCH   6  12
ATOM     12  C   UNL     1      35.278 -17.828 -21.355  0.00  0.00    +0.137 C 
BRANCH  12  13
ATOM     13  N   UNL     1      35.279 -19.175 -20.840  0.00  0.00    -0.292 N 
ATOM     14  N   UNL     1      32.913 -19.696 -20.732  0.00  0.00    -0.289 NA
ATOM     15  C   UNL     1      36.502 -19.771 -20.333  0.00  0.00    +0.093 C 
ATOM     16  C   UNL     1      36.093 -21.233 -20.140  0.00  0.00    +0.029 C 
ATOM     17  C   UNL     1      34.599 -21.186 -19.815  0.00  0.00    +0.062 C 
ATOM     18  C   UNL     1      34.166 -19.927 -20.529  0.00  0.00    +0.100 C 
ATOM     19  H   UNL     1      32.633 -18.875 -21.198  0.00  0.00    +0.188 HD
ENDBRANCH  12  13
ENDBRANCH   6  12
TORSDOF 2
ENDMDL
MODEL 9
REMARK VINA RESULT:      -7.7      7.557      9.136
REMARK  Name = 6323266
REMARK  2 active torsions:
REMARK  status: ('A' for Active; 'I' for Inactive)
REMARK    1  A    between atoms: C_6  and  C_12
REMARK    2  A    between atoms: C_12  and  N_13
REMARK                            x       y       z     vdW  Elec       q    Type
REMARK                         _______ _______ _______ _____ _____    ______ ____
ROOT
ATOM      1 CL   UNL     1      30.814 -23.542 -14.178  0.00  0.00    -0.076 Cl
ATOM      2  O   UNL     1      30.210 -22.503 -16.870  0.00  0.00    -0.266 OA
ATOM      3  O   UNL     1      34.423 -22.953 -18.671  0.00  0.00    -0.247 OA
ATOM      4  N   UNL     1      34.060 -23.582 -16.491  0.00  0.00    -0.308 N 
ATOM      5  N   UNL     1      32.311 -22.721 -17.780  0.00  0.00    -0.274 N 
ATOM      6  C   UNL     1      33.228 -23.736 -15.401  0.00  0.00    +0.073 A 
ATOM      7  C   UNL     1      31.933 -23.388 -15.481  0.00  0.00    +0.127 A 
ATOM      8  C   UNL     1      31.387 -22.833 -16.752  0.00  0.00    +0.273 A 
ATOM      9  C   UNL     1      33.656 -23.077 -17.715  0.00  0.00    +0.327 A 
ATOM     10  H   UNL     1      35.003 -23.849 -16.392  0.00  0.00    +0.170 HD
ATOM     11  H   UNL     1      31.988 -22.357 -18.635  0.00  0.00    +0.173 HD
ENDROOT
BRANCH   6  12
ATOM     12  C   UNL     1      33.902 -24.299 -14.202  0.00  0.00    +0.137 C 
BRANCH  12  13
ATOM     13  N   UNL     1      35.330 -24.271 -14.398  0.00  0.00    -0.292 N 
ATOM     14  N   UNL     1      35.755 -26.406 -15.465  0.00  0.00    -0.289 NA
ATOM     15  C   UNL     1      36.140 -23.231 -13.787  0.00  0.00    +0.093 C 
ATOM     16  C   UNL     1      37.500 -23.447 -14.452  0.00  0.00    +0.029 C 
ATOM     17  C   UNL     1      37.561 -24.946 -14.750  0.00  0.00    +0.062 C 
ATOM     18  C   UNL     1      36.100 -25.288 -14.922  0.00  0.00    +0.100 C 
ATOM     19  H   UNL     1      34.802 -26.627 -15.575  0.00  0.00    +0.188 HD
ENDBRANCH  12  13
ENDBRANCH   6  12
TORSDOF 2
ENDMDL
