MODEL 1
REMARK VINA RESULT:      -5.0      0.000      0.000
REMARK  Name = 6262
REMARK  7 active torsions:
REMARK  status: ('A' for Active; 'I' for Inactive)
REMARK    1  A    between atoms: CA_1  and  N_2
REMARK    2  A    between atoms: CA_1  and  C_7
REMARK    3  A    between atoms: CA_1  and  C_10
REMARK    4  A    between atoms: C_7  and  O_8
REMARK    5  A    between atoms: C_10  and  C_11
REMARK    6  A    between atoms: C_11  and  C_12
REMARK    7  A    between atoms: C_12  and  N_13
REMARK                            x       y       z     vdW  Elec       q    Type
REMARK                         _______ _______ _______ _____ _____    ______ ____
ROOT
ATOM      1  CA  UNL     1      39.078 -25.174 -14.313  0.00  0.00    +0.036 C 
ENDROOT
BRANCH   1   2
ATOM      2  N   UNL     1      38.605 -24.427 -15.479  0.00  0.00    +0.389 N 
ATOM      3  H1  UNL     1      38.033 -25.037 -16.063  0.00  0.00    -0.088 HD
ATOM      4  H2  UNL     1      39.404 -24.092 -16.015  0.00  0.00    -0.088 HD
ATOM      5  H3  UNL     1      38.046 -23.632 -15.168  0.00  0.00    -0.088 HD
ENDBRANCH   1   2
BRANCH   1   7
ATOM      6  OXT UNL     1      41.063 -26.554 -13.969  0.00  0.00    -0.253 OA
ATOM      7  C   UNL     1      40.302 -25.971 -14.730  0.00  0.00    +0.293 C 
BRANCH   7   8
ATOM      8  O   UNL     1      40.473 -25.973 -16.079  0.00  0.00    -0.482 OA
ATOM      9  H   UNL     1      39.936 -26.519 -16.618  0.00  0.00    +0.295 HD
ENDBRANCH   7   8
ENDBRANCH   1   7
BRANCH   1  10
ATOM     10  C   UNL     1      37.986 -26.061 -13.695  0.00  0.00    -0.013 C 
BRANCH  10  11
ATOM     11  C   UNL     1      37.327 -25.492 -12.431  0.00  0.00    -0.025 C 
BRANCH  11  12
ATOM     12  C   UNL     1      38.036 -24.217 -11.972  0.00  0.00    -0.086 C 
BRANCH  12  13
ATOM     13  N   UNL     1      37.169 -23.445 -11.089  0.00  0.00    +0.380 N 
ATOM     14  H   UNL     1      37.739 -22.845 -10.493  0.00  0.00    -0.089 HD
ATOM     15  H   UNL     1      36.623 -24.082 -10.507  0.00  0.00    -0.089 HD
ATOM     16  H   UNL     1      36.538 -22.870 -11.648  0.00  0.00    -0.089 HD
ENDBRANCH  12  13
ENDBRANCH  11  12
ENDBRANCH  10  11
ENDBRANCH   1  10
TORSDOF 7
ENDMDL
MODEL 2
REMARK VINA RESULT:      -4.9      3.827      4.792
REMARK  Name = 6262
REMARK  7 active torsions:
REMARK  status: ('A' for Active; 'I' for Inactive)
REMARK    1  A    between atoms: CA_1  and  N_2
REMARK    2  A    between atoms: CA_1  and  C_7
REMARK    3  A    between atoms: CA_1  and  C_10
REMARK    4  A    between atoms: C_7  and  O_8
REMARK    5  A    between atoms: C_10  and  C_11
REMARK    6  A    between atoms: C_11  and  C_12
REMARK    7  A    between atoms: C_12  and  N_13
REMARK                            x       y       z     vdW  Elec       q    Type
REMARK                         _______ _______ _______ _____ _____    ______ ____
ROOT
ATOM      1  CA  UNL     1      36.773 -23.410 -11.884  0.00  0.00    +0.036 C 
ENDROOT
BRANCH   1   2
ATOM      2  N   UNL     1      38.165 -23.776 -11.619  0.00  0.00    +0.389 N 
ATOM      3  H1  UNL     1      38.633 -23.990 -12.499  0.00  0.00    -0.088 HD
ATOM      4  H2  UNL     1      38.191 -24.594 -11.011  0.00  0.00    -0.088 HD
ATOM      5  H3  UNL     1      38.640 -22.997 -11.162  0.00  0.00    -0.088 HD
ENDBRANCH   1   2
BRANCH   1   7
ATOM      6  OXT UNL     1      35.942 -24.280  -9.760  0.00  0.00    -0.253 OA
ATOM      7  C   UNL     1      35.886 -24.249 -10.982  0.00  0.00    +0.293 C 
BRANCH   7   8
ATOM      8  O   UNL     1      34.991 -24.987 -11.693  0.00  0.00    -0.482 OA
ATOM      9  H   UNL     1      34.180 -25.244 -11.301  0.00  0.00    +0.295 HD
ENDBRANCH   7   8
ENDBRANCH   1   7
BRANCH   1  10
ATOM     10  C   UNL     1      36.397 -23.550 -13.367  0.00  0.00    -0.013 C 
BRANCH  10  11
ATOM     11  C   UNL     1      37.406 -24.331 -14.221  0.00  0.00    -0.025 C 
BRANCH  11  12
ATOM     12  C   UNL     1      36.817 -25.666 -14.678  0.00  0.00    -0.086 C 
BRANCH  12  13
ATOM     13  N   UNL     1      36.864 -26.639 -13.592  0.00  0.00    +0.380 N 
ATOM     14  H   UNL     1      35.988 -26.609 -13.071  0.00  0.00    -0.089 HD
ATOM     15  H   UNL     1      37.639 -26.413 -12.967  0.00  0.00    -0.089 HD
ATOM     16  H   UNL     1      37.000 -27.573 -13.978  0.00  0.00    -0.089 HD
ENDBRANCH  12  13
ENDBRANCH  11  12
ENDBRANCH  10  11
ENDBRANCH   1  10
TORSDOF 7
ENDMDL
MODEL 3
REMARK VINA RESULT:      -4.8      2.679      2.970
REMARK  Name = 6262
REMARK  7 active torsions:
REMARK  status: ('A' for Active; 'I' for Inactive)
REMARK    1  A    between atoms: CA_1  and  N_2
REMARK    2  A    between atoms: CA_1  and  C_7
REMARK    3  A    between atoms: CA_1  and  C_10
REMARK    4  A    between atoms: C_7  and  O_8
REMARK    5  A    between atoms: C_10  and  C_11
REMARK    6  A    between atoms: C_11  and  C_12
REMARK    7  A    between atoms: C_12  and  N_13
REMARK                            x       y       z     vdW  Elec       q    Type
REMARK                         _______ _______ _______ _____ _____    ______ ____
ROOT
ATOM      1  CA  UNL     1      37.399 -26.568 -13.938  0.00  0.00    +0.036 C 
ENDROOT
BRANCH   1   2
ATOM      2  N   UNL     1      38.827 -26.372 -14.185  0.00  0.00    +0.389 N 
ATOM      3  H1  UNL     1      38.963 -25.527 -14.739  0.00  0.00    -0.088 HD
ATOM      4  H2  UNL     1      39.198 -27.176 -14.693  0.00  0.00    -0.088 HD
ATOM      5  H3  UNL     1      39.316 -26.278 -13.295  0.00  0.00    -0.088 HD
ENDBRANCH   1   2
BRANCH   1   7
ATOM      6  OXT UNL     1      35.967 -25.249 -15.412  0.00  0.00    -0.253 OA
ATOM      7  C   UNL     1      36.651 -26.246 -15.220  0.00  0.00    +0.293 C 
BRANCH   7   8
ATOM      8  O   UNL     1      36.823 -27.209 -16.165  0.00  0.00    -0.482 OA
ATOM      9  H   UNL     1      36.875 -26.973 -17.070  0.00  0.00    +0.295 HD
ENDBRANCH   7   8
ENDBRANCH   1   7
BRANCH   1  10
ATOM     10  C   UNL     1      36.887 -25.750 -12.742  0.00  0.00    -0.013 C 
BRANCH  10  11
ATOM     11  C   UNL     1      37.805 -24.601 -12.302  0.00  0.00    -0.025 C 
BRANCH  11  12
ATOM     12  C   UNL     1      37.220 -23.248 -12.708  0.00  0.00    -0.086 C 
BRANCH  12  13
ATOM     13  N   UNL     1      35.784 -23.365 -12.934  0.00  0.00    +0.380 N 
ATOM     14  H   UNL     1      35.598 -24.173 -13.527  0.00  0.00    -0.089 HD
ATOM     15  H   UNL     1      35.443 -22.520 -13.393  0.00  0.00    -0.089 HD
ATOM     16  H   UNL     1      35.308 -23.481 -12.039  0.00  0.00    -0.089 HD
ENDBRANCH  12  13
ENDBRANCH  11  12
ENDBRANCH  10  11
ENDBRANCH   1  10
TORSDOF 7
ENDMDL
MODEL 4
REMARK VINA RESULT:      -4.7     11.815     12.392
REMARK  Name = 6262
REMARK  7 active torsions:
REMARK  status: ('A' for Active; 'I' for Inactive)
REMARK    1  A    between atoms: CA_1  and  N_2
REMARK    2  A    between atoms: CA_1  and  C_7
REMARK    3  A    between atoms: CA_1  and  C_10
REMARK    4  A    between atoms: C_7  and  O_8
REMARK    5  A    between atoms: C_10  and  C_11
REMARK    6  A    between atoms: C_11  and  C_12
REMARK    7  A    between atoms: C_12  and  N_13
REMARK                            x       y       z     vdW  Elec       q    Type
REMARK                         _______ _______ _______ _____ _____    ______ ____
ROOT
ATOM      1  CA  UNL     1      41.039 -14.404 -15.770  0.00  0.00    +0.036 C 
ENDROOT
BRANCH   1   2
ATOM      2  N   UNL     1      40.574 -13.850 -14.498  0.00  0.00    +0.389 N 
ATOM      3  H1  UNL     1      41.376 -13.648 -13.902  0.00  0.00    -0.088 HD
ATOM      4  H2  UNL     1      39.966 -14.526 -14.035  0.00  0.00    -0.088 HD
ATOM      5  H3  UNL     1      40.055 -12.989 -14.672  0.00  0.00    -0.088 HD
ENDBRANCH   1   2
BRANCH   1   7
ATOM      6  OXT UNL     1      42.204 -16.547 -15.654  0.00  0.00    -0.253 OA
ATOM      7  C   UNL     1      41.160 -15.909 -15.612  0.00  0.00    +0.293 C 
BRANCH   7   8
ATOM      8  O   UNL     1      39.950 -16.498 -15.412  0.00  0.00    -0.482 OA
ATOM      9  H   UNL     1      39.898 -17.420 -15.253  0.00  0.00    +0.295 HD
ENDBRANCH   7   8
ENDBRANCH   1   7
BRANCH   1  10
ATOM     10  C   UNL     1      42.348 -13.760 -16.252  0.00  0.00    -0.013 C 
BRANCH  10  11
ATOM     11  C   UNL     1      42.192 -12.756 -17.403  0.00  0.00    -0.025 C 
BRANCH  11  12
ATOM     12  C   UNL     1      42.806 -11.405 -17.036  0.00  0.00    -0.086 C 
BRANCH  12  13
ATOM     13  N   UNL     1      42.414 -10.390 -18.007  0.00  0.00    +0.380 N 
ATOM     14  H   UNL     1      41.554 -10.679 -18.472  0.00  0.00    -0.089 HD
ATOM     15  H   UNL     1      43.154 -10.280 -18.701  0.00  0.00    -0.089 HD
ATOM     16  H   UNL     1      42.261  -9.502 -17.529  0.00  0.00    -0.089 HD
ENDBRANCH  12  13
ENDBRANCH  11  12
ENDBRANCH  10  11
ENDBRANCH   1  10
TORSDOF 7
ENDMDL
MODEL 5
REMARK VINA RESULT:      -4.7      9.344     10.045
REMARK  Name = 6262
REMARK  7 active torsions:
REMARK  status: ('A' for Active; 'I' for Inactive)
REMARK    1  A    between atoms: CA_1  and  N_2
REMARK    2  A    between atoms: CA_1  and  C_7
REMARK    3  A    between atoms: CA_1  and  C_10
REMARK    4  A    between atoms: C_7  and  O_8
REMARK    5  A    between atoms: C_10  and  C_11
REMARK    6  A    between atoms: C_11  and  C_12
REMARK    7  A    between atoms: C_12  and  N_13
REMARK                            x       y       z     vdW  Elec       q    Type
REMARK                         _______ _______ _______ _____ _____    ______ ____
ROOT
ATOM      1  CA  UNL     1      29.126 -23.411 -15.557  0.00  0.00    +0.036 C 
ENDROOT
BRANCH   1   2
ATOM      2  N   UNL     1      28.883 -24.776 -15.092  0.00  0.00    +0.389 N 
ATOM      3  H1  UNL     1      29.585 -25.028 -14.397  0.00  0.00    -0.088 HD
ATOM      4  H2  UNL     1      28.939 -25.419 -15.881  0.00  0.00    -0.088 HD
ATOM      5  H3  UNL     1      27.954 -24.832 -14.672  0.00  0.00    -0.088 HD
ENDBRANCH   1   2
BRANCH   1   7
ATOM      6  OXT UNL     1      27.783 -24.025 -17.501  0.00  0.00    -0.253 OA
ATOM      7  C   UNL     1      28.243 -23.161 -16.767  0.00  0.00    +0.293 C 
BRANCH   7   8
ATOM      8  O   UNL     1      28.005 -21.835 -16.958  0.00  0.00    -0.482 OA
ATOM      9  H   UNL     1      28.679 -21.209 -16.782  0.00  0.00    +0.295 HD
ENDBRANCH   7   8
ENDBRANCH   1   7
BRANCH   1  10
ATOM     10  C   UNL     1      30.610 -23.141 -15.852  0.00  0.00    -0.013 C 
BRANCH  10  11
ATOM     11  C   UNL     1      31.497 -22.971 -14.611  0.00  0.00    -0.025 C 
BRANCH  11  12
ATOM     12  C   UNL     1      32.607 -24.022 -14.584  0.00  0.00    -0.086 C 
BRANCH  12  13
ATOM     13  N   UNL     1      32.212 -25.154 -13.754  0.00  0.00    +0.380 N 
ATOM     14  H   UNL     1      31.666 -24.819 -12.960  0.00  0.00    -0.089 HD
ATOM     15  H   UNL     1      33.045 -25.634 -13.414  0.00  0.00    -0.089 HD
ATOM     16  H   UNL     1      31.648 -25.801 -14.305  0.00  0.00    -0.089 HD
ENDBRANCH  12  13
ENDBRANCH  11  12
ENDBRANCH  10  11
ENDBRANCH   1  10
TORSDOF 7
ENDMDL
MODEL 6
REMARK VINA RESULT:      -4.7     10.036     10.760
REMARK  Name = 6262
REMARK  7 active torsions:
REMARK  status: ('A' for Active; 'I' for Inactive)
REMARK    1  A    between atoms: CA_1  and  N_2
REMARK    2  A    between atoms: CA_1  and  C_7
REMARK    3  A    between atoms: CA_1  and  C_10
REMARK    4  A    between atoms: C_7  and  O_8
REMARK    5  A    between atoms: C_10  and  C_11
REMARK    6  A    between atoms: C_11  and  C_12
REMARK    7  A    between atoms: C_12  and  N_13
REMARK                            x       y       z     vdW  Elec       q    Type
REMARK                         _______ _______ _______ _____ _____    ______ ____
ROOT
ATOM      1  CA  UNL     1      35.111 -19.367 -21.567  0.00  0.00    +0.036 C 
ENDROOT
BRANCH   1   2
ATOM      2  N   UNL     1      36.215 -18.858 -20.753  0.00  0.00    +0.389 N 
ATOM      3  H1  UNL     1      36.098 -17.856 -20.609  0.00  0.00    -0.088 HD
ATOM      4  H2  UNL     1      37.099 -19.033 -21.231  0.00  0.00    -0.088 HD
ATOM      5  H3  UNL     1      36.218 -19.333 -19.849  0.00  0.00    -0.088 HD
ENDBRANCH   1   2
BRANCH   1   7
ATOM      6  OXT UNL     1      34.832 -19.364 -23.992  0.00  0.00    -0.253 OA
ATOM      7  C   UNL     1      35.292 -18.848 -22.982  0.00  0.00    +0.293 C 
BRANCH   7   8
ATOM      8  O   UNL     1      36.041 -17.712 -23.016  0.00  0.00    -0.482 OA
ATOM      9  H   UNL     1      36.914 -17.717 -22.676  0.00  0.00    +0.295 HD
ENDBRANCH   7   8
ENDBRANCH   1   7
BRANCH   1  10
ATOM     10  C   UNL     1      33.734 -19.011 -20.985  0.00  0.00    -0.013 C 
BRANCH  10  11
ATOM     11  C   UNL     1      32.895 -20.211 -20.524  0.00  0.00    -0.025 C 
BRANCH  11  12
ATOM     12  C   UNL     1      33.750 -21.206 -19.738  0.00  0.00    -0.086 C 
BRANCH  12  13
ATOM     13  N   UNL     1      32.900 -22.146 -19.018  0.00  0.00    +0.380 N 
ATOM     14  H   UNL     1      32.988 -21.984 -18.014  0.00  0.00    -0.089 HD
ATOM     15  H   UNL     1      33.188 -23.100 -19.234  0.00  0.00    -0.089 HD
ATOM     16  H   UNL     1      31.929 -22.012 -19.300  0.00  0.00    -0.089 HD
ENDBRANCH  12  13
ENDBRANCH  11  12
ENDBRANCH  10  11
ENDBRANCH   1  10
TORSDOF 7
ENDMDL
MODEL 7
REMARK VINA RESULT:      -4.7     11.853     12.858
REMARK  Name = 6262
REMARK  7 active torsions:
REMARK  status: ('A' for Active; 'I' for Inactive)
REMARK    1  A    between atoms: CA_1  and  N_2
REMARK    2  A    between atoms: CA_1  and  C_7
REMARK    3  A    between atoms: CA_1  and  C_10
REMARK    4  A    between atoms: C_7  and  O_8
REMARK    5  A    between atoms: C_10  and  C_11
REMARK    6  A    between atoms: C_11  and  C_12
REMARK    7  A    between atoms: C_12  and  N_13
REMARK                            x       y       z     vdW  Elec       q    Type
REMARK                         _______ _______ _______ _____ _____    ______ ____
ROOT
ATOM      1  CA  UNL     1      35.572 -18.008 -21.778  0.00  0.00    +0.036 C 
ENDROOT
BRANCH   1   2
ATOM      2  N   UNL     1      36.056 -18.745 -20.611  0.00  0.00    +0.389 N 
ATOM      3  H1  UNL     1      35.365 -19.444 -20.341  0.00  0.00    -0.088 HD
ATOM      4  H2  UNL     1      36.205 -18.097 -19.838  0.00  0.00    -0.088 HD
ATOM      5  H3  UNL     1      36.935 -19.207 -20.842  0.00  0.00    -0.088 HD
ENDBRANCH   1   2
BRANCH   1   7
ATOM      6  OXT UNL     1      35.038 -16.273 -20.145  0.00  0.00    -0.253 OA
ATOM      7  C   UNL     1      35.001 -16.686 -21.297  0.00  0.00    +0.293 C 
BRANCH   7   8
ATOM      8  O   UNL     1      34.425 -15.982 -22.309  0.00  0.00    -0.482 OA
ATOM      9  H   UNL     1      34.960 -15.590 -22.970  0.00  0.00    +0.295 HD
ENDBRANCH   7   8
ENDBRANCH   1   7
BRANCH   1  10
ATOM     10  C   UNL     1      34.560 -18.813 -22.609  0.00  0.00    -0.013 C 
BRANCH  10  11
ATOM     11  C   UNL     1      34.994 -19.107 -24.051  0.00  0.00    -0.025 C 
BRANCH  11  12
ATOM     12  C   UNL     1      34.320 -18.146 -25.031  0.00  0.00    -0.086 C 
BRANCH  12  13
ATOM     13  N   UNL     1      35.093 -16.914 -25.144  0.00  0.00    +0.380 N 
ATOM     14  H   UNL     1      34.467 -16.140 -25.368  0.00  0.00    -0.089 HD
ATOM     15  H   UNL     1      35.786 -17.015 -25.886  0.00  0.00    -0.089 HD
ATOM     16  H   UNL     1      35.565 -16.726 -24.260  0.00  0.00    -0.089 HD
ENDBRANCH  12  13
ENDBRANCH  11  12
ENDBRANCH  10  11
ENDBRANCH   1  10
TORSDOF 7
ENDMDL
MODEL 8
REMARK VINA RESULT:      -4.6      2.528      2.888
REMARK  Name = 6262
REMARK  7 active torsions:
REMARK  status: ('A' for Active; 'I' for Inactive)
REMARK    1  A    between atoms: CA_1  and  N_2
REMARK    2  A    between atoms: CA_1  and  C_7
REMARK    3  A    between atoms: CA_1  and  C_10
REMARK    4  A    between atoms: C_7  and  O_8
REMARK    5  A    between atoms: C_10  and  C_11
REMARK    6  A    between atoms: C_11  and  C_12
REMARK    7  A    between atoms: C_12  and  N_13
REMARK                            x       y       z     vdW  Elec       q    Type
REMARK                         _______ _______ _______ _____ _____    ______ ____
ROOT
ATOM      1  CA  UNL     1      36.758 -25.289 -14.730  0.00  0.00    +0.036 C 
ENDROOT
BRANCH   1   2
ATOM      2  N   UNL     1      35.304 -25.430 -14.653  0.00  0.00    +0.389 N 
ATOM      3  H1  UNL     1      35.008 -26.218 -15.228  0.00  0.00    -0.088 HD
ATOM      4  H2  UNL     1      34.861 -24.576 -14.991  0.00  0.00    -0.088 HD
ATOM      5  H3  UNL     1      35.029 -25.595 -13.684  0.00  0.00    -0.088 HD
ENDBRANCH   1   2
BRANCH   1   7
ATOM      6  OXT UNL     1      38.228 -27.235 -14.621  0.00  0.00    -0.253 OA
ATOM      7  C   UNL     1      37.385 -26.519 -14.098  0.00  0.00    +0.293 C 
BRANCH   7   8
ATOM      8  O   UNL     1      36.899 -26.753 -12.849  0.00  0.00    -0.482 OA
ATOM      9  H   UNL     1      36.951 -27.612 -12.480  0.00  0.00    +0.295 HD
ENDBRANCH   7   8
ENDBRANCH   1   7
BRANCH   1  10
ATOM     10  C   UNL     1      37.260 -23.984 -14.092  0.00  0.00    -0.013 C 
BRANCH  10  11
ATOM     11  C   UNL     1      36.293 -23.339 -13.090  0.00  0.00    -0.025 C 
BRANCH  11  12
ATOM     12  C   UNL     1      36.983 -23.091 -11.748  0.00  0.00    -0.086 C 
BRANCH  12  13
ATOM     13  N   UNL     1      38.064 -24.049 -11.549  0.00  0.00    +0.380 N 
ATOM     14  H   UNL     1      37.745 -24.799 -10.935  0.00  0.00    -0.089 HD
ATOM     15  H   UNL     1      38.862 -23.578 -11.124  0.00  0.00    -0.089 HD
ATOM     16  H   UNL     1      38.341 -24.442 -12.449  0.00  0.00    -0.089 HD
ENDBRANCH  12  13
ENDBRANCH  11  12
ENDBRANCH  10  11
ENDBRANCH   1  10
TORSDOF 7
ENDMDL
MODEL 9
REMARK VINA RESULT:      -4.6     11.012     11.723
REMARK  Name = 6262
REMARK  7 active torsions:
REMARK  status: ('A' for Active; 'I' for Inactive)
REMARK    1  A    between atoms: CA_1  and  N_2
REMARK    2  A    between atoms: CA_1  and  C_7
REMARK    3  A    between atoms: CA_1  and  C_10
REMARK    4  A    between atoms: C_7  and  O_8
REMARK    5  A    between atoms: C_10  and  C_11
REMARK    6  A    between atoms: C_11  and  C_12
REMARK    7  A    between atoms: C_12  and  N_13
REMARK                            x       y       z     vdW  Elec       q    Type
REMARK                         _______ _______ _______ _____ _____    ______ ____
ROOT
ATOM      1  CA  UNL     1      27.709 -22.883 -16.232  0.00  0.00    +0.036 C 
ENDROOT
BRANCH   1   2
ATOM      2  N   UNL     1      28.179 -23.374 -17.528  0.00  0.00    +0.389 N 
ATOM      3  H1  UNL     1      28.735 -24.217 -17.390  0.00  0.00    -0.088 HD
ATOM      4  H2  UNL     1      28.750 -22.658 -17.976  0.00  0.00    -0.088 HD
ATOM      5  H3  UNL     1      27.376 -23.589 -18.120  0.00  0.00    -0.088 HD
ENDBRANCH   1   2
BRANCH   1   7
ATOM      6  OXT UNL     1      26.567 -21.050 -17.371  0.00  0.00    -0.253 OA
ATOM      7  C   UNL     1      26.586 -21.892 -16.483  0.00  0.00    +0.293 C 
BRANCH   7   8
ATOM      8  O   UNL     1      25.569 -22.040 -15.592  0.00  0.00    -0.482 OA
ATOM      9  H   UNL     1      25.597 -21.590 -14.771  0.00  0.00    +0.295 HD
ENDBRANCH   7   8
ENDBRANCH   1   7
BRANCH   1  10
ATOM     10  C   UNL     1      28.839 -22.282 -15.383  0.00  0.00    -0.013 C 
BRANCH  10  11
ATOM     11  C   UNL     1      29.848 -23.299 -14.832  0.00  0.00    -0.025 C 
BRANCH  11  12
ATOM     12  C   UNL     1      31.282 -22.877 -15.154  0.00  0.00    -0.086 C 
BRANCH  12  13
ATOM     13  N   UNL     1      31.533 -22.991 -16.586  0.00  0.00    +0.380 N 
ATOM     14  H   UNL     1      30.844 -23.616 -17.003  0.00  0.00    -0.089 HD
ATOM     15  H   UNL     1      32.469 -23.367 -16.738  0.00  0.00    -0.089 HD
ATOM     16  H   UNL     1      31.463 -22.070 -17.018  0.00  0.00    -0.089 HD
ENDBRANCH  12  13
ENDBRANCH  11  12
ENDBRANCH  10  11
ENDBRANCH   1  10
TORSDOF 7
ENDMDL
