MODEL 1
REMARK VINA RESULT:     -11.2      0.000      0.000
REMARK  Name = 4449
REMARK  10 active torsions:
REMARK  status: ('A' for Active; 'I' for Inactive)
REMARK    1  A    between atoms: N_2  and  C_9
REMARK    2  A    between atoms: N_3  and  C_26
REMARK    3  A    between atoms: C_6  and  C_7
REMARK    4  A    between atoms: C_9  and  C_10
REMARK    5  A    between atoms: C_10  and  C_11
REMARK    6  A    between atoms: C_11  and  N_12
REMARK    7  A    between atoms: N_13  and  C_20
REMARK    8  A    between atoms: C_26  and  C_27
REMARK    9  A    between atoms: C_27  and  O_28
REMARK   10  A    between atoms: O_28  and  C_29
REMARK                            x       y       z     vdW  Elec       q    Type
REMARK                         _______ _______ _______ _____ _____    ______ ____
ROOT
ATOM      1  O   UNL     1      34.944 -16.011 -20.310  0.00  0.00    -0.245 OA
ATOM      2  N   UNL     1      33.393 -14.817 -21.618  0.00  0.00    -0.201 N 
ATOM      3  N   UNL     1      34.710 -16.274 -22.626  0.00  0.00    -0.263 N 
ATOM      4  N   UNL     1      33.070 -14.790 -22.949  0.00  0.00    -0.152 NA
ATOM      5  C   UNL     1      34.422 -15.741 -21.383  0.00  0.00    +0.348 A 
ATOM      6  C   UNL     1      33.874 -15.659 -23.490  0.00  0.00    +0.144 A 
ENDROOT
BRANCH   6   7
ATOM      7  C   UNL     1      33.884 -15.978 -24.946  0.00  0.00    +0.066 C 
ATOM      8  C   UNL     1      33.148 -14.911 -25.730  0.00  0.00    +0.008 C 
ENDBRANCH   6   7
BRANCH   2   9
ATOM      9  C   UNL     1      32.718 -13.982 -20.662  0.00  0.00    +0.130 C 
BRANCH   9  10
ATOM     10  C   UNL     1      31.931 -12.853 -21.326  0.00  0.00    +0.004 C 
BRANCH  10  11
ATOM     11  C   UNL     1      31.748 -11.609 -20.450  0.00  0.00    -0.075 C 
BRANCH  11  12
ATOM     12  N   UNL     1      32.149 -10.387 -21.145  0.00  0.00    +0.389 N 
ATOM     13  N   UNL     1      31.777  -7.799 -22.295  0.00  0.00    -0.312 N 
ATOM     14  C   UNL     1      31.944  -9.215 -20.286  0.00  0.00    -0.055 C 
ATOM     15  C   UNL     1      31.392 -10.231 -22.393  0.00  0.00    -0.055 C 
ATOM     16  C   UNL     1      32.413  -7.934 -20.982  0.00  0.00    +0.068 C 
ATOM     17  C   UNL     1      31.843  -8.985 -23.158  0.00  0.00    +0.068 C 
ATOM     18  H   UNL     1      33.142 -10.461 -21.369  0.00  0.00    -0.080 HD
BRANCH  13  20
ATOM     19 CL   UNL     1      32.904  -4.865 -26.338  0.00  0.00    -0.082 Cl
ATOM     20  C   UNL     1      31.711  -6.543 -22.909  0.00  0.00    +0.049 C 
ATOM     21  C   UNL     1      32.276  -6.353 -24.169  0.00  0.00    +0.026 C 
ATOM     22  C   UNL     1      31.075  -5.484 -22.261  0.00  0.00    +0.015 C 
ATOM     23  C   UNL     1      32.206  -5.102 -24.783  0.00  0.00    +0.059 C 
ATOM     24  C   UNL     1      31.005  -4.233 -22.875  0.00  0.00    +0.002 C 
ATOM     25  C   UNL     1      31.570  -4.042 -24.136  0.00  0.00    +0.011 C 
ENDBRANCH  13  20
ENDBRANCH  11  12
ENDBRANCH  10  11
ENDBRANCH   9  10
ENDBRANCH   2   9
BRANCH   3  26
ATOM     26  C   UNL     1      35.711 -17.284 -22.909  0.00  0.00    +0.159 C 
BRANCH  26  27
ATOM     27  C   UNL     1      35.112 -18.679 -22.911  0.00  0.00    +0.230 C 
BRANCH  27  28
ATOM     28  O   UNL     1      34.172 -18.790 -21.850  0.00  0.00    -0.473 OA
BRANCH  28  29
ATOM     29  C   UNL     1      34.358 -19.819 -20.965  0.00  0.00    +0.139 C 
ATOM     30  C   UNL     1      33.256 -20.461 -20.400  0.00  0.00    +0.037 C 
ATOM     31  C   UNL     1      35.648 -20.226 -20.630  0.00  0.00    +0.037 C 
ATOM     32  C   UNL     1      33.445 -21.509 -19.499  0.00  0.00    +0.003 C 
ATOM     33  C   UNL     1      35.838 -21.275 -19.730  0.00  0.00    +0.003 C 
ATOM     34  C   UNL     1      34.737 -21.916 -19.164  0.00  0.00    +0.000 C 
ENDBRANCH  28  29
ENDBRANCH  27  28
ENDBRANCH  26  27
ENDBRANCH   3  26
TORSDOF 10
ENDMDL
MODEL 2
REMARK VINA RESULT:     -11.1      4.200     12.225
REMARK  Name = 4449
REMARK  10 active torsions:
REMARK  status: ('A' for Active; 'I' for Inactive)
REMARK    1  A    between atoms: N_2  and  C_9
REMARK    2  A    between atoms: N_3  and  C_26
REMARK    3  A    between atoms: C_6  and  C_7
REMARK    4  A    between atoms: C_9  and  C_10
REMARK    5  A    between atoms: C_10  and  C_11
REMARK    6  A    between atoms: C_11  and  N_12
REMARK    7  A    between atoms: N_13  and  C_20
REMARK    8  A    between atoms: C_26  and  C_27
REMARK    9  A    between atoms: C_27  and  O_28
REMARK   10  A    between atoms: O_28  and  C_29
REMARK                            x       y       z     vdW  Elec       q    Type
REMARK                         _______ _______ _______ _____ _____    ______ ____
ROOT
ATOM      1  O   UNL     1      33.869  -9.939 -24.211  0.00  0.00    -0.245 OA
ATOM      2  N   UNL     1      33.036 -11.977 -23.377  0.00  0.00    -0.201 N 
ATOM      3  N   UNL     1      32.297 -10.099 -22.482  0.00  0.00    -0.263 N 
ATOM      4  N   UNL     1      32.140 -12.327 -22.402  0.00  0.00    -0.152 NA
ATOM      5  C   UNL     1      33.157 -10.581 -23.451  0.00  0.00    +0.348 A 
ATOM      6  C   UNL     1      31.742 -11.190 -21.911  0.00  0.00    +0.144 A 
ENDROOT
BRANCH   6   7
ATOM      7  C   UNL     1      30.744 -11.070 -20.809  0.00  0.00    +0.066 C 
ATOM      8  C   UNL     1      31.433 -11.110 -19.461  0.00  0.00    +0.008 C 
ENDBRANCH   6   7
BRANCH   2   9
ATOM      9  C   UNL     1      33.713 -12.968 -24.168  0.00  0.00    +0.130 C 
BRANCH   9  10
ATOM     10  C   UNL     1      33.233 -14.387 -23.864  0.00  0.00    +0.004 C 
BRANCH  10  11
ATOM     11  C   UNL     1      33.971 -15.484 -24.638  0.00  0.00    -0.075 C 
BRANCH  11  12
ATOM     12  N   UNL     1      34.696 -16.388 -23.746  0.00  0.00    +0.389 N 
ATOM     13  N   UNL     1      34.992 -18.549 -21.903  0.00  0.00    -0.312 N 
ATOM     14  C   UNL     1      34.562 -17.777 -24.202  0.00  0.00    -0.055 C 
ATOM     15  C   UNL     1      34.200 -16.263 -22.371  0.00  0.00    -0.055 C 
ATOM     16  C   UNL     1      35.363 -18.729 -23.309  0.00  0.00    +0.068 C 
ATOM     17  C   UNL     1      34.990 -17.163 -21.418  0.00  0.00    +0.068 C 
ATOM     18  H   UNL     1      35.683 -16.130 -23.766  0.00  0.00    -0.080 HD
BRANCH  13  20
ATOM     19 CL   UNL     1      33.168 -22.186 -18.792  0.00  0.00    -0.082 Cl
ATOM     20  C   UNL     1      35.256 -19.568 -20.979  0.00  0.00    +0.049 C 
ATOM     21  C   UNL     1      34.203 -20.284 -20.411  0.00  0.00    +0.026 C 
ATOM     22  C   UNL     1      36.573 -19.869 -20.632  0.00  0.00    +0.015 C 
ATOM     23  C   UNL     1      34.467 -21.301 -19.495  0.00  0.00    +0.059 C 
ATOM     24  C   UNL     1      36.837 -20.886 -19.716  0.00  0.00    +0.002 C 
ATOM     25  C   UNL     1      35.784 -21.603 -19.147  0.00  0.00    +0.011 C 
ENDBRANCH  13  20
ENDBRANCH  11  12
ENDBRANCH  10  11
ENDBRANCH   9  10
ENDBRANCH   2   9
BRANCH   3  26
ATOM     26  C   UNL     1      32.062  -8.702 -22.169  0.00  0.00    +0.159 C 
BRANCH  26  27
ATOM     27  C   UNL     1      31.209  -8.029 -23.229  0.00  0.00    +0.230 C 
BRANCH  27  28
ATOM     28  O   UNL     1      31.229  -6.622 -23.026  0.00  0.00    -0.473 OA
BRANCH  28  29
ATOM     29  C   UNL     1      31.707  -5.856 -24.057  0.00  0.00    +0.139 C 
ATOM     30  C   UNL     1      32.893  -6.211 -24.698  0.00  0.00    +0.037 C 
ATOM     31  C   UNL     1      31.006  -4.722 -24.466  0.00  0.00    +0.037 C 
ATOM     32  C   UNL     1      33.380  -5.432 -25.748  0.00  0.00    +0.003 C 
ATOM     33  C   UNL     1      31.492  -3.942 -25.516  0.00  0.00    +0.003 C 
ATOM     34  C   UNL     1      32.678  -4.297 -26.157  0.00  0.00    +0.000 C 
ENDBRANCH  28  29
ENDBRANCH  27  28
ENDBRANCH  26  27
ENDBRANCH   3  26
TORSDOF 10
ENDMDL
MODEL 3
REMARK VINA RESULT:     -11.0      0.999      1.349
REMARK  Name = 4449
REMARK  10 active torsions:
REMARK  status: ('A' for Active; 'I' for Inactive)
REMARK    1  A    between atoms: N_2  and  C_9
REMARK    2  A    between atoms: N_3  and  C_26
REMARK    3  A    between atoms: C_6  and  C_7
REMARK    4  A    between atoms: C_9  and  C_10
REMARK    5  A    between atoms: C_10  and  C_11
REMARK    6  A    between atoms: C_11  and  N_12
REMARK    7  A    between atoms: N_13  and  C_20
REMARK    8  A    between atoms: C_26  and  C_27
REMARK    9  A    between atoms: C_27  and  O_28
REMARK   10  A    between atoms: O_28  and  C_29
REMARK                            x       y       z     vdW  Elec       q    Type
REMARK                         _______ _______ _______ _____ _____    ______ ____
ROOT
ATOM      1  O   UNL     1      34.787 -15.860 -20.358  0.00  0.00    -0.245 OA
ATOM      2  N   UNL     1      33.314 -14.651 -21.740  0.00  0.00    -0.201 N 
ATOM      3  N   UNL     1      34.647 -16.140 -22.680  0.00  0.00    -0.263 N 
ATOM      4  N   UNL     1      33.049 -14.630 -23.084  0.00  0.00    -0.152 NA
ATOM      5  C   UNL     1      34.316 -15.591 -21.454  0.00  0.00    +0.348 A 
ATOM      6  C   UNL     1      33.859 -15.518 -23.583  0.00  0.00    +0.144 A 
ENDROOT
BRANCH   6   7
ATOM      7  C   UNL     1      33.926 -15.850 -25.035  0.00  0.00    +0.066 C 
ATOM      8  C   UNL     1      32.988 -14.963 -25.827  0.00  0.00    +0.008 C 
ENDBRANCH   6   7
BRANCH   2   9
ATOM      9  C   UNL     1      32.614 -13.795 -20.821  0.00  0.00    +0.130 C 
BRANCH   9  10
ATOM     10  C   UNL     1      31.901 -12.641 -21.525  0.00  0.00    +0.004 C 
BRANCH  10  11
ATOM     11  C   UNL     1      31.741 -11.381 -20.669  0.00  0.00    -0.075 C 
BRANCH  11  12
ATOM     12  N   UNL     1      32.164 -10.177 -21.383  0.00  0.00    +0.389 N 
ATOM     13  N   UNL     1      31.832  -7.612 -22.594  0.00  0.00    -0.312 N 
ATOM     14  C   UNL     1      31.954  -8.986 -20.553  0.00  0.00    -0.055 C 
ATOM     15  C   UNL     1      31.428 -10.042 -22.646  0.00  0.00    -0.055 C 
ATOM     16  C   UNL     1      32.445  -7.723 -21.268  0.00  0.00    +0.068 C 
ATOM     17  C   UNL     1      31.902  -8.817 -23.431  0.00  0.00    +0.068 C 
ATOM     18  H   UNL     1      33.159 -10.264 -21.589  0.00  0.00    -0.080 HD
BRANCH  13  20
ATOM     19 CL   UNL     1      30.464  -2.679 -22.438  0.00  0.00    -0.082 Cl
ATOM     20  C   UNL     1      31.787  -6.369 -23.236  0.00  0.00    +0.049 C 
ATOM     21  C   UNL     1      31.214  -5.273 -22.593  0.00  0.00    +0.026 C 
ATOM     22  C   UNL     1      32.319  -6.227 -24.518  0.00  0.00    +0.015 C 
ATOM     23  C   UNL     1      31.173  -4.033 -23.231  0.00  0.00    +0.059 C 
ATOM     24  C   UNL     1      32.278  -4.987 -25.156  0.00  0.00    +0.002 C 
ATOM     25  C   UNL     1      31.705  -3.890 -24.512  0.00  0.00    +0.011 C 
ENDBRANCH  13  20
ENDBRANCH  11  12
ENDBRANCH  10  11
ENDBRANCH   9  10
ENDBRANCH   2   9
BRANCH   3  26
ATOM     26  C   UNL     1      35.641 -17.170 -22.911  0.00  0.00    +0.159 C 
BRANCH  26  27
ATOM     27  C   UNL     1      35.073 -18.557 -22.674  0.00  0.00    +0.230 C 
BRANCH  27  28
ATOM     28  O   UNL     1      35.779 -19.180 -21.609  0.00  0.00    -0.473 OA
BRANCH  28  29
ATOM     29  C   UNL     1      35.065 -20.033 -20.809  0.00  0.00    +0.139 C 
ATOM     30  C   UNL     1      33.677 -19.916 -20.729  0.00  0.00    +0.037 C 
ATOM     31  C   UNL     1      35.724 -21.018 -20.076  0.00  0.00    +0.037 C 
ATOM     32  C   UNL     1      32.949 -20.784 -19.916  0.00  0.00    +0.003 C 
ATOM     33  C   UNL     1      34.997 -21.888 -19.262  0.00  0.00    +0.003 C 
ATOM     34  C   UNL     1      33.610 -21.770 -19.182  0.00  0.00    +0.000 C 
ENDBRANCH  28  29
ENDBRANCH  27  28
ENDBRANCH  26  27
ENDBRANCH   3  26
TORSDOF 10
ENDMDL
MODEL 4
REMARK VINA RESULT:     -11.0      4.272     12.399
REMARK  Name = 4449
REMARK  10 active torsions:
REMARK  status: ('A' for Active; 'I' for Inactive)
REMARK    1  A    between atoms: N_2  and  C_9
REMARK    2  A    between atoms: N_3  and  C_26
REMARK    3  A    between atoms: C_6  and  C_7
REMARK    4  A    between atoms: C_9  and  C_10
REMARK    5  A    between atoms: C_10  and  C_11
REMARK    6  A    between atoms: C_11  and  N_12
REMARK    7  A    between atoms: N_13  and  C_20
REMARK    8  A    between atoms: C_26  and  C_27
REMARK    9  A    between atoms: C_27  and  O_28
REMARK   10  A    between atoms: O_28  and  C_29
REMARK                            x       y       z     vdW  Elec       q    Type
REMARK                         _______ _______ _______ _____ _____    ______ ____
ROOT
ATOM      1  O   UNL     1      31.635 -10.987 -22.786  0.00  0.00    -0.245 OA
ATOM      2  N   UNL     1      33.644 -10.848 -24.006  0.00  0.00    -0.201 N 
ATOM      3  N   UNL     1      32.968  -9.064 -22.895  0.00  0.00    -0.263 N 
ATOM      4  N   UNL     1      34.576  -9.869 -24.222  0.00  0.00    -0.152 NA
ATOM      5  C   UNL     1      32.618 -10.373 -23.175  0.00  0.00    +0.348 A 
ATOM      6  C   UNL     1      34.128  -8.848 -23.551  0.00  0.00    +0.144 A 
ENDROOT
BRANCH   6   7
ATOM      7  C   UNL     1      34.827  -7.532 -23.486  0.00  0.00    +0.066 C 
ATOM      8  C   UNL     1      34.518  -6.704 -24.716  0.00  0.00    +0.008 C 
ENDBRANCH   6   7
BRANCH   2   9
ATOM      9  C   UNL     1      33.777 -12.156 -24.588  0.00  0.00    +0.130 C 
BRANCH   9  10
ATOM     10  C   UNL     1      33.919 -13.253 -23.535  0.00  0.00    +0.004 C 
BRANCH  10  11
ATOM     11  C   UNL     1      33.758 -14.676 -24.078  0.00  0.00    -0.075 C 
BRANCH  11  12
ATOM     12  N   UNL     1      34.531 -15.647 -23.304  0.00  0.00    +0.389 N 
ATOM     13  N   UNL     1      34.956 -18.036 -21.798  0.00  0.00    -0.312 N 
ATOM     14  C   UNL     1      34.527 -16.956 -23.969  0.00  0.00    -0.055 C 
ATOM     15  C   UNL     1      33.988 -15.775 -21.947  0.00  0.00    -0.055 C 
ATOM     16  C   UNL     1      35.380 -17.968 -23.199  0.00  0.00    +0.068 C 
ATOM     17  C   UNL     1      34.823 -16.746 -21.110  0.00  0.00    +0.068 C 
ATOM     18  H   UNL     1      35.493 -15.312 -23.245  0.00  0.00    -0.080 HD
BRANCH  13  20
ATOM     19 CL   UNL     1      33.339 -22.137 -19.190  0.00  0.00    -0.082 Cl
ATOM     20  C   UNL     1      35.279 -19.161 -21.029  0.00  0.00    +0.049 C 
ATOM     21  C   UNL     1      34.266 -19.990 -20.548  0.00  0.00    +0.026 C 
ATOM     22  C   UNL     1      36.613 -19.454 -20.750  0.00  0.00    +0.015 C 
ATOM     23  C   UNL     1      34.588 -21.113 -19.786  0.00  0.00    +0.059 C 
ATOM     24  C   UNL     1      36.936 -20.577 -19.988  0.00  0.00    +0.002 C 
ATOM     25  C   UNL     1      35.923 -21.407 -19.506  0.00  0.00    +0.011 C 
ENDBRANCH  13  20
ENDBRANCH  11  12
ENDBRANCH  10  11
ENDBRANCH   9  10
ENDBRANCH   2   9
BRANCH   3  26
ATOM     26  C   UNL     1      32.220  -8.141 -22.064  0.00  0.00    +0.159 C 
BRANCH  26  27
ATOM     27  C   UNL     1      31.102  -7.471 -22.842  0.00  0.00    +0.230 C 
BRANCH  27  28
ATOM     28  O   UNL     1      30.927  -6.142 -22.367  0.00  0.00    -0.473 OA
BRANCH  28  29
ATOM     29  C   UNL     1      31.170  -5.130 -23.258  0.00  0.00    +0.139 C 
ATOM     30  C   UNL     1      31.320  -5.417 -24.615  0.00  0.00    +0.037 C 
ATOM     31  C   UNL     1      31.269  -3.814 -22.809  0.00  0.00    +0.037 C 
ATOM     32  C   UNL     1      31.568  -4.388 -25.522  0.00  0.00    +0.003 C 
ATOM     33  C   UNL     1      31.516  -2.784 -23.716  0.00  0.00    +0.003 C 
ATOM     34  C   UNL     1      31.666  -3.070 -25.072  0.00  0.00    +0.000 C 
ENDBRANCH  28  29
ENDBRANCH  27  28
ENDBRANCH  26  27
ENDBRANCH   3  26
TORSDOF 10
ENDMDL
MODEL 5
REMARK VINA RESULT:     -11.0      4.117     11.659
REMARK  Name = 4449
REMARK  10 active torsions:
REMARK  status: ('A' for Active; 'I' for Inactive)
REMARK    1  A    between atoms: N_2  and  C_9
REMARK    2  A    between atoms: N_3  and  C_26
REMARK    3  A    between atoms: C_6  and  C_7
REMARK    4  A    between atoms: C_9  and  C_10
REMARK    5  A    between atoms: C_10  and  C_11
REMARK    6  A    between atoms: C_11  and  N_12
REMARK    7  A    between atoms: N_13  and  C_20
REMARK    8  A    between atoms: C_26  and  C_27
REMARK    9  A    between atoms: C_27  and  O_28
REMARK   10  A    between atoms: O_28  and  C_29
REMARK                            x       y       z     vdW  Elec       q    Type
REMARK                         _______ _______ _______ _____ _____    ______ ____
ROOT
ATOM      1  O   UNL     1      33.973 -11.865 -26.044  0.00  0.00    -0.245 OA
ATOM      2  N   UNL     1      32.976 -13.754 -25.054  0.00  0.00    -0.201 N 
ATOM      3  N   UNL     1      33.268 -11.951 -23.812  0.00  0.00    -0.263 N 
ATOM      4  N   UNL     1      32.491 -14.047 -23.806  0.00  0.00    -0.152 NA
ATOM      5  C   UNL     1      33.472 -12.442 -25.089  0.00  0.00    +0.348 A 
ATOM      6  C   UNL     1      32.691 -12.958 -23.122  0.00  0.00    +0.144 A 
ENDROOT
BRANCH   6   7
ATOM      7  C   UNL     1      32.312 -12.804 -21.688  0.00  0.00    +0.066 C 
ATOM      8  C   UNL     1      32.689 -14.042 -20.902  0.00  0.00    +0.008 C 
ENDBRANCH   6   7
BRANCH   2   9
ATOM      9  C   UNL     1      32.939 -14.716 -26.121  0.00  0.00    +0.130 C 
BRANCH   9  10
ATOM     10  C   UNL     1      33.488 -16.078 -25.699  0.00  0.00    +0.004 C 
BRANCH  10  11
ATOM     11  C   UNL     1      34.965 -16.067 -25.295  0.00  0.00    -0.075 C 
BRANCH  11  12
ATOM     12  N   UNL     1      35.256 -17.060 -24.261  0.00  0.00    +0.389 N 
ATOM     13  N   UNL     1      34.638 -18.905 -22.170  0.00  0.00    -0.312 N 
ATOM     14  C   UNL     1      34.586 -18.330 -24.564  0.00  0.00    -0.055 C 
ATOM     15  C   UNL     1      34.831 -16.573 -22.944  0.00  0.00    -0.055 C 
ATOM     16  C   UNL     1      34.928 -19.396 -23.520  0.00  0.00    +0.068 C 
ATOM     17  C   UNL     1      35.182 -17.580 -21.846  0.00  0.00    +0.068 C 
ATOM     18  H   UNL     1      36.264 -17.216 -24.246  0.00  0.00    -0.080 HD
BRANCH  13  20
ATOM     19 CL   UNL     1      36.757 -21.846 -18.552  0.00  0.00    -0.082 Cl
ATOM     20  C   UNL     1      34.461 -19.816 -21.122  0.00  0.00    +0.049 C 
ATOM     21  C   UNL     1      35.568 -20.319 -20.441  0.00  0.00    +0.026 C 
ATOM     22  C   UNL     1      33.175 -20.216 -20.757  0.00  0.00    +0.015 C 
ATOM     23  C   UNL     1      35.391 -21.223 -19.394  0.00  0.00    +0.059 C 
ATOM     24  C   UNL     1      32.998 -21.120 -19.711  0.00  0.00    +0.002 C 
ATOM     25  C   UNL     1      34.106 -21.624 -19.028  0.00  0.00    +0.011 C 
ENDBRANCH  13  20
ENDBRANCH  11  12
ENDBRANCH  10  11
ENDBRANCH   9  10
ENDBRANCH   2   9
BRANCH   3  26
ATOM     26  C   UNL     1      33.615 -10.623 -23.344  0.00  0.00    +0.159 C 
BRANCH  26  27
ATOM     27  C   UNL     1      32.558  -9.603 -23.725  0.00  0.00    +0.230 C 
BRANCH  27  28
ATOM     28  O   UNL     1      33.162  -8.322 -23.852  0.00  0.00    -0.473 OA
BRANCH  28  29
ATOM     29  C   UNL     1      32.433  -7.249 -23.411  0.00  0.00    +0.139 C 
ATOM     30  C   UNL     1      31.821  -6.397 -24.331  0.00  0.00    +0.037 C 
ATOM     31  C   UNL     1      32.302  -7.009 -22.044  0.00  0.00    +0.037 C 
ATOM     32  C   UNL     1      31.079  -5.305 -23.883  0.00  0.00    +0.003 C 
ATOM     33  C   UNL     1      31.559  -5.917 -21.595  0.00  0.00    +0.003 C 
ATOM     34  C   UNL     1      30.948  -5.065 -22.514  0.00  0.00    +0.000 C 
ENDBRANCH  28  29
ENDBRANCH  27  28
ENDBRANCH  26  27
ENDBRANCH   3  26
TORSDOF 10
ENDMDL
MODEL 6
REMARK VINA RESULT:     -11.0      6.898     11.243
REMARK  Name = 4449
REMARK  10 active torsions:
REMARK  status: ('A' for Active; 'I' for Inactive)
REMARK    1  A    between atoms: N_2  and  C_9
REMARK    2  A    between atoms: N_3  and  C_26
REMARK    3  A    between atoms: C_6  and  C_7
REMARK    4  A    between atoms: C_9  and  C_10
REMARK    5  A    between atoms: C_10  and  C_11
REMARK    6  A    between atoms: C_11  and  N_12
REMARK    7  A    between atoms: N_13  and  C_20
REMARK    8  A    between atoms: C_26  and  C_27
REMARK    9  A    between atoms: C_27  and  O_28
REMARK   10  A    between atoms: O_28  and  C_29
REMARK                            x       y       z     vdW  Elec       q    Type
REMARK                         _______ _______ _______ _____ _____    ______ ____
ROOT
ATOM      1  O   UNL     1      34.980 -23.902 -16.382  0.00  0.00    -0.245 OA
ATOM      2  N   UNL     1      36.947 -22.940 -15.519  0.00  0.00    -0.201 N 
ATOM      3  N   UNL     1      35.556 -23.918 -14.111  0.00  0.00    -0.263 N 
ATOM      4  N   UNL     1      37.496 -22.820 -14.269  0.00  0.00    -0.152 NA
ATOM      5  C   UNL     1      35.725 -23.626 -15.453  0.00  0.00    +0.348 A 
ATOM      6  C   UNL     1      36.638 -23.407 -13.487  0.00  0.00    +0.144 A 
ENDROOT
BRANCH   6   7
ATOM      7  C   UNL     1      36.816 -23.530 -12.011  0.00  0.00    +0.066 C 
ATOM      8  C   UNL     1      38.155 -24.162 -11.688  0.00  0.00    +0.008 C 
ENDBRANCH   6   7
BRANCH   2   9
ATOM      9  C   UNL     1      37.602 -22.408 -16.682  0.00  0.00    +0.130 C 
BRANCH   9  10
ATOM     10  C   UNL     1      36.786 -21.309 -17.362  0.00  0.00    +0.004 C 
BRANCH  10  11
ATOM     11  C   UNL     1      36.266 -21.677 -18.755  0.00  0.00    -0.075 C 
BRANCH  11  12
ATOM     12  N   UNL     1      35.826 -20.500 -19.503  0.00  0.00    +0.389 N 
ATOM     13  N   UNL     1      35.190 -18.981 -21.836  0.00  0.00    -0.312 N 
ATOM     14  C   UNL     1      34.622 -20.807 -20.284  0.00  0.00    -0.055 C 
ATOM     15  C   UNL     1      36.892 -20.027 -20.393  0.00  0.00    -0.055 C 
ATOM     16  C   UNL     1      34.118 -19.567 -21.028  0.00  0.00    +0.068 C 
ATOM     17  C   UNL     1      36.464 -18.761 -21.139  0.00  0.00    +0.068 C 
ATOM     18  H   UNL     1      35.604 -19.763 -18.833  0.00  0.00    -0.080 HD
BRANCH  13  20
ATOM     19 CL   UNL     1      34.216 -14.231 -23.485  0.00  0.00    -0.082 Cl
ATOM     20  C   UNL     1      34.872 -18.134 -22.904  0.00  0.00    +0.049 C 
ATOM     21  C   UNL     1      34.719 -16.765 -22.687  0.00  0.00    +0.026 C 
ATOM     22  C   UNL     1      34.712 -18.660 -24.186  0.00  0.00    +0.015 C 
ATOM     23  C   UNL     1      34.406 -15.921 -23.752  0.00  0.00    +0.059 C 
ATOM     24  C   UNL     1      34.399 -17.816 -25.252  0.00  0.00    +0.002 C 
ATOM     25  C   UNL     1      34.246 -16.446 -25.035  0.00  0.00    +0.011 C 
ENDBRANCH  13  20
ENDBRANCH  11  12
ENDBRANCH  10  11
ENDBRANCH   9  10
ENDBRANCH   2   9
BRANCH   3  26
ATOM     26  C   UNL     1      34.433 -24.629 -13.530  0.00  0.00    +0.159 C 
BRANCH  26  27
ATOM     27  C   UNL     1      33.214 -23.735 -13.400  0.00  0.00    +0.230 C 
BRANCH  27  28
ATOM     28  O   UNL     1      32.036 -24.530 -13.461  0.00  0.00    -0.473 OA
BRANCH  28  29
ATOM     29  C   UNL     1      31.111 -24.194 -14.414  0.00  0.00    +0.139 C 
ATOM     30  C   UNL     1      31.436 -23.265 -15.404  0.00  0.00    +0.037 C 
ATOM     31  C   UNL     1      29.847 -24.779 -14.396  0.00  0.00    +0.037 C 
ATOM     32  C   UNL     1      30.495 -22.923 -16.374  0.00  0.00    +0.003 C 
ATOM     33  C   UNL     1      28.905 -24.438 -15.367  0.00  0.00    +0.003 C 
ATOM     34  C   UNL     1      29.229 -23.509 -16.356  0.00  0.00    +0.000 C 
ENDBRANCH  28  29
ENDBRANCH  27  28
ENDBRANCH  26  27
ENDBRANCH   3  26
TORSDOF 10
ENDMDL
MODEL 7
REMARK VINA RESULT:     -10.9      1.778      3.132
REMARK  Name = 4449
REMARK  10 active torsions:
REMARK  status: ('A' for Active; 'I' for Inactive)
REMARK    1  A    between atoms: N_2  and  C_9
REMARK    2  A    between atoms: N_3  and  C_26
REMARK    3  A    between atoms: C_6  and  C_7
REMARK    4  A    between atoms: C_9  and  C_10
REMARK    5  A    between atoms: C_10  and  C_11
REMARK    6  A    between atoms: C_11  and  N_12
REMARK    7  A    between atoms: N_13  and  C_20
REMARK    8  A    between atoms: C_26  and  C_27
REMARK    9  A    between atoms: C_27  and  O_28
REMARK   10  A    between atoms: O_28  and  C_29
REMARK                            x       y       z     vdW  Elec       q    Type
REMARK                         _______ _______ _______ _____ _____    ______ ____
ROOT
ATOM      1  O   UNL     1      34.840 -17.498 -25.757  0.00  0.00    -0.245 OA
ATOM      2  N   UNL     1      33.808 -15.612 -24.796  0.00  0.00    -0.201 N 
ATOM      3  N   UNL     1      34.888 -17.006 -23.467  0.00  0.00    -0.263 N 
ATOM      4  N   UNL     1      33.695 -15.117 -23.524  0.00  0.00    -0.152 NA
ATOM      5  C   UNL     1      34.553 -16.802 -24.794  0.00  0.00    +0.348 A 
ATOM      6  C   UNL     1      34.342 -15.974 -22.790  0.00  0.00    +0.144 A 
ENDROOT
BRANCH   6   7
ATOM      7  C   UNL     1      34.494 -15.844 -21.312  0.00  0.00    +0.066 C 
ATOM      8  C   UNL     1      33.407 -14.956 -20.741  0.00  0.00    +0.008 C 
ENDBRANCH   6   7
BRANCH   2   9
ATOM      9  C   UNL     1      33.216 -14.941 -25.921  0.00  0.00    +0.130 C 
BRANCH   9  10
ATOM     10  C   UNL     1      32.953 -13.461 -25.647  0.00  0.00    +0.004 C 
BRANCH  10  11
ATOM     11  C   UNL     1      34.217 -12.602 -25.548  0.00  0.00    -0.075 C 
BRANCH  11  12
ATOM     12  N   UNL     1      34.123 -11.613 -24.475  0.00  0.00    +0.389 N 
ATOM     13  N   UNL     1      33.095  -9.310 -23.134  0.00  0.00    -0.312 N 
ATOM     14  C   UNL     1      32.790 -11.643 -23.863  0.00  0.00    -0.055 C 
ATOM     15  C   UNL     1      34.407 -10.267 -24.988  0.00  0.00    -0.055 C 
ATOM     16  C   UNL     1      32.696 -10.651 -22.699  0.00  0.00    +0.068 C 
ATOM     17  C   UNL     1      34.367  -9.230 -23.863  0.00  0.00    +0.068 C 
ATOM     18  H   UNL     1      34.817 -11.848 -23.765  0.00  0.00    -0.080 HD
BRANCH  13  20
ATOM     19 CL   UNL     1      31.523  -4.436 -23.127  0.00  0.00    -0.082 Cl
ATOM     20  C   UNL     1      32.690  -8.192 -22.396  0.00  0.00    +0.049 C 
ATOM     21  C   UNL     1      32.350  -7.010 -23.053  0.00  0.00    +0.026 C 
ATOM     22  C   UNL     1      32.621  -8.263 -21.005  0.00  0.00    +0.015 C 
ATOM     23  C   UNL     1      31.942  -5.897 -22.317  0.00  0.00    +0.059 C 
ATOM     24  C   UNL     1      32.213  -7.150 -20.270  0.00  0.00    +0.002 C 
ATOM     25  C   UNL     1      31.873  -5.967 -20.926  0.00  0.00    +0.011 C 
ENDBRANCH  13  20
ENDBRANCH  11  12
ENDBRANCH  10  11
ENDBRANCH   9  10
ENDBRANCH   2   9
BRANCH   3  26
ATOM     26  C   UNL     1      35.665 -18.114 -22.946  0.00  0.00    +0.159 C 
BRANCH  26  27
ATOM     27  C   UNL     1      34.801 -19.339 -22.707  0.00  0.00    +0.230 C 
BRANCH  27  28
ATOM     28  O   UNL     1      34.130 -19.207 -21.461  0.00  0.00    -0.473 OA
BRANCH  28  29
ATOM     29  C   UNL     1      34.308 -20.218 -20.553  0.00  0.00    +0.139 C 
ATOM     30  C   UNL     1      33.201 -20.851 -19.988  0.00  0.00    +0.037 C 
ATOM     31  C   UNL     1      35.596 -20.614 -20.194  0.00  0.00    +0.037 C 
ATOM     32  C   UNL     1      33.382 -21.880 -19.064  0.00  0.00    +0.003 C 
ATOM     33  C   UNL     1      35.778 -21.643 -19.270  0.00  0.00    +0.003 C 
ATOM     34  C   UNL     1      34.671 -22.276 -18.706  0.00  0.00    +0.000 C 
ENDBRANCH  28  29
ENDBRANCH  27  28
ENDBRANCH  26  27
ENDBRANCH   3  26
TORSDOF 10
ENDMDL
MODEL 8
REMARK VINA RESULT:     -10.9      4.904     12.036
REMARK  Name = 4449
REMARK  10 active torsions:
REMARK  status: ('A' for Active; 'I' for Inactive)
REMARK    1  A    between atoms: N_2  and  C_9
REMARK    2  A    between atoms: N_3  and  C_26
REMARK    3  A    between atoms: C_6  and  C_7
REMARK    4  A    between atoms: C_9  and  C_10
REMARK    5  A    between atoms: C_10  and  C_11
REMARK    6  A    between atoms: C_11  and  N_12
REMARK    7  A    between atoms: N_13  and  C_20
REMARK    8  A    between atoms: C_26  and  C_27
REMARK    9  A    between atoms: C_27  and  O_28
REMARK   10  A    between atoms: O_28  and  C_29
REMARK                            x       y       z     vdW  Elec       q    Type
REMARK                         _______ _______ _______ _____ _____    ______ ____
ROOT
ATOM      1  O   UNL     1      35.237 -15.735 -22.397  0.00  0.00    -0.245 OA
ATOM      2  N   UNL     1      34.599 -16.817 -24.388  0.00  0.00    -0.201 N 
ATOM      3  N   UNL     1      33.914 -14.745 -24.056  0.00  0.00    -0.263 N 
ATOM      4  N   UNL     1      33.853 -16.465 -25.482  0.00  0.00    -0.152 NA
ATOM      5  C   UNL     1      34.656 -15.755 -23.473  0.00  0.00    +0.348 A 
ATOM      6  C   UNL     1      33.476 -15.245 -25.231  0.00  0.00    +0.144 A 
ENDROOT
BRANCH   6   7
ATOM      7  C   UNL     1      32.633 -14.436 -26.158  0.00  0.00    +0.066 C 
ATOM      8  C   UNL     1      33.502 -13.585 -27.061  0.00  0.00    +0.008 C 
ENDBRANCH   6   7
BRANCH   2   9
ATOM      9  C   UNL     1      35.206 -18.115 -24.277  0.00  0.00    +0.130 C 
BRANCH   9  10
ATOM     10  C   UNL     1      35.419 -18.539 -22.824  0.00  0.00    +0.004 C 
BRANCH  10  11
ATOM     11  C   UNL     1      34.242 -19.301 -22.209  0.00  0.00    -0.075 C 
BRANCH  11  12
ATOM     12  N   UNL     1      34.689 -20.345 -21.287  0.00  0.00    +0.389 N 
ATOM     13  N   UNL     1      35.415 -21.453 -18.757  0.00  0.00    -0.312 N 
ATOM     14  C   UNL     1      33.665 -20.605 -20.269  0.00  0.00    -0.055 C 
ATOM     15  C   UNL     1      35.949 -19.958 -20.641  0.00  0.00    -0.055 C 
ATOM     16  C   UNL     1      34.096 -21.736 -19.330  0.00  0.00    +0.068 C 
ATOM     17  C   UNL     1      36.456 -21.067 -19.717  0.00  0.00    +0.068 C 
ATOM     18  H   UNL     1      34.842 -21.198 -21.824  0.00  0.00    -0.080 HD
BRANCH  13  20
ATOM     19 CL   UNL     1      34.155 -24.425 -14.780  0.00  0.00    -0.082 Cl
ATOM     20  C   UNL     1      35.813 -22.098 -17.580  0.00  0.00    +0.049 C 
ATOM     21  C   UNL     1      34.892 -22.850 -16.852  0.00  0.00    +0.026 C 
ATOM     22  C   UNL     1      37.133 -21.992 -17.140  0.00  0.00    +0.015 C 
ATOM     23  C   UNL     1      35.291 -23.497 -15.682  0.00  0.00    +0.059 C 
ATOM     24  C   UNL     1      37.531 -22.638 -15.970  0.00  0.00    +0.002 C 
ATOM     25  C   UNL     1      36.610 -23.391 -15.241  0.00  0.00    +0.011 C 
ENDBRANCH  13  20
ENDBRANCH  11  12
ENDBRANCH  10  11
ENDBRANCH   9  10
ENDBRANCH   2   9
BRANCH   3  26
ATOM     26  C   UNL     1      33.674 -13.429 -23.494  0.00  0.00    +0.159 C 
BRANCH  26  27
ATOM     27  C   UNL     1      32.527 -13.448 -22.501  0.00  0.00    +0.230 C 
BRANCH  27  28
ATOM     28  O   UNL     1      31.735 -12.280 -22.673  0.00  0.00    -0.473 OA
BRANCH  28  29
ATOM     29  C   UNL     1      31.753 -11.365 -21.652  0.00  0.00    +0.139 C 
ATOM     30  C   UNL     1      31.571 -11.787 -20.335  0.00  0.00    +0.037 C 
ATOM     31  C   UNL     1      31.953 -10.014 -21.930  0.00  0.00    +0.037 C 
ATOM     32  C   UNL     1      31.589 -10.857 -19.296  0.00  0.00    +0.003 C 
ATOM     33  C   UNL     1      31.972  -9.083 -20.891  0.00  0.00    +0.003 C 
ATOM     34  C   UNL     1      31.790  -9.504 -19.575  0.00  0.00    +0.000 C 
ENDBRANCH  28  29
ENDBRANCH  27  28
ENDBRANCH  26  27
ENDBRANCH   3  26
TORSDOF 10
ENDMDL
MODEL 9
REMARK VINA RESULT:     -10.9      2.642      4.221
REMARK  Name = 4449
REMARK  10 active torsions:
REMARK  status: ('A' for Active; 'I' for Inactive)
REMARK    1  A    between atoms: N_2  and  C_9
REMARK    2  A    between atoms: N_3  and  C_26
REMARK    3  A    between atoms: C_6  and  C_7
REMARK    4  A    between atoms: C_9  and  C_10
REMARK    5  A    between atoms: C_10  and  C_11
REMARK    6  A    between atoms: C_11  and  N_12
REMARK    7  A    between atoms: N_13  and  C_20
REMARK    8  A    between atoms: C_26  and  C_27
REMARK    9  A    between atoms: C_27  and  O_28
REMARK   10  A    between atoms: O_28  and  C_29
REMARK                            x       y       z     vdW  Elec       q    Type
REMARK                         _______ _______ _______ _____ _____    ______ ____
ROOT
ATOM      1  O   UNL     1      34.757 -18.869 -23.954  0.00  0.00    -0.245 OA
ATOM      2  N   UNL     1      34.750 -16.515 -23.934  0.00  0.00    -0.201 N 
ATOM      3  N   UNL     1      34.645 -17.579 -22.002  0.00  0.00    -0.263 N 
ATOM      4  N   UNL     1      34.693 -15.558 -22.955  0.00  0.00    -0.152 NA
ATOM      5  C   UNL     1      34.721 -17.798 -23.365  0.00  0.00    +0.348 A 
ATOM      6  C   UNL     1      34.630 -16.238 -21.847  0.00  0.00    +0.144 A 
ENDROOT
BRANCH   6   7
ATOM      7  C   UNL     1      34.556 -15.609 -20.497  0.00  0.00    +0.066 C 
ATOM      8  C   UNL     1      33.202 -14.964 -20.283  0.00  0.00    +0.008 C 
ENDBRANCH   6   7
BRANCH   2   9
ATOM      9  C   UNL     1      34.830 -16.165 -25.325  0.00  0.00    +0.130 C 
BRANCH   9  10
ATOM     10  C   UNL     1      33.484 -16.294 -26.038  0.00  0.00    +0.004 C 
BRANCH  10  11
ATOM     11  C   UNL     1      32.789 -14.959 -26.324  0.00  0.00    -0.075 C 
BRANCH  11  12
ATOM     12  N   UNL     1      33.382 -13.860 -25.564  0.00  0.00    +0.389 N 
ATOM     13  N   UNL     1      33.492 -11.252 -24.405  0.00  0.00    -0.312 N 
ATOM     14  C   UNL     1      32.546 -13.526 -24.405  0.00  0.00    -0.055 C 
ATOM     15  C   UNL     1      33.552 -12.676 -26.415  0.00  0.00    -0.055 C 
ATOM     16  C   UNL     1      33.185 -12.414 -23.568  0.00  0.00    +0.068 C 
ATOM     17  C   UNL     1      34.225 -11.537 -25.645  0.00  0.00    +0.068 C 
ATOM     18  H   UNL     1      34.299 -14.162 -25.232  0.00  0.00    -0.080 HD
BRANCH  13  20
ATOM     19 CL   UNL     1      31.959  -7.830 -20.917  0.00  0.00    -0.082 Cl
ATOM     20  C   UNL     1      33.668  -9.996 -23.813  0.00  0.00    +0.049 C 
ATOM     21  C   UNL     1      32.823  -9.587 -22.782  0.00  0.00    +0.026 C 
ATOM     22  C   UNL     1      34.693  -9.157 -24.250  0.00  0.00    +0.015 C 
ATOM     23  C   UNL     1      33.002  -8.337 -22.189  0.00  0.00    +0.059 C 
ATOM     24  C   UNL     1      34.872  -7.908 -23.657  0.00  0.00    +0.002 C 
ATOM     25  C   UNL     1      34.027  -7.497 -22.626  0.00  0.00    +0.011 C 
ENDBRANCH  13  20
ENDBRANCH  11  12
ENDBRANCH  10  11
ENDBRANCH   9  10
ENDBRANCH   2   9
BRANCH   3  26
ATOM     26  C   UNL     1      34.593 -18.603 -20.976  0.00  0.00    +0.159 C 
BRANCH  26  27
ATOM     27  C   UNL     1      35.899 -19.372 -20.888  0.00  0.00    +0.230 C 
BRANCH  27  28
ATOM     28  O   UNL     1      35.626 -20.767 -20.892  0.00  0.00    -0.473 OA
BRANCH  28  29
ATOM     29  C   UNL     1      35.475 -21.370 -19.671  0.00  0.00    +0.139 C 
ATOM     30  C   UNL     1      34.261 -21.970 -19.336  0.00  0.00    +0.037 C 
ATOM     31  C   UNL     1      36.533 -21.385 -18.764  0.00  0.00    +0.037 C 
ATOM     32  C   UNL     1      34.106 -22.585 -18.093  0.00  0.00    +0.003 C 
ATOM     33  C   UNL     1      36.379 -22.000 -17.521  0.00  0.00    +0.003 C 
ATOM     34  C   UNL     1      35.166 -22.599 -17.186  0.00  0.00    +0.000 C 
ENDBRANCH  28  29
ENDBRANCH  27  28
ENDBRANCH  26  27
ENDBRANCH   3  26
TORSDOF 10
ENDMDL
