MODEL 1
REMARK VINA RESULT:      -6.3      0.000      0.000
REMARK  Name = 9085
REMARK  8 active torsions:
REMARK  status: ('A' for Active; 'I' for Inactive)
REMARK    1  A    between atoms: C_1  and  C_2
REMARK    2  A    between atoms: C_1  and  C_12
REMARK    3  A    between atoms: C_2  and  C_3
REMARK    4  A    between atoms: C_3  and  N_4
REMARK    5  A    between atoms: C_3  and  C_9
REMARK    6  A    between atoms: C_9  and  O_10
REMARK    7  A    between atoms: C_12  and  C_13
REMARK    8  A    between atoms: C_13  and  N_14
REMARK                            x       y       z     vdW  Elec       q    Type
REMARK                         _______ _______ _______ _____ _____    ______ ____
ROOT
ATOM      1  C   UNK     1      38.248 -24.241 -12.081  0.00  0.00    +0.000 C 
ENDROOT
BRANCH   1   2
ATOM      2  C   UNK     1      38.446 -25.495 -12.945  0.00  0.00    -0.011 C 
BRANCH   2   3
ATOM      3  C   UNK     1      38.914 -25.211 -14.380  0.00  0.00    +0.036 C 
BRANCH   3   4
ATOM      4  N   UNK     1      37.902 -25.600 -15.361  0.00  0.00    +0.389 N 
ATOM      5  H   UNK     1      37.426 -26.444 -15.043  0.00  0.00    -0.088 HD
ATOM      6  H   UNK     1      38.351 -25.781 -16.259  0.00  0.00    -0.088 HD
ATOM      7  H   UNK     1      37.224 -24.846 -15.467  0.00  0.00    -0.088 HD
ENDBRANCH   3   4
BRANCH   3   9
ATOM      8  O   UNK     1      40.964 -26.464 -13.919  0.00  0.00    -0.253 OA
ATOM      9  C   UNK     1      40.203 -25.934 -14.716  0.00  0.00    +0.293 C 
BRANCH   9  10
ATOM     10  O   UNK     1      40.411 -25.936 -16.058  0.00  0.00    -0.482 OA
ATOM     11  H   UNK     1      40.515 -26.748 -16.514  0.00  0.00    +0.295 HD
ENDBRANCH   9  10
ENDBRANCH   3   9
ENDBRANCH   2   3
ENDBRANCH   1   2
BRANCH   1  12
ATOM     12  C   UNK     1      36.779 -24.084 -11.669  0.00  0.00    +0.024 C 
BRANCH  12  13
ATOM     13  C   UNK     1      35.878 -23.733 -12.849  0.00  0.00    +0.100 C 
BRANCH  13  14
ATOM     14  N   UNK     1      34.772 -24.688 -12.932  0.00  0.00    -0.347 N 
ATOM     15  N   UNK     1      32.636 -25.145 -13.707  0.00  0.00    -0.372 N 
ATOM     16  N   UNK     1      33.506 -23.101 -14.215  0.00  0.00    -0.372 N 
ATOM     17  C   UNK     1      33.719 -24.306 -13.584  0.00  0.00    +0.167 C 
ATOM     18  H   UNK     1      34.826 -25.578 -12.513  0.00  0.00    +0.163 HD
ATOM     19  H   UNK     1      32.659 -26.041 -13.300  0.00  0.00    +0.159 HD
ATOM     20  H   UNK     1      31.838 -24.850 -14.203  0.00  0.00    +0.159 HD
ATOM     21  H   UNK     1      34.206 -22.407 -14.202  0.00  0.00    +0.159 HD
ATOM     22  H   UNK     1      32.655 -22.932 -14.679  0.00  0.00    +0.159 HD
ENDBRANCH  13  14
ENDBRANCH  12  13
ENDBRANCH   1  12
TORSDOF 8
ENDMDL
MODEL 2
REMARK VINA RESULT:      -6.1      3.283      4.182
REMARK  Name = 9085
REMARK  8 active torsions:
REMARK  status: ('A' for Active; 'I' for Inactive)
REMARK    1  A    between atoms: C_1  and  C_2
REMARK    2  A    between atoms: C_1  and  C_12
REMARK    3  A    between atoms: C_2  and  C_3
REMARK    4  A    between atoms: C_3  and  N_4
REMARK    5  A    between atoms: C_3  and  C_9
REMARK    6  A    between atoms: C_9  and  O_10
REMARK    7  A    between atoms: C_12  and  C_13
REMARK    8  A    between atoms: C_13  and  N_14
REMARK                            x       y       z     vdW  Elec       q    Type
REMARK                         _______ _______ _______ _____ _____    ______ ____
ROOT
ATOM      1  C   UNK     1      38.231 -25.524 -13.439  0.00  0.00    +0.000 C 
ENDROOT
BRANCH   1   2
ATOM      2  C   UNK     1      37.924 -25.068 -12.004  0.00  0.00    -0.011 C 
BRANCH   2   3
ATOM      3  C   UNK     1      36.817 -24.008 -11.896  0.00  0.00    +0.036 C 
BRANCH   3   4
ATOM      4  N   UNK     1      37.310 -22.782 -11.270  0.00  0.00    +0.389 N 
ATOM      5  H   UNK     1      37.906 -22.279 -11.928  0.00  0.00    -0.088 HD
ATOM      6  H   UNK     1      37.848 -23.018 -10.436  0.00  0.00    -0.088 HD
ATOM      7  H   UNK     1      36.519 -22.192 -11.009  0.00  0.00    -0.088 HD
ENDBRANCH   3   4
BRANCH   3   9
ATOM      8  O   UNK     1      35.519 -24.501  -9.882  0.00  0.00    -0.253 OA
ATOM      9  C   UNK     1      35.626 -24.502 -11.100  0.00  0.00    +0.293 C 
BRANCH   9  10
ATOM     10  O   UNK     1      34.650 -24.947 -11.933  0.00  0.00    -0.482 OA
ATOM     11  H   UNK     1      34.575 -25.862 -12.120  0.00  0.00    +0.295 HD
ENDBRANCH   9  10
ENDBRANCH   3   9
ENDBRANCH   2   3
ENDBRANCH   1   2
BRANCH   1  12
ATOM     12  C   UNK     1      37.203 -26.556 -13.918  0.00  0.00    +0.024 C 
BRANCH  12  13
ATOM     13  C   UNK     1      36.448 -26.092 -15.159  0.00  0.00    +0.100 C 
BRANCH  13  14
ATOM     14  N   UNK     1      35.274 -25.312 -14.765  0.00  0.00    -0.347 N 
ATOM     15  N   UNK     1      34.225 -23.245 -14.716  0.00  0.00    -0.372 N 
ATOM     16  N   UNK     1      36.283 -23.338 -15.691  0.00  0.00    -0.372 N 
ATOM     17  C   UNK     1      35.290 -24.048 -15.053  0.00  0.00    +0.167 C 
ATOM     18  H   UNK     1      34.510 -25.726 -14.303  0.00  0.00    +0.163 HD
ATOM     19  H   UNK     1      33.447 -23.631 -14.253  0.00  0.00    +0.159 HD
ATOM     20  H   UNK     1      34.243 -22.286 -14.937  0.00  0.00    +0.159 HD
ATOM     21  H   UNK     1      37.104 -23.796 -15.986  0.00  0.00    +0.159 HD
ATOM     22  H   UNK     1      36.173 -22.374 -15.852  0.00  0.00    +0.159 HD
ENDBRANCH  13  14
ENDBRANCH  12  13
ENDBRANCH   1  12
TORSDOF 8
ENDMDL
MODEL 3
REMARK VINA RESULT:      -6.0      7.621      9.139
REMARK  Name = 9085
REMARK  8 active torsions:
REMARK  status: ('A' for Active; 'I' for Inactive)
REMARK    1  A    between atoms: C_1  and  C_2
REMARK    2  A    between atoms: C_1  and  C_12
REMARK    3  A    between atoms: C_2  and  C_3
REMARK    4  A    between atoms: C_3  and  N_4
REMARK    5  A    between atoms: C_3  and  C_9
REMARK    6  A    between atoms: C_9  and  O_10
REMARK    7  A    between atoms: C_12  and  C_13
REMARK    8  A    between atoms: C_13  and  N_14
REMARK                            x       y       z     vdW  Elec       q    Type
REMARK                         _______ _______ _______ _____ _____    ______ ____
ROOT
ATOM      1  C   UNK     1      31.535 -22.871 -16.462  0.00  0.00    +0.000 C 
ENDROOT
BRANCH   1   2
ATOM      2  C   UNK     1      30.694 -24.091 -16.056  0.00  0.00    -0.011 C 
BRANCH   2   3
ATOM      3  C   UNK     1      29.277 -23.753 -15.568  0.00  0.00    +0.036 C 
BRANCH   3   4
ATOM      4  N   UNK     1      28.663 -24.887 -14.878  0.00  0.00    +0.389 N 
ATOM      5  H   UNK     1      28.257 -24.571 -13.997  0.00  0.00    -0.088 HD
ATOM      6  H   UNK     1      29.373 -25.596 -14.691  0.00  0.00    -0.088 HD
ATOM      7  H   UNK     1      27.931 -25.286 -15.466  0.00  0.00    -0.088 HD
ENDBRANCH   3   4
BRANCH   3   9
ATOM      8  O   UNK     1      27.798 -24.084 -17.488  0.00  0.00    -0.253 OA
ATOM      9  C   UNK     1      28.364 -23.337 -16.703  0.00  0.00    +0.293 C 
BRANCH   9  10
ATOM     10  O   UNK     1      28.232 -21.986 -16.736  0.00  0.00    -0.482 OA
ATOM     11  H   UNK     1      28.157 -21.503 -15.936  0.00  0.00    +0.295 HD
ENDBRANCH   9  10
ENDBRANCH   3   9
ENDBRANCH   2   3
ENDBRANCH   1   2
BRANCH   1  12
ATOM     12  C   UNK     1      33.020 -23.238 -16.563  0.00  0.00    +0.024 C 
BRANCH  12  13
ATOM     13  C   UNK     1      33.540 -23.176 -17.995  0.00  0.00    +0.100 C 
BRANCH  13  14
ATOM     14  N   UNK     1      32.754 -22.214 -18.769  0.00  0.00    -0.347 N 
ATOM     15  N   UNK     1      32.751 -20.430 -20.248  0.00  0.00    -0.372 N 
ATOM     16  N   UNK     1      34.782 -21.256 -19.627  0.00  0.00    -0.372 N 
ATOM     17  C   UNK     1      33.416 -21.367 -19.492  0.00  0.00    +0.167 C 
ATOM     18  H   UNK     1      31.770 -22.210 -18.741  0.00  0.00    +0.163 HD
ATOM     19  H   UNK     1      31.767 -20.401 -20.241  0.00  0.00    +0.159 HD
ATOM     20  H   UNK     1      33.260 -19.788 -20.796  0.00  0.00    +0.159 HD
ATOM     21  H   UNK     1      35.377 -21.870 -19.137  0.00  0.00    +0.159 HD
ATOM     22  H   UNK     1      35.165 -20.564 -20.213  0.00  0.00    +0.159 HD
ENDBRANCH  13  14
ENDBRANCH  12  13
ENDBRANCH   1  12
TORSDOF 8
ENDMDL
MODEL 4
REMARK VINA RESULT:      -5.9      8.875     10.102
REMARK  Name = 9085
REMARK  8 active torsions:
REMARK  status: ('A' for Active; 'I' for Inactive)
REMARK    1  A    between atoms: C_1  and  C_2
REMARK    2  A    between atoms: C_1  and  C_12
REMARK    3  A    between atoms: C_2  and  C_3
REMARK    4  A    between atoms: C_3  and  N_4
REMARK    5  A    between atoms: C_3  and  C_9
REMARK    6  A    between atoms: C_9  and  O_10
REMARK    7  A    between atoms: C_12  and  C_13
REMARK    8  A    between atoms: C_13  and  N_14
REMARK                            x       y       z     vdW  Elec       q    Type
REMARK                         _______ _______ _______ _____ _____    ______ ____
ROOT
ATOM      1  C   UNK     1      32.933 -20.206 -20.896  0.00  0.00    +0.000 C 
ENDROOT
BRANCH   1   2
ATOM      2  C   UNK     1      33.171 -20.878 -19.535  0.00  0.00    -0.011 C 
BRANCH   2   3
ATOM      3  C   UNK     1      34.177 -22.039 -19.566  0.00  0.00    +0.036 C 
BRANCH   3   4
ATOM      4  N   UNK     1      33.618 -23.248 -18.962  0.00  0.00    +0.389 N 
ATOM      5  H   UNK     1      32.651 -23.364 -19.266  0.00  0.00    -0.088 HD
ATOM      6  H   UNK     1      33.647 -23.166 -17.946  0.00  0.00    -0.088 HD
ATOM      7  H   UNK     1      34.165 -24.058 -19.254  0.00  0.00    -0.088 HD
ENDBRANCH   3   4
BRANCH   3   9
ATOM      8  O   UNK     1      36.254 -20.817 -19.147  0.00  0.00    -0.253 OA
ATOM      9  C   UNK     1      35.465 -21.700 -18.843  0.00  0.00    +0.293 C 
BRANCH   9  10
ATOM     10  O   UNK     1      35.636 -22.515 -17.770  0.00  0.00    -0.482 OA
ATOM     11  H   UNK     1      35.377 -23.415 -17.819  0.00  0.00    +0.295 HD
ENDBRANCH   9  10
ENDBRANCH   3   9
ENDBRANCH   2   3
ENDBRANCH   1   2
BRANCH   1  12
ATOM     12  C   UNK     1      33.878 -19.014 -21.092  0.00  0.00    +0.024 C 
BRANCH  12  13
ATOM     13  C   UNK     1      35.019 -19.328 -22.054  0.00  0.00    +0.100 C 
BRANCH  13  14
ATOM     14  N   UNK     1      34.600 -19.058 -23.429  0.00  0.00    -0.347 N 
ATOM     15  N   UNK     1      34.621 -17.600 -25.231  0.00  0.00    -0.372 N 
ATOM     16  N   UNK     1      35.727 -16.938 -23.351  0.00  0.00    -0.372 N 
ATOM     17  C   UNK     1      34.974 -17.929 -23.943  0.00  0.00    +0.167 C 
ATOM     18  H   UNK     1      34.059 -19.703 -23.940  0.00  0.00    +0.163 HD
ATOM     19  H   UNK     1      34.080 -18.224 -25.767  0.00  0.00    +0.159 HD
ATOM     20  H   UNK     1      34.908 -16.740 -25.616  0.00  0.00    +0.159 HD
ATOM     21  H   UNK     1      36.046 -17.049 -22.426  0.00  0.00    +0.159 HD
ATOM     22  H   UNK     1      35.945 -16.120 -23.853  0.00  0.00    +0.159 HD
ENDBRANCH  13  14
ENDBRANCH  12  13
ENDBRANCH   1  12
TORSDOF 8
ENDMDL
MODEL 5
REMARK VINA RESULT:      -5.9      5.988      8.376
REMARK  Name = 9085
REMARK  8 active torsions:
REMARK  status: ('A' for Active; 'I' for Inactive)
REMARK    1  A    between atoms: C_1  and  C_2
REMARK    2  A    between atoms: C_1  and  C_12
REMARK    3  A    between atoms: C_2  and  C_3
REMARK    4  A    between atoms: C_3  and  N_4
REMARK    5  A    between atoms: C_3  and  C_9
REMARK    6  A    between atoms: C_9  and  O_10
REMARK    7  A    between atoms: C_12  and  C_13
REMARK    8  A    between atoms: C_13  and  N_14
REMARK                            x       y       z     vdW  Elec       q    Type
REMARK                         _______ _______ _______ _____ _____    ______ ____
ROOT
ATOM      1  C   UNK     1      31.336 -23.361 -16.311  0.00  0.00    +0.000 C 
ENDROOT
BRANCH   1   2
ATOM      2  C   UNK     1      30.297 -22.797 -15.330  0.00  0.00    -0.011 C 
BRANCH   2   3
ATOM      3  C   UNK     1      28.910 -23.449 -15.428  0.00  0.00    +0.036 C 
BRANCH   3   4
ATOM      4  N   UNK     1      28.975 -24.888 -15.179  0.00  0.00    +0.389 N 
ATOM      5  H   UNK     1      29.950 -25.188 -15.167  0.00  0.00    -0.088 HD
ATOM      6  H   UNK     1      28.476 -25.385 -15.917  0.00  0.00    -0.088 HD
ATOM      7  H   UNK     1      28.544 -25.097 -14.278  0.00  0.00    -0.088 HD
ENDBRANCH   3   4
BRANCH   3   9
ATOM      8  O   UNK     1      27.788 -24.093 -17.504  0.00  0.00    -0.253 OA
ATOM      9  C   UNK     1      28.269 -23.231 -16.784  0.00  0.00    +0.293 C 
BRANCH   9  10
ATOM     10  O   UNK     1      28.279 -21.912 -17.107  0.00  0.00    -0.482 OA
ATOM     11  H   UNK     1      29.074 -21.419 -17.039  0.00  0.00    +0.295 HD
ENDBRANCH   9  10
ENDBRANCH   3   9
ENDBRANCH   2   3
ENDBRANCH   1   2
BRANCH   1  12
ATOM     12  C   UNK     1      32.731 -23.395 -15.674  0.00  0.00    +0.024 C 
BRANCH  12  13
ATOM     13  C   UNK     1      32.763 -24.210 -14.386  0.00  0.00    +0.100 C 
BRANCH  13  14
ATOM     14  N   UNK     1      33.579 -23.525 -13.383  0.00  0.00    -0.347 N 
ATOM     15  N   UNK     1      35.573 -23.448 -12.203  0.00  0.00    -0.372 N 
ATOM     16  N   UNK     1      35.320 -25.149 -13.699  0.00  0.00    -0.372 N 
ATOM     17  C   UNK     1      34.745 -24.033 -13.133  0.00  0.00    +0.167 C 
ATOM     18  H   UNK     1      33.258 -22.718 -12.920  0.00  0.00    +0.163 HD
ATOM     19  H   UNK     1      35.279 -22.640 -11.723  0.00  0.00    +0.159 HD
ATOM     20  H   UNK     1      36.458 -23.838 -12.017  0.00  0.00    +0.159 HD
ATOM     21  H   UNK     1      34.831 -25.662 -14.383  0.00  0.00    +0.159 HD
ATOM     22  H   UNK     1      36.220 -25.433 -13.421  0.00  0.00    +0.159 HD
ENDBRANCH  13  14
ENDBRANCH  12  13
ENDBRANCH   1  12
TORSDOF 8
ENDMDL
MODEL 6
REMARK VINA RESULT:      -5.9      3.267      3.930
REMARK  Name = 9085
REMARK  8 active torsions:
REMARK  status: ('A' for Active; 'I' for Inactive)
REMARK    1  A    between atoms: C_1  and  C_2
REMARK    2  A    between atoms: C_1  and  C_12
REMARK    3  A    between atoms: C_2  and  C_3
REMARK    4  A    between atoms: C_3  and  N_4
REMARK    5  A    between atoms: C_3  and  C_9
REMARK    6  A    between atoms: C_9  and  O_10
REMARK    7  A    between atoms: C_12  and  C_13
REMARK    8  A    between atoms: C_13  and  N_14
REMARK                            x       y       z     vdW  Elec       q    Type
REMARK                         _______ _______ _______ _____ _____    ______ ____
ROOT
ATOM      1  C   UNK     1      37.188 -25.489 -14.483  0.00  0.00    +0.000 C 
ENDROOT
BRANCH   1   2
ATOM      2  C   UNK     1      37.210 -25.637 -12.954  0.00  0.00    -0.011 C 
BRANCH   2   3
ATOM      3  C   UNK     1      36.987 -24.327 -12.184  0.00  0.00    +0.036 C 
BRANCH   3   4
ATOM      4  N   UNK     1      38.226 -23.847 -11.574  0.00  0.00    +0.389 N 
ATOM      5  H   UNK     1      38.312 -22.841 -11.725  0.00  0.00    -0.088 HD
ATOM      6  H   UNK     1      39.021 -24.323 -11.999  0.00  0.00    -0.088 HD
ATOM      7  H   UNK     1      38.209 -24.040 -10.573  0.00  0.00    -0.088 HD
ENDBRANCH   3   4
BRANCH   3   9
ATOM      8  O   UNK     1      36.080 -24.162  -9.918  0.00  0.00    -0.253 OA
ATOM      9  C   UNK     1      35.946 -24.474 -11.093  0.00  0.00    +0.293 C 
BRANCH   9  10
ATOM     10  O   UNK     1      34.799 -24.997 -11.598  0.00  0.00    -0.482 OA
ATOM     11  H   UNK     1      34.245 -25.523 -11.055  0.00  0.00    +0.295 HD
ENDBRANCH   9  10
ENDBRANCH   3   9
ENDBRANCH   2   3
ENDBRANCH   1   2
BRANCH   1  12
ATOM     12  C   UNK     1      36.385 -24.252 -14.903  0.00  0.00    +0.024 C 
BRANCH  12  13
ATOM     13  C   UNK     1      34.902 -24.556 -15.085  0.00  0.00    +0.100 C 
BRANCH  13  14
ATOM     14  N   UNK     1      34.098 -23.485 -14.493  0.00  0.00    -0.347 N 
ATOM     15  N   UNK     1      32.182 -22.891 -13.332  0.00  0.00    -0.372 N 
ATOM     16  N   UNK     1      32.475 -25.106 -13.779  0.00  0.00    -0.372 N 
ATOM     17  C   UNK     1      32.994 -23.837 -13.912  0.00  0.00    +0.167 C 
ATOM     18  H   UNK     1      34.381 -22.543 -14.535  0.00  0.00    +0.163 HD
ATOM     19  H   UNK     1      32.439 -21.941 -13.358  0.00  0.00    +0.159 HD
ATOM     20  H   UNK     1      31.344 -23.163 -12.892  0.00  0.00    +0.159 HD
ATOM     21  H   UNK     1      32.961 -25.878 -14.152  0.00  0.00    +0.159 HD
ATOM     22  H   UNK     1      31.620 -25.242 -13.311  0.00  0.00    +0.159 HD
ENDBRANCH  13  14
ENDBRANCH  12  13
ENDBRANCH   1  12
TORSDOF 8
ENDMDL
MODEL 7
REMARK VINA RESULT:      -5.9      1.642      2.028
REMARK  Name = 9085
REMARK  8 active torsions:
REMARK  status: ('A' for Active; 'I' for Inactive)
REMARK    1  A    between atoms: C_1  and  C_2
REMARK    2  A    between atoms: C_1  and  C_12
REMARK    3  A    between atoms: C_2  and  C_3
REMARK    4  A    between atoms: C_3  and  N_4
REMARK    5  A    between atoms: C_3  and  C_9
REMARK    6  A    between atoms: C_9  and  O_10
REMARK    7  A    between atoms: C_12  and  C_13
REMARK    8  A    between atoms: C_13  and  N_14
REMARK                            x       y       z     vdW  Elec       q    Type
REMARK                         _______ _______ _______ _____ _____    ______ ____
ROOT
ATOM      1  C   UNK     1      36.525 -24.577 -13.846  0.00  0.00    +0.000 C 
ENDROOT
BRANCH   1   2
ATOM      2  C   UNK     1      37.636 -24.779 -14.887  0.00  0.00    -0.011 C 
BRANCH   2   3
ATOM      3  C   UNK     1      38.698 -25.816 -14.492  0.00  0.00    +0.036 C 
BRANCH   3   4
ATOM      4  N   UNK     1      38.699 -26.059 -13.050  0.00  0.00    +0.389 N 
ATOM      5  H   UNK     1      38.064 -25.404 -12.594  0.00  0.00    -0.088 HD
ATOM      6  H   UNK     1      39.643 -25.928 -12.684  0.00  0.00    -0.088 HD
ATOM      7  H   UNK     1      38.393 -27.014 -12.866  0.00  0.00    -0.088 HD
ENDBRANCH   3   4
BRANCH   3   9
ATOM      8  O   UNK     1      40.847 -24.669 -14.268  0.00  0.00    -0.253 OA
ATOM      9  C   UNK     1      40.094 -25.393 -14.903  0.00  0.00    +0.293 C 
BRANCH   9  10
ATOM     10  O   UNK     1      40.425 -25.946 -16.099  0.00  0.00    -0.482 OA
ATOM     11  H   UNK     1      41.326 -26.045 -16.335  0.00  0.00    +0.295 HD
ENDBRANCH   9  10
ENDBRANCH   3   9
ENDBRANCH   2   3
ENDBRANCH   1   2
BRANCH   1  12
ATOM     12  C   UNK     1      35.140 -24.641 -14.501  0.00  0.00    +0.024 C 
BRANCH  12  13
ATOM     13  C   UNK     1      34.035 -24.146 -13.576  0.00  0.00    +0.100 C 
BRANCH  13  14
ATOM     14  N   UNK     1      32.885 -25.048 -13.645  0.00  0.00    -0.347 N 
ATOM     15  N   UNK     1      30.592 -25.282 -13.892  0.00  0.00    -0.372 N 
ATOM     16  N   UNK     1      31.428 -23.162 -13.943  0.00  0.00    -0.372 N 
ATOM     17  C   UNK     1      31.722 -24.502 -13.816  0.00  0.00    +0.167 C 
ATOM     18  H   UNK     1      32.990 -26.024 -13.565  0.00  0.00    +0.163 HD
ATOM     19  H   UNK     1      30.665 -26.260 -13.815  0.00  0.00    +0.159 HD
ATOM     20  H   UNK     1      29.711 -24.861 -14.022  0.00  0.00    +0.159 HD
ATOM     21  H   UNK     1      32.151 -22.493 -13.907  0.00  0.00    +0.159 HD
ATOM     22  H   UNK     1      30.496 -22.873 -14.070  0.00  0.00    +0.159 HD
ENDBRANCH  13  14
ENDBRANCH  12  13
ENDBRANCH   1  12
TORSDOF 8
ENDMDL
MODEL 8
REMARK VINA RESULT:      -5.8     12.902     14.190
REMARK  Name = 9085
REMARK  8 active torsions:
REMARK  status: ('A' for Active; 'I' for Inactive)
REMARK    1  A    between atoms: C_1  and  C_2
REMARK    2  A    between atoms: C_1  and  C_12
REMARK    3  A    between atoms: C_2  and  C_3
REMARK    4  A    between atoms: C_3  and  N_4
REMARK    5  A    between atoms: C_3  and  C_9
REMARK    6  A    between atoms: C_9  and  O_10
REMARK    7  A    between atoms: C_12  and  C_13
REMARK    8  A    between atoms: C_13  and  N_14
REMARK                            x       y       z     vdW  Elec       q    Type
REMARK                         _______ _______ _______ _____ _____    ______ ____
ROOT
ATOM      1  C   UNK     1      32.621 -14.697 -21.455  0.00  0.00    +0.000 C 
ENDROOT
BRANCH   1   2
ATOM      2  C   UNK     1      32.535 -13.690 -22.611  0.00  0.00    -0.011 C 
BRANCH   2   3
ATOM      3  C   UNK     1      33.701 -13.764 -23.608  0.00  0.00    +0.036 C 
BRANCH   3   4
ATOM      4  N   UNK     1      34.031 -12.445 -24.146  0.00  0.00    +0.389 N 
ATOM      5  H   UNK     1      33.689 -12.372 -25.104  0.00  0.00    -0.088 HD
ATOM      6  H   UNK     1      35.043 -12.316 -24.135  0.00  0.00    -0.088 HD
ATOM      7  H   UNK     1      33.591 -11.724 -23.572  0.00  0.00    -0.088 HD
ENDBRANCH   3   4
BRANCH   3   9
ATOM      8  O   UNK     1      32.712 -14.428 -25.745  0.00  0.00    -0.253 OA
ATOM      9  C   UNK     1      33.403 -14.689 -24.771  0.00  0.00    +0.293 C 
BRANCH   9  10
ATOM     10  O   UNK     1      34.032 -15.881 -24.602  0.00  0.00    -0.482 OA
ATOM     11  H   UNK     1      34.502 -16.055 -23.810  0.00  0.00    +0.295 HD
ENDBRANCH   9  10
ENDBRANCH   3   9
ENDBRANCH   2   3
ENDBRANCH   1   2
BRANCH   1  12
ATOM     12  C   UNK     1      33.998 -14.641 -20.780  0.00  0.00    +0.024 C 
BRANCH  12  13
ATOM     13  C   UNK     1      34.636 -16.019 -20.645  0.00  0.00    +0.100 C 
BRANCH  13  14
ATOM     14  N   UNK     1      35.057 -16.505 -21.960  0.00  0.00    -0.347 N 
ATOM     15  N   UNK     1      35.996 -18.220 -23.205  0.00  0.00    -0.372 N 
ATOM     16  N   UNK     1      35.782 -18.565 -20.962  0.00  0.00    -0.372 N 
ATOM     17  C   UNK     1      35.575 -17.692 -22.007  0.00  0.00    +0.167 C 
ATOM     18  H   UNK     1      34.952 -15.955 -22.771  0.00  0.00    +0.163 HD
ATOM     19  H   UNK     1      35.905 -17.695 -24.032  0.00  0.00    +0.159 HD
ATOM     20  H   UNK     1      36.390 -19.122 -23.234  0.00  0.00    +0.159 HD
ATOM     21  H   UNK     1      35.524 -18.309 -20.046  0.00  0.00    +0.159 HD
ATOM     22  H   UNK     1      36.188 -19.446 -21.130  0.00  0.00    +0.159 HD
ENDBRANCH  13  14
ENDBRANCH  12  13
ENDBRANCH   1  12
TORSDOF 8
ENDMDL
MODEL 9
REMARK VINA RESULT:      -5.8     11.885     13.106
REMARK  Name = 9085
REMARK  8 active torsions:
REMARK  status: ('A' for Active; 'I' for Inactive)
REMARK    1  A    between atoms: C_1  and  C_2
REMARK    2  A    between atoms: C_1  and  C_12
REMARK    3  A    between atoms: C_2  and  C_3
REMARK    4  A    between atoms: C_3  and  N_4
REMARK    5  A    between atoms: C_3  and  C_9
REMARK    6  A    between atoms: C_9  and  O_10
REMARK    7  A    between atoms: C_12  and  C_13
REMARK    8  A    between atoms: C_13  and  N_14
REMARK                            x       y       z     vdW  Elec       q    Type
REMARK                         _______ _______ _______ _____ _____    ______ ____
ROOT
ATOM      1  C   UNK     1      34.485 -16.780 -25.097  0.00  0.00    +0.000 C 
ENDROOT
BRANCH   1   2
ATOM      2  C   UNK     1      34.901 -15.930 -23.887  0.00  0.00    -0.011 C 
BRANCH   2   3
ATOM      3  C   UNK     1      33.809 -14.981 -23.370  0.00  0.00    +0.036 C 
BRANCH   3   4
ATOM      4  N   UNK     1      34.276 -13.596 -23.336  0.00  0.00    +0.389 N 
ATOM      5  H   UNK     1      35.278 -13.569 -23.527  0.00  0.00    -0.088 HD
ATOM      6  H   UNK     1      34.095 -13.198 -22.414  0.00  0.00    -0.088 HD
ATOM      7  H   UNK     1      33.780 -13.052 -24.043  0.00  0.00    -0.088 HD
ENDBRANCH   3   4
BRANCH   3   9
ATOM      8  O   UNK     1      32.203 -15.213 -21.539  0.00  0.00    -0.253 OA
ATOM      9  C   UNK     1      33.334 -15.356 -21.981  0.00  0.00    +0.293 C 
BRANCH   9  10
ATOM     10  O   UNK     1      34.349 -15.904 -21.264  0.00  0.00    -0.482 OA
ATOM     11  H   UNK     1      35.218 -15.916 -21.615  0.00  0.00    +0.295 HD
ENDBRANCH   9  10
ENDBRANCH   3   9
ENDBRANCH   2   3
ENDBRANCH   1   2
BRANCH   1  12
ATOM     12  C   UNK     1      34.571 -18.276 -24.773  0.00  0.00    +0.024 C 
BRANCH  12  13
ATOM     13  C   UNK     1      35.363 -18.551 -23.500  0.00  0.00    +0.100 C 
BRANCH  13  14
ATOM     14  N   UNK     1      34.591 -19.420 -22.610  0.00  0.00    -0.347 N 
ATOM     15  N   UNK     1      34.180 -20.133 -20.444  0.00  0.00    -0.372 N 
ATOM     16  N   UNK     1      35.795 -18.549 -20.723  0.00  0.00    -0.372 N 
ATOM     17  C   UNK     1      34.862 -19.349 -21.345  0.00  0.00    +0.167 C 
ATOM     18  H   UNK     1      33.900 -20.029 -22.957  0.00  0.00    +0.163 HD
ATOM     19  H   UNK     1      33.484 -20.752 -20.760  0.00  0.00    +0.159 HD
ATOM     20  H   UNK     1      34.390 -20.075 -19.483  0.00  0.00    +0.159 HD
ATOM     21  H   UNK     1      36.353 -17.937 -21.257  0.00  0.00    +0.159 HD
ATOM     22  H   UNK     1      35.905 -18.589 -19.746  0.00  0.00    +0.159 HD
ENDBRANCH  13  14
ENDBRANCH  12  13
ENDBRANCH   1  12
TORSDOF 8
ENDMDL
