MODEL 1
REMARK VINA RESULT:      -9.1      0.000      0.000
REMARK  Name = 44668
REMARK  3 active torsions:
REMARK  status: ('A' for Active; 'I' for Inactive)
REMARK    1  A    between atoms: C_1  and  C_3
REMARK    2  A    between atoms: C_1  and  C_12
REMARK    3  A    between atoms: C_12  and  C_14
REMARK                            x       y       z     vdW  Elec       q    Type
REMARK                         _______ _______ _______ _____ _____    ______ ____
ROOT
ATOM      1  C   UNL     1      35.147 -17.297 -21.810  0.00  0.00    +0.028 C 
ENDROOT
BRANCH   1   3
ATOM      2  N   UNL     1      36.800 -20.234 -20.404  0.00  0.00    -0.312 N 
ATOM      3  C   UNL     1      35.557 -18.594 -21.180  0.00  0.00    -0.006 C 
ATOM      4  C   UNL     1      34.685 -19.577 -20.672  0.00  0.00    +0.011 C 
ATOM      5  C   UNL     1      36.845 -19.007 -21.011  0.00  0.00    +0.058 C 
ATOM      6  C   UNL     1      35.493 -20.607 -20.185  0.00  0.00    +0.048 C 
ATOM      7  C   UNL     1      33.285 -19.709 -20.570  0.00  0.00    +0.001 C 
ATOM      8  C   UNL     1      34.971 -21.766 -19.601  0.00  0.00    +0.015 C 
ATOM      9  C   UNL     1      32.748 -20.862 -19.986  0.00  0.00    +0.000 C 
ATOM     10  C   UNL     1      33.580 -21.874 -19.510  0.00  0.00    +0.001 C 
ATOM     11  H   UNL     1      37.588 -20.771 -20.161  0.00  0.00    +0.152 HD
ENDBRANCH   1   3
BRANCH   1  12
ATOM     12  C   UNL     1      34.773 -16.244 -20.765  0.00  0.00    +0.005 C 
BRANCH  12  14
ATOM     13  N   UNL     1      32.538 -13.585 -23.339  0.00  0.00    +0.384 N 
ATOM     14  C   UNL     1      34.294 -14.955 -21.426  0.00  0.00    -0.004 C 
ATOM     15  C   UNL     1      34.545 -14.984 -22.939  0.00  0.00    -0.023 C 
ATOM     16  C   UNL     1      32.804 -14.714 -21.147  0.00  0.00    -0.023 C 
ATOM     17  C   UNL     1      33.967 -13.743 -23.618  0.00  0.00    -0.082 C 
ATOM     18  C   UNL     1      32.294 -13.484 -21.899  0.00  0.00    -0.082 C 
ATOM     19  H   UNL     1      32.034 -14.393 -23.707  0.00  0.00    -0.085 HD
ATOM     20  H   UNL     1      32.212 -12.728 -23.786  0.00  0.00    -0.085 HD
ENDBRANCH  12  14
ENDBRANCH   1  12
TORSDOF 3
ENDMDL
MODEL 2
REMARK VINA RESULT:      -9.1      1.279      1.777
REMARK  Name = 44668
REMARK  3 active torsions:
REMARK  status: ('A' for Active; 'I' for Inactive)
REMARK    1  A    between atoms: C_1  and  C_3
REMARK    2  A    between atoms: C_1  and  C_12
REMARK    3  A    between atoms: C_12  and  C_14
REMARK                            x       y       z     vdW  Elec       q    Type
REMARK                         _______ _______ _______ _____ _____    ______ ____
ROOT
ATOM      1  C   UNL     1      34.596 -17.663 -22.087  0.00  0.00    +0.028 C 
ENDROOT
BRANCH   1   3
ATOM      2  N   UNL     1      36.776 -19.993 -20.310  0.00  0.00    -0.312 N 
ATOM      3  C   UNL     1      35.245 -18.754 -21.288  0.00  0.00    -0.006 C 
ATOM      4  C   UNL     1      34.577 -19.808 -20.634  0.00  0.00    +0.011 C 
ATOM      5  C   UNL     1      36.587 -18.878 -21.082  0.00  0.00    +0.058 C 
ATOM      6  C   UNL     1      35.565 -20.581 -20.021  0.00  0.00    +0.048 C 
ATOM      7  C   UNL     1      33.228 -20.195 -20.494  0.00  0.00    +0.001 C 
ATOM      8  C   UNL     1      35.272 -21.726 -19.271  0.00  0.00    +0.015 C 
ATOM      9  C   UNL     1      32.921 -21.337 -19.746  0.00  0.00    +0.000 C 
ATOM     10  C   UNL     1      33.929 -22.090 -19.145  0.00  0.00    +0.001 C 
ATOM     11  H   UNL     1      37.651 -20.326 -20.006  0.00  0.00    +0.152 HD
ENDBRANCH   1   3
BRANCH   1  12
ATOM     12  C   UNL     1      35.081 -17.648 -23.537  0.00  0.00    +0.005 C 
BRANCH  12  14
ATOM     13  N   UNL     1      32.928 -14.167 -24.933  0.00  0.00    +0.384 N 
ATOM     14  C   UNL     1      34.809 -16.299 -24.197  0.00  0.00    -0.004 C 
ATOM     15  C   UNL     1      33.818 -16.442 -25.359  0.00  0.00    -0.023 C 
ATOM     16  C   UNL     1      34.275 -15.285 -23.175  0.00  0.00    -0.023 C 
ATOM     17  C   UNL     1      33.459 -15.079 -25.949  0.00  0.00    -0.082 C 
ATOM     18  C   UNL     1      33.897 -13.967 -23.852  0.00  0.00    -0.082 C 
ATOM     19  H   UNL     1      32.072 -14.564 -24.544  0.00  0.00    -0.085 HD
ATOM     20  H   UNL     1      32.738 -13.267 -25.371  0.00  0.00    -0.085 HD
ENDBRANCH  12  14
ENDBRANCH   1  12
TORSDOF 3
ENDMDL
MODEL 3
REMARK VINA RESULT:      -9.0      1.846      2.804
REMARK  Name = 44668
REMARK  3 active torsions:
REMARK  status: ('A' for Active; 'I' for Inactive)
REMARK    1  A    between atoms: C_1  and  C_3
REMARK    2  A    between atoms: C_1  and  C_12
REMARK    3  A    between atoms: C_12  and  C_14
REMARK                            x       y       z     vdW  Elec       q    Type
REMARK                         _______ _______ _______ _____ _____    ______ ____
ROOT
ATOM      1  C   UNL     1      35.666 -18.630 -21.844  0.00  0.00    +0.028 C 
ENDROOT
BRANCH   1   3
ATOM      2  N   UNL     1      32.684 -20.363 -20.643  0.00  0.00    -0.312 N 
ATOM      3  C   UNL     1      34.627 -19.487 -21.184  0.00  0.00    -0.006 C 
ATOM      4  C   UNL     1      34.869 -20.472 -20.207  0.00  0.00    +0.011 C 
ATOM      5  C   UNL     1      33.290 -19.430 -21.442  0.00  0.00    +0.058 C 
ATOM      6  C   UNL     1      33.625 -21.015 -19.878  0.00  0.00    +0.048 C 
ATOM      7  C   UNL     1      36.018 -20.968 -19.558  0.00  0.00    +0.001 C 
ATOM      8  C   UNL     1      33.471 -22.031 -18.929  0.00  0.00    +0.015 C 
ATOM      9  C   UNL     1      35.879 -21.986 -18.608  0.00  0.00    +0.000 C 
ATOM     10  C   UNL     1      34.624 -22.508 -18.299  0.00  0.00    +0.001 C 
ATOM     11  H   UNL     1      31.716 -20.540 -20.619  0.00  0.00    +0.152 HD
ENDBRANCH   1   3
BRANCH   1  12
ATOM     12  C   UNL     1      35.550 -18.657 -23.368  0.00  0.00    +0.005 C 
BRANCH  12  14
ATOM     13  N   UNL     1      33.419 -15.039 -24.399  0.00  0.00    +0.384 N 
ATOM     14  C   UNL     1      35.276 -17.264 -23.927  0.00  0.00    -0.004 C 
ATOM     15  C   UNL     1      34.200 -17.309 -25.019  0.00  0.00    -0.023 C 
ATOM     16  C   UNL     1      34.851 -16.298 -22.813  0.00  0.00    -0.023 C 
ATOM     17  C   UNL     1      33.845 -15.903 -25.502  0.00  0.00    -0.082 C 
ATOM     18  C   UNL     1      34.469 -14.932 -23.383  0.00  0.00    -0.082 C 
ATOM     19  H   UNL     1      32.580 -15.433 -23.971  0.00  0.00    -0.085 HD
ATOM     20  H   UNL     1      33.227 -14.109 -24.769  0.00  0.00    -0.085 HD
ENDBRANCH  12  14
ENDBRANCH   1  12
TORSDOF 3
ENDMDL
MODEL 4
REMARK VINA RESULT:      -8.9      2.054      6.586
REMARK  Name = 44668
REMARK  3 active torsions:
REMARK  status: ('A' for Active; 'I' for Inactive)
REMARK    1  A    between atoms: C_1  and  C_3
REMARK    2  A    between atoms: C_1  and  C_12
REMARK    3  A    between atoms: C_12  and  C_14
REMARK                            x       y       z     vdW  Elec       q    Type
REMARK                         _______ _______ _______ _____ _____    ______ ____
ROOT
ATOM      1  C   UNL     1      35.338 -17.508 -21.876  0.00  0.00    +0.028 C 
ENDROOT
BRANCH   1   3
ATOM      2  N   UNL     1      34.364 -17.625 -25.394  0.00  0.00    -0.312 N 
ATOM      3  C   UNL     1      34.855 -17.283 -23.278  0.00  0.00    -0.006 C 
ATOM      4  C   UNL     1      34.297 -16.089 -23.778  0.00  0.00    +0.011 C 
ATOM      5  C   UNL     1      34.890 -18.213 -24.275  0.00  0.00    +0.058 C 
ATOM      6  C   UNL     1      33.993 -16.328 -25.120  0.00  0.00    +0.048 C 
ATOM      7  C   UNL     1      34.014 -14.820 -23.234  0.00  0.00    +0.001 C 
ATOM      8  C   UNL     1      33.418 -15.358 -25.948  0.00  0.00    +0.015 C 
ATOM      9  C   UNL     1      33.438 -13.841 -24.051  0.00  0.00    +0.000 C 
ATOM     10  C   UNL     1      33.146 -14.107 -25.387  0.00  0.00    +0.001 C 
ATOM     11  H   UNL     1      34.265 -18.067 -26.268  0.00  0.00    +0.152 HD
ENDBRANCH   1   3
BRANCH   1  12
ATOM     12  C   UNL     1      35.834 -18.938 -21.662  0.00  0.00    +0.005 C 
BRANCH  12  14
ATOM     13  N   UNL     1      33.327 -21.896 -19.748  0.00  0.00    +0.384 N 
ATOM     14  C   UNL     1      35.023 -19.649 -20.582  0.00  0.00    -0.004 C 
ATOM     15  C   UNL     1      33.546 -19.756 -20.981  0.00  0.00    -0.023 C 
ATOM     16  C   UNL     1      35.591 -21.046 -20.297  0.00  0.00    -0.023 C 
ATOM     17  C   UNL     1      32.754 -20.563 -19.954  0.00  0.00    -0.082 C 
ATOM     18  C   UNL     1      34.717 -21.803 -19.297  0.00  0.00    -0.082 C 
ATOM     19  H   UNL     1      33.296 -22.412 -20.628  0.00  0.00    -0.085 HD
ATOM     20  H   UNL     1      32.783 -22.377 -19.033  0.00  0.00    -0.085 HD
ENDBRANCH  12  14
ENDBRANCH   1  12
TORSDOF 3
ENDMDL
MODEL 5
REMARK VINA RESULT:      -8.8      1.418      6.572
REMARK  Name = 44668
REMARK  3 active torsions:
REMARK  status: ('A' for Active; 'I' for Inactive)
REMARK    1  A    between atoms: C_1  and  C_3
REMARK    2  A    between atoms: C_1  and  C_12
REMARK    3  A    between atoms: C_12  and  C_14
REMARK                            x       y       z     vdW  Elec       q    Type
REMARK                         _______ _______ _______ _____ _____    ______ ____
ROOT
ATOM      1  C   UNL     1      35.489 -17.730 -21.746  0.00  0.00    +0.028 C 
ENDROOT
BRANCH   1   3
ATOM      2  N   UNL     1      34.094 -15.441 -24.226  0.00  0.00    -0.312 N 
ATOM      3  C   UNL     1      34.793 -16.663 -22.537  0.00  0.00    -0.006 C 
ATOM      4  C   UNL     1      33.972 -15.647 -22.008  0.00  0.00    +0.011 C 
ATOM      5  C   UNL     1      34.859 -16.526 -23.891  0.00  0.00    +0.058 C 
ATOM      6  C   UNL     1      33.540 -14.884 -23.095  0.00  0.00    +0.048 C 
ATOM      7  C   UNL     1      33.544 -15.286 -20.714  0.00  0.00    +0.001 C 
ATOM      8  C   UNL     1      32.699 -13.775 -22.953  0.00  0.00    +0.015 C 
ATOM      9  C   UNL     1      32.701 -14.180 -20.557  0.00  0.00    +0.000 C 
ATOM     10  C   UNL     1      32.286 -13.437 -21.661  0.00  0.00    +0.001 C 
ATOM     11  H   UNL     1      33.960 -15.107 -25.142  0.00  0.00    +0.152 HD
ENDBRANCH   1   3
BRANCH   1  12
ATOM     12  C   UNL     1      34.854 -19.106 -21.955  0.00  0.00    +0.005 C 
BRANCH  12  14
ATOM     13  N   UNL     1      34.241 -22.336 -19.147  0.00  0.00    +0.384 N 
ATOM     14  C   UNL     1      34.671 -19.838 -20.628  0.00  0.00    -0.004 C 
ATOM     15  C   UNL     1      33.304 -20.529 -20.563  0.00  0.00    -0.023 C 
ATOM     16  C   UNL     1      35.789 -20.866 -20.408  0.00  0.00    -0.023 C 
ATOM     17  C   UNL     1      33.163 -21.353 -19.284  0.00  0.00    -0.082 C 
ATOM     18  C   UNL     1      35.549 -21.678 -19.135  0.00  0.00    -0.082 C 
ATOM     19  H   UNL     1      34.201 -22.987 -19.932  0.00  0.00    -0.085 HD
ATOM     20  H   UNL     1      34.118 -22.833 -18.265  0.00  0.00    -0.085 HD
ENDBRANCH  12  14
ENDBRANCH   1  12
TORSDOF 3
ENDMDL
MODEL 6
REMARK VINA RESULT:      -8.8      1.689      6.522
REMARK  Name = 44668
REMARK  3 active torsions:
REMARK  status: ('A' for Active; 'I' for Inactive)
REMARK    1  A    between atoms: C_1  and  C_3
REMARK    2  A    between atoms: C_1  and  C_12
REMARK    3  A    between atoms: C_12  and  C_14
REMARK                            x       y       z     vdW  Elec       q    Type
REMARK                         _______ _______ _______ _____ _____    ______ ____
ROOT
ATOM      1  C   UNL     1      35.718 -18.218 -22.741  0.00  0.00    +0.028 C 
ENDROOT
BRANCH   1   3
ATOM      2  N   UNL     1      34.175 -15.034 -21.838  0.00  0.00    -0.312 N 
ATOM      3  C   UNL     1      35.015 -16.897 -22.649  0.00  0.00    -0.006 C 
ATOM      4  C   UNL     1      34.400 -16.214 -23.718  0.00  0.00    +0.011 C 
ATOM      5  C   UNL     1      34.871 -16.166 -21.508  0.00  0.00    +0.058 C 
ATOM      6  C   UNL     1      33.874 -15.036 -23.182  0.00  0.00    +0.048 C 
ATOM      7  C   UNL     1      34.229 -16.468 -25.094  0.00  0.00    +0.001 C 
ATOM      8  C   UNL     1      33.184 -14.096 -23.955  0.00  0.00    +0.015 C 
ATOM      9  C   UNL     1      33.542 -15.536 -25.879  0.00  0.00    +0.000 C 
ATOM     10  C   UNL     1      33.028 -14.369 -25.317  0.00  0.00    +0.001 C 
ATOM     11  H   UNL     1      33.926 -14.322 -21.206  0.00  0.00    +0.152 HD
ENDBRANCH   1   3
BRANCH   1  12
ATOM     12  C   UNL     1      36.093 -18.765 -21.363  0.00  0.00    +0.005 C 
BRANCH  12  14
ATOM     13  N   UNL     1      33.773 -21.644 -19.122  0.00  0.00    +0.384 N 
ATOM     14  C   UNL     1      35.305 -20.031 -21.038  0.00  0.00    -0.004 C 
ATOM     15  C   UNL     1      35.976 -20.826 -19.910  0.00  0.00    -0.023 C 
ATOM     16  C   UNL     1      33.858 -19.694 -20.651  0.00  0.00    -0.023 C 
ATOM     17  C   UNL     1      35.131 -22.033 -19.508  0.00  0.00    -0.082 C 
ATOM     18  C   UNL     1      33.097 -20.947 -20.218  0.00  0.00    -0.082 C 
ATOM     19  H   UNL     1      33.820 -21.025 -18.312  0.00  0.00    -0.085 HD
ATOM     20  H   UNL     1      33.245 -22.486 -18.896  0.00  0.00    -0.085 HD
ENDBRANCH  12  14
ENDBRANCH   1  12
TORSDOF 3
ENDMDL
MODEL 7
REMARK VINA RESULT:      -8.7      3.660      7.713
REMARK  Name = 44668
REMARK  3 active torsions:
REMARK  status: ('A' for Active; 'I' for Inactive)
REMARK    1  A    between atoms: C_1  and  C_3
REMARK    2  A    between atoms: C_1  and  C_12
REMARK    3  A    between atoms: C_12  and  C_14
REMARK                            x       y       z     vdW  Elec       q    Type
REMARK                         _______ _______ _______ _____ _____    ______ ____
ROOT
ATOM      1  C   UNL     1      33.589 -22.903 -18.292  0.00  0.00    +0.028 C 
ENDROOT
BRANCH   1   3
ATOM      2  N   UNL     1      36.471 -20.948 -19.392  0.00  0.00    -0.312 N 
ATOM      3  C   UNL     1      34.580 -21.959 -18.906  0.00  0.00    -0.006 C 
ATOM      4  C   UNL     1      34.285 -20.947 -19.841  0.00  0.00    +0.011 C 
ATOM      5  C   UNL     1      35.917 -21.949 -18.641  0.00  0.00    +0.058 C 
ATOM      6  C   UNL     1      35.497 -20.319 -20.136  0.00  0.00    +0.048 C 
ATOM      7  C   UNL     1      33.113 -20.490 -20.476  0.00  0.00    +0.001 C 
ATOM      8  C   UNL     1      35.597 -19.252 -21.036  0.00  0.00    +0.015 C 
ATOM      9  C   UNL     1      33.197 -19.425 -21.380  0.00  0.00    +0.000 C 
ATOM     10  C   UNL     1      34.421 -18.817 -21.655  0.00  0.00    +0.001 C 
ATOM     11  H   UNL     1      37.426 -20.712 -19.399  0.00  0.00    +0.152 HD
ENDBRANCH   1   3
BRANCH   1  12
ATOM     12  C   UNL     1      33.860 -23.132 -16.805  0.00  0.00    +0.005 C 
BRANCH  12  14
ATOM     13  N   UNL     1      30.209 -22.819 -14.509  0.00  0.00    +0.384 N 
ATOM     14  C   UNL     1      32.588 -23.546 -16.069  0.00  0.00    -0.004 C 
ATOM     15  C   UNL     1      32.663 -23.169 -14.584  0.00  0.00    -0.023 C 
ATOM     16  C   UNL     1      31.349 -22.907 -16.710  0.00  0.00    -0.023 C 
ATOM     17  C   UNL     1      31.349 -23.481 -13.869  0.00  0.00    -0.082 C 
ATOM     18  C   UNL     1      30.086 -23.228 -15.910  0.00  0.00    -0.082 C 
ATOM     19  H   UNL     1      30.344 -21.809 -14.467  0.00  0.00    -0.085 HD
ATOM     20  H   UNL     1      29.358 -23.087 -14.016  0.00  0.00    -0.085 HD
ENDBRANCH  12  14
ENDBRANCH   1  12
TORSDOF 3
ENDMDL
MODEL 8
REMARK VINA RESULT:      -8.6      3.859      6.462
REMARK  Name = 44668
REMARK  3 active torsions:
REMARK  status: ('A' for Active; 'I' for Inactive)
REMARK    1  A    between atoms: C_1  and  C_3
REMARK    2  A    between atoms: C_1  and  C_12
REMARK    3  A    between atoms: C_12  and  C_14
REMARK                            x       y       z     vdW  Elec       q    Type
REMARK                         _______ _______ _______ _____ _____    ______ ____
ROOT
ATOM      1  C   UNL     1      33.804 -23.112 -18.343  0.00  0.00    +0.028 C 
ENDROOT
BRANCH   1   3
ATOM      2  N   UNL     1      34.143 -23.234 -14.709  0.00  0.00    -0.312 N 
ATOM      3  C   UNL     1      33.655 -23.158 -16.851  0.00  0.00    -0.006 C 
ATOM      4  C   UNL     1      32.436 -23.165 -16.144  0.00  0.00    +0.011 C 
ATOM      5  C   UNL     1      34.688 -23.200 -15.964  0.00  0.00    +0.058 C 
ATOM      6  C   UNL     1      32.768 -23.213 -14.788  0.00  0.00    +0.048 C 
ATOM      7  C   UNL     1      31.075 -23.135 -16.508  0.00  0.00    +0.001 C 
ATOM      8  C   UNL     1      31.804 -23.235 -13.774  0.00  0.00    +0.015 C 
ATOM      9  C   UNL     1      30.100 -23.155 -15.504  0.00  0.00    +0.000 C 
ATOM     10  C   UNL     1      30.461 -23.204 -14.159  0.00  0.00    +0.001 C 
ATOM     11  H   UNL     1      34.658 -23.269 -13.871  0.00  0.00    +0.152 HD
ENDBRANCH   1   3
BRANCH   1  12
ATOM     12  C   UNL     1      34.965 -22.215 -18.777  0.00  0.00    +0.005 C 
BRANCH  12  14
ATOM     13  N   UNL     1      33.927 -18.768 -21.170  0.00  0.00    +0.384 N 
ATOM     14  C   UNL     1      34.589 -21.375 -19.994  0.00  0.00    -0.004 C 
ATOM     15  C   UNL     1      33.218 -20.713 -19.806  0.00  0.00    -0.023 C 
ATOM     16  C   UNL     1      35.654 -20.305 -20.273  0.00  0.00    -0.023 C 
ATOM     17  C   UNL     1      32.890 -19.784 -20.974  0.00  0.00    -0.082 C 
ATOM     18  C   UNL     1      35.228 -19.390 -21.422  0.00  0.00    -0.082 C 
ATOM     19  H   UNL     1      33.990 -18.189 -20.332  0.00  0.00    -0.085 HD
ATOM     20  H   UNL     1      33.676 -18.199 -21.978  0.00  0.00    -0.085 HD
ENDBRANCH  12  14
ENDBRANCH   1  12
TORSDOF 3
ENDMDL
MODEL 9
REMARK VINA RESULT:      -8.4      3.701      5.535
REMARK  Name = 44668
REMARK  3 active torsions:
REMARK  status: ('A' for Active; 'I' for Inactive)
REMARK    1  A    between atoms: C_1  and  C_3
REMARK    2  A    between atoms: C_1  and  C_12
REMARK    3  A    between atoms: C_12  and  C_14
REMARK                            x       y       z     vdW  Elec       q    Type
REMARK                         _______ _______ _______ _____ _____    ______ ____
ROOT
ATOM      1  C   UNL     1      33.391 -13.174 -23.171  0.00  0.00    +0.028 C 
ENDROOT
BRANCH   1   3
ATOM      2  N   UNL     1      33.359 -15.560 -25.935  0.00  0.00    -0.312 N 
ATOM      3  C   UNL     1      33.521 -14.325 -24.123  0.00  0.00    -0.006 C 
ATOM      4  C   UNL     1      34.149 -15.556 -23.849  0.00  0.00    +0.011 C 
ATOM      5  C   UNL     1      33.043 -14.341 -25.399  0.00  0.00    +0.058 C 
ATOM      6  C   UNL     1      34.036 -16.324 -25.010  0.00  0.00    +0.048 C 
ATOM      7  C   UNL     1      34.808 -16.110 -22.732  0.00  0.00    +0.001 C 
ATOM      8  C   UNL     1      34.549 -17.622 -25.112  0.00  0.00    +0.015 C 
ATOM      9  C   UNL     1      35.328 -17.406 -22.820  0.00  0.00    +0.000 C 
ATOM     10  C   UNL     1      35.199 -18.149 -23.993  0.00  0.00    +0.001 C 
ATOM     11  H   UNL     1      33.135 -15.850 -26.849  0.00  0.00    +0.152 HD
ENDBRANCH   1   3
BRANCH   1  12
ATOM     12  C   UNL     1      32.291 -13.408 -22.134  0.00  0.00    +0.005 C 
BRANCH  12  14
ATOM     13  N   UNL     1      31.835  -9.409 -20.555  0.00  0.00    +0.384 N 
ATOM     14  C   UNL     1      31.630 -12.095 -21.724  0.00  0.00    -0.004 C 
ATOM     15  C   UNL     1      31.755 -11.863 -20.212  0.00  0.00    -0.023 C 
ATOM     16  C   UNL     1      32.239 -10.910 -22.487  0.00  0.00    -0.023 C 
ATOM     17  C   UNL     1      31.194 -10.499 -19.815  0.00  0.00    -0.082 C 
ATOM     18  C   UNL     1      31.659  -9.583 -21.999  0.00  0.00    -0.082 C 
ATOM     19  H   UNL     1      32.832  -9.400 -20.339  0.00  0.00    -0.085 HD
ATOM     20  H   UNL     1      31.402  -8.529 -20.278  0.00  0.00    -0.085 HD
ENDBRANCH  12  14
ENDBRANCH   1  12
TORSDOF 3
ENDMDL
