MODEL 1
REMARK VINA RESULT:     -11.5      0.000      0.000
REMARK  Name = 24995524
REMARK  4 active torsions:
REMARK  status: ('A' for Active; 'I' for Inactive)
REMARK    1  A    between atoms: N_5  and  C_13
REMARK    2  A    between atoms: C_6  and  C_19
REMARK    3  A    between atoms: C_19  and  C_20
REMARK    4  A    between atoms: C_20  and  N_22
REMARK                            x       y       z     vdW  Elec       q    Type
REMARK                         _______ _______ _______ _____ _____    ______ ____
ROOT
ATOM      1  S   UNL     1      36.548 -20.537 -19.664  0.00  0.00    -0.056 S 
ATOM      2  O   UNL     1      35.272 -23.453 -16.249  0.00  0.00    -0.252 OA
ATOM      3  N   UNL     1      34.565 -21.895 -18.715  0.00  0.00    -0.223 NA
ATOM      4  N   UNL     1      36.657 -22.055 -17.531  0.00  0.00    -0.248 N 
ATOM      5  N   UNL     1      37.510 -23.140 -15.647  0.00  0.00    -0.268 N 
ATOM      6  C   UNL     1      35.045 -20.444 -20.485  0.00  0.00    +0.031 C 
ATOM      7  C   UNL     1      34.114 -21.228 -19.837  0.00  0.00    +0.103 C 
ATOM      8  C   UNL     1      35.834 -21.606 -18.528  0.00  0.00    +0.166 C 
ATOM      9  C   UNL     1      36.370 -22.943 -16.444  0.00  0.00    +0.310 C 
ATOM     10  H   UNL     1      37.582 -21.719 -17.567  0.00  0.00    +0.158 HD
ATOM     11  H   UNL     1      38.322 -22.661 -15.930  0.00  0.00    +0.156 HD
ENDROOT
BRANCH   5  13
ATOM     12 CL   UNL     1      35.940 -24.193 -10.873  0.00  0.00    -0.082 Cl
ATOM     13  C   UNL     1      37.634 -23.942 -14.488  0.00  0.00    +0.052 C 
ATOM     14  C   UNL     1      36.820 -23.700 -13.382  0.00  0.00    +0.026 C 
ATOM     15  C   UNL     1      38.571 -24.975 -14.453  0.00  0.00    +0.015 C 
ATOM     16  C   UNL     1      36.944 -24.492 -12.239  0.00  0.00    +0.059 C 
ATOM     17  C   UNL     1      38.695 -25.765 -13.311  0.00  0.00    +0.002 C 
ATOM     18  C   UNL     1      37.881 -25.524 -12.205  0.00  0.00    +0.011 C 
ENDBRANCH   5  13
BRANCH   6  19
ATOM     19  C   UNL     1      34.896 -19.591 -21.721  0.00  0.00    +0.056 C 
BRANCH  19  20
ATOM     20  C   UNL     1      35.931 -18.470 -21.804  0.00  0.00    +0.093 C 
BRANCH  20  22
ATOM     21  S   UNL     1      33.913 -14.330 -22.379  0.00  0.00    -0.101 S 
ATOM     22  N   UNL     1      35.301 -17.207 -22.048  0.00  0.00    -0.320 N 
ATOM     23  N   UNL     1      35.005 -17.641 -24.369  0.00  0.00    -0.233 NA
ATOM     24  N   UNL     1      33.959 -16.050 -25.862  0.00  0.00    -0.247 NA
ATOM     25  C   UNL     1      34.848 -16.810 -23.320  0.00  0.00    +0.118 C 
ATOM     26  C   UNL     1      34.240 -15.575 -23.515  0.00  0.00    +0.145 C 
ATOM     27  C   UNL     1      33.808 -15.223 -24.793  0.00  0.00    +0.073 C 
ATOM     28  C   UNL     1      33.210 -13.927 -24.815  0.00  0.00    +0.022 C 
ATOM     29  C   UNL     1      33.203 -13.335 -23.572  0.00  0.00    +0.033 C 
ATOM     30  C   UNL     1      34.556 -17.215 -25.564  0.00  0.00    +0.251 C 
ATOM     31  H   UNL     1      35.180 -16.588 -21.292  0.00  0.00    +0.148 HD
ENDBRANCH  20  22
ENDBRANCH  19  20
ENDBRANCH   6  19
TORSDOF 4
ENDMDL
MODEL 2
REMARK VINA RESULT:     -11.2      4.969     11.961
REMARK  Name = 24995524
REMARK  4 active torsions:
REMARK  status: ('A' for Active; 'I' for Inactive)
REMARK    1  A    between atoms: N_5  and  C_13
REMARK    2  A    between atoms: C_6  and  C_19
REMARK    3  A    between atoms: C_19  and  C_20
REMARK    4  A    between atoms: C_20  and  N_22
REMARK                            x       y       z     vdW  Elec       q    Type
REMARK                         _______ _______ _______ _____ _____    ______ ____
ROOT
ATOM      1  S   UNL     1      34.039 -19.649 -20.915  0.00  0.00    -0.056 S 
ATOM      2  O   UNL     1      35.775 -16.059 -23.342  0.00  0.00    -0.252 OA
ATOM      3  N   UNL     1      36.231 -18.489 -21.642  0.00  0.00    -0.223 NA
ATOM      4  N   UNL     1      34.172 -17.496 -22.403  0.00  0.00    -0.248 N 
ATOM      5  N   UNL     1      33.495 -15.670 -23.691  0.00  0.00    -0.268 N 
ATOM      6  C   UNL     1      35.521 -20.333 -20.389  0.00  0.00    +0.031 C 
ATOM      7  C   UNL     1      36.573 -19.583 -20.871  0.00  0.00    +0.103 C 
ATOM      8  C   UNL     1      34.921 -18.426 -21.733  0.00  0.00    +0.166 C 
ATOM      9  C   UNL     1      34.599 -16.365 -23.172  0.00  0.00    +0.310 C 
ATOM     10  H   UNL     1      33.197 -17.624 -22.350  0.00  0.00    +0.158 HD
ATOM     11  H   UNL     1      32.609 -16.038 -23.468  0.00  0.00    +0.156 HD
ENDROOT
BRANCH   5  13
ATOM     12 CL   UNL     1      34.151 -10.588 -24.025  0.00  0.00    -0.082 Cl
ATOM     13  C   UNL     1      33.499 -14.507 -24.497  0.00  0.00    +0.052 C 
ATOM     14  C   UNL     1      33.790 -13.267 -23.930  0.00  0.00    +0.026 C 
ATOM     15  C   UNL     1      33.212 -14.602 -25.859  0.00  0.00    +0.015 C 
ATOM     16  C   UNL     1      33.793 -12.120 -24.725  0.00  0.00    +0.059 C 
ATOM     17  C   UNL     1      33.215 -13.456 -26.654  0.00  0.00    +0.002 C 
ATOM     18  C   UNL     1      33.506 -12.215 -26.086  0.00  0.00    +0.011 C 
ENDBRANCH   5  13
BRANCH   6  19
ATOM     19  C   UNL     1      35.533 -21.572 -19.527  0.00  0.00    +0.056 C 
BRANCH  19  20
ATOM     20  C   UNL     1      34.134 -22.033 -19.122  0.00  0.00    +0.093 C 
BRANCH  20  22
ATOM     21  S   UNL     1      34.409 -24.020 -14.937  0.00  0.00    -0.101 S 
ATOM     22  N   UNL     1      34.150 -22.643 -17.826  0.00  0.00    -0.320 N 
ATOM     23  N   UNL     1      31.785 -22.539 -17.589  0.00  0.00    -0.233 NA
ATOM     24  N   UNL     1      30.642 -23.358 -15.619  0.00  0.00    -0.247 NA
ATOM     25  C   UNL     1      32.983 -22.887 -17.079  0.00  0.00    +0.118 C 
ATOM     26  C   UNL     1      33.042 -23.481 -15.824  0.00  0.00    +0.145 C 
ATOM     27  C   UNL     1      31.860 -23.703 -15.119  0.00  0.00    +0.073 C 
ATOM     28  C   UNL     1      32.101 -24.318 -13.854  0.00  0.00    +0.022 C 
ATOM     29  C   UNL     1      33.440 -24.545 -13.631  0.00  0.00    +0.033 C 
ATOM     30  C   UNL     1      30.699 -22.793 -16.836  0.00  0.00    +0.251 C 
ATOM     31  H   UNL     1      35.018 -22.902 -17.440  0.00  0.00    +0.148 HD
ENDBRANCH  20  22
ENDBRANCH  19  20
ENDBRANCH   6  19
TORSDOF 4
ENDMDL
MODEL 3
REMARK VINA RESULT:     -11.2      4.952     11.808
REMARK  Name = 24995524
REMARK  4 active torsions:
REMARK  status: ('A' for Active; 'I' for Inactive)
REMARK    1  A    between atoms: N_5  and  C_13
REMARK    2  A    between atoms: C_6  and  C_19
REMARK    3  A    between atoms: C_19  and  C_20
REMARK    4  A    between atoms: C_20  and  N_22
REMARK                            x       y       z     vdW  Elec       q    Type
REMARK                         _______ _______ _______ _____ _____    ______ ____
ROOT
ATOM      1  S   UNL     1      33.797 -19.715 -20.712  0.00  0.00    -0.056 S 
ATOM      2  O   UNL     1      35.679 -16.262 -23.228  0.00  0.00    -0.252 OA
ATOM      3  N   UNL     1      36.034 -18.641 -21.433  0.00  0.00    -0.223 NA
ATOM      4  N   UNL     1      34.019 -17.622 -22.273  0.00  0.00    -0.248 N 
ATOM      5  N   UNL     1      33.419 -15.826 -23.640  0.00  0.00    -0.268 N 
ATOM      6  C   UNL     1      35.249 -20.419 -20.131  0.00  0.00    +0.031 C 
ATOM      7  C   UNL     1      36.331 -19.715 -20.617  0.00  0.00    +0.103 C 
ATOM      8  C   UNL     1      34.728 -18.546 -21.554  0.00  0.00    +0.166 C 
ATOM      9  C   UNL     1      34.493 -16.531 -23.072  0.00  0.00    +0.310 C 
ATOM     10  H   UNL     1      33.040 -17.722 -22.236  0.00  0.00    +0.158 HD
ATOM     11  H   UNL     1      32.519 -16.162 -23.422  0.00  0.00    +0.156 HD
ENDROOT
BRANCH   5  13
ATOM     12 CL   UNL     1      34.123 -10.763 -24.125  0.00  0.00    -0.082 Cl
ATOM     13  C   UNL     1      33.471 -14.693 -24.485  0.00  0.00    +0.052 C 
ATOM     14  C   UNL     1      33.741 -13.434 -23.950  0.00  0.00    +0.026 C 
ATOM     15  C   UNL     1      33.253 -14.837 -25.856  0.00  0.00    +0.015 C 
ATOM     16  C   UNL     1      33.791 -12.318 -24.786  0.00  0.00    +0.059 C 
ATOM     17  C   UNL     1      33.304 -13.721 -26.691  0.00  0.00    +0.002 C 
ATOM     18  C   UNL     1      33.573 -12.462 -26.155  0.00  0.00    +0.011 C 
ENDBRANCH   5  13
BRANCH   6  19
ATOM     19  C   UNL     1      35.209 -21.626 -19.226  0.00  0.00    +0.056 C 
BRANCH  19  20
ATOM     20  C   UNL     1      34.117 -22.625 -19.607  0.00  0.00    +0.093 C 
BRANCH  20  22
ATOM     21  S   UNL     1      30.692 -22.749 -16.477  0.00  0.00    -0.101 S 
ATOM     22  N   UNL     1      33.105 -22.688 -18.595  0.00  0.00    -0.320 N 
ATOM     23  N   UNL     1      34.592 -23.570 -16.960  0.00  0.00    -0.233 NA
ATOM     24  N   UNL     1      33.878 -24.098 -14.708  0.00  0.00    -0.247 NA
ATOM     25  C   UNL     1      33.353 -23.157 -17.292  0.00  0.00    +0.118 C 
ATOM     26  C   UNL     1      32.342 -23.203 -16.339  0.00  0.00    +0.145 C 
ATOM     27  C   UNL     1      32.633 -23.677 -15.060  0.00  0.00    +0.073 C 
ATOM     28  C   UNL     1      31.486 -23.656 -14.210  0.00  0.00    +0.022 C 
ATOM     29  C   UNL     1      30.368 -23.176 -14.855  0.00  0.00    +0.033 C 
ATOM     30  C   UNL     1      34.777 -24.011 -15.702  0.00  0.00    +0.251 C 
ATOM     31  H   UNL     1      32.195 -22.391 -18.823  0.00  0.00    +0.148 HD
ENDBRANCH  20  22
ENDBRANCH  19  20
ENDBRANCH   6  19
TORSDOF 4
ENDMDL
MODEL 4
REMARK VINA RESULT:     -11.1      1.237      1.844
REMARK  Name = 24995524
REMARK  4 active torsions:
REMARK  status: ('A' for Active; 'I' for Inactive)
REMARK    1  A    between atoms: N_5  and  C_13
REMARK    2  A    between atoms: C_6  and  C_19
REMARK    3  A    between atoms: C_19  and  C_20
REMARK    4  A    between atoms: C_20  and  N_22
REMARK                            x       y       z     vdW  Elec       q    Type
REMARK                         _______ _______ _______ _____ _____    ______ ____
ROOT
ATOM      1  S   UNL     1      36.478 -20.588 -19.869  0.00  0.00    -0.056 S 
ATOM      2  O   UNL     1      35.291 -23.325 -16.278  0.00  0.00    -0.252 OA
ATOM      3  N   UNL     1      34.501 -21.823 -18.752  0.00  0.00    -0.223 NA
ATOM      4  N   UNL     1      36.653 -22.035 -17.691  0.00  0.00    -0.248 N 
ATOM      5  N   UNL     1      37.573 -23.092 -15.823  0.00  0.00    -0.268 N 
ATOM      6  C   UNL     1      34.932 -20.455 -20.600  0.00  0.00    +0.031 C 
ATOM      7  C   UNL     1      34.011 -21.175 -19.869  0.00  0.00    +0.103 C 
ATOM      8  C   UNL     1      35.790 -21.584 -18.653  0.00  0.00    +0.166 C 
ATOM      9  C   UNL     1      36.396 -22.872 -16.556  0.00  0.00    +0.310 C 
ATOM     10  H   UNL     1      37.588 -21.743 -17.794  0.00  0.00    +0.158 HD
ATOM     11  H   UNL     1      38.386 -22.660 -16.172  0.00  0.00    +0.156 HD
ENDROOT
BRANCH   5  13
ATOM     12 CL   UNL     1      36.236 -23.927 -10.936  0.00  0.00    -0.082 Cl
ATOM     13  C   UNL     1      37.734 -23.859 -14.645  0.00  0.00    +0.052 C 
ATOM     14  C   UNL     1      36.991 -23.551 -13.505  0.00  0.00    +0.026 C 
ATOM     15  C   UNL     1      38.636 -24.923 -14.624  0.00  0.00    +0.015 C 
ATOM     16  C   UNL     1      37.152 -24.308 -12.344  0.00  0.00    +0.059 C 
ATOM     17  C   UNL     1      38.796 -25.679 -13.463  0.00  0.00    +0.002 C 
ATOM     18  C   UNL     1      38.053 -25.371 -12.323  0.00  0.00    +0.011 C 
ENDBRANCH   5  13
BRANCH   6  19
ATOM     19  C   UNL     1      34.745 -19.639 -21.856  0.00  0.00    +0.056 C 
BRANCH  19  20
ATOM     20  C   UNL     1      35.601 -18.374 -21.882  0.00  0.00    +0.093 C 
BRANCH  20  22
ATOM     21  S   UNL     1      33.771 -15.253 -24.789  0.00  0.00    -0.101 S 
ATOM     22  N   UNL     1      35.015 -17.376 -22.725  0.00  0.00    -0.320 N 
ATOM     23  N   UNL     1      34.222 -16.087 -20.888  0.00  0.00    -0.233 NA
ATOM     24  N   UNL     1      32.991 -14.024 -21.187  0.00  0.00    -0.247 NA
ATOM     25  C   UNL     1      34.336 -16.250 -22.221  0.00  0.00    +0.118 C 
ATOM     26  C   UNL     1      33.780 -15.303 -23.073  0.00  0.00    +0.145 C 
ATOM     27  C   UNL     1      33.116 -14.204 -22.530  0.00  0.00    +0.073 C 
ATOM     28  C   UNL     1      32.608 -13.335 -23.541  0.00  0.00    +0.022 C 
ATOM     29  C   UNL     1      32.894 -13.787 -24.809  0.00  0.00    +0.033 C 
ATOM     30  C   UNL     1      33.563 -14.996 -20.457  0.00  0.00    +0.251 C 
ATOM     31  H   UNL     1      35.089 -17.482 -23.701  0.00  0.00    +0.148 HD
ENDBRANCH  20  22
ENDBRANCH  19  20
ENDBRANCH   6  19
TORSDOF 4
ENDMDL
MODEL 5
REMARK VINA RESULT:     -11.0      5.020     11.828
REMARK  Name = 24995524
REMARK  4 active torsions:
REMARK  status: ('A' for Active; 'I' for Inactive)
REMARK    1  A    between atoms: N_5  and  C_13
REMARK    2  A    between atoms: C_6  and  C_19
REMARK    3  A    between atoms: C_19  and  C_20
REMARK    4  A    between atoms: C_20  and  N_22
REMARK                            x       y       z     vdW  Elec       q    Type
REMARK                         _______ _______ _______ _____ _____    ______ ____
ROOT
ATOM      1  S   UNL     1      33.652 -19.530 -20.939  0.00  0.00    -0.056 S 
ATOM      2  O   UNL     1      35.166 -15.195 -21.783  0.00  0.00    -0.252 OA
ATOM      3  N   UNL     1      35.752 -18.024 -20.971  0.00  0.00    -0.223 NA
ATOM      4  N   UNL     1      33.663 -16.989 -21.580  0.00  0.00    -0.248 N 
ATOM      5  N   UNL     1      32.893 -14.885 -22.238  0.00  0.00    -0.268 N 
ATOM      6  C   UNL     1      35.154 -20.238 -20.510  0.00  0.00    +0.031 C 
ATOM      7  C   UNL     1      36.151 -19.289 -20.585  0.00  0.00    +0.103 C 
ATOM      8  C   UNL     1      34.455 -18.034 -21.185  0.00  0.00    +0.166 C 
ATOM      9  C   UNL     1      34.023 -15.631 -21.863  0.00  0.00    +0.310 C 
ATOM     10  H   UNL     1      32.708 -17.202 -21.685  0.00  0.00    +0.158 HD
ATOM     11  H   UNL     1      32.039 -15.375 -22.256  0.00  0.00    +0.156 HD
ENDROOT
BRANCH   5  13
ATOM     12 CL   UNL     1      34.498 -11.091 -25.304  0.00  0.00    -0.082 Cl
ATOM     13  C   UNL     1      32.833 -13.517 -22.594  0.00  0.00    +0.052 C 
ATOM     14  C   UNL     1      33.605 -13.036 -23.651  0.00  0.00    +0.026 C 
ATOM     15  C   UNL     1      32.000 -12.650 -21.886  0.00  0.00    +0.015 C 
ATOM     16  C   UNL     1      33.544 -11.686 -24.000  0.00  0.00    +0.059 C 
ATOM     17  C   UNL     1      31.940 -11.301 -22.235  0.00  0.00    +0.002 C 
ATOM     18  C   UNL     1      32.712 -10.820 -23.292  0.00  0.00    +0.011 C 
ENDBRANCH   5  13
BRANCH   6  19
ATOM     19  C   UNL     1      35.234 -21.696 -20.127  0.00  0.00    +0.056 C 
BRANCH  19  20
ATOM     20  C   UNL     1      33.960 -22.211 -19.459  0.00  0.00    +0.093 C 
BRANCH  20  22
ATOM     21  S   UNL     1      35.063 -23.790 -15.237  0.00  0.00    -0.101 S 
ATOM     22  N   UNL     1      34.233 -22.698 -18.140  0.00  0.00    -0.320 N 
ATOM     23  N   UNL     1      31.937 -22.722 -17.517  0.00  0.00    -0.233 NA
ATOM     24  N   UNL     1      31.195 -23.429 -15.324  0.00  0.00    -0.247 NA
ATOM     25  C   UNL     1      33.225 -22.947 -17.191  0.00  0.00    +0.118 C 
ATOM     26  C   UNL     1      33.532 -23.420 -15.920  0.00  0.00    +0.145 C 
ATOM     27  C   UNL     1      32.501 -23.651 -15.011  0.00  0.00    +0.073 C 
ATOM     28  C   UNL     1      32.990 -24.132 -13.760  0.00  0.00    +0.022 C 
ATOM     29  C   UNL     1      34.362 -24.254 -13.749  0.00  0.00    +0.033 C 
ATOM     30  C   UNL     1      31.010 -22.973 -16.574  0.00  0.00    +0.251 C 
ATOM     31  H   UNL     1      35.169 -22.867 -17.887  0.00  0.00    +0.148 HD
ENDBRANCH  20  22
ENDBRANCH  19  20
ENDBRANCH   6  19
TORSDOF 4
ENDMDL
MODEL 6
REMARK VINA RESULT:     -11.0      4.547      7.675
REMARK  Name = 24995524
REMARK  4 active torsions:
REMARK  status: ('A' for Active; 'I' for Inactive)
REMARK    1  A    between atoms: N_5  and  C_13
REMARK    2  A    between atoms: C_6  and  C_19
REMARK    3  A    between atoms: C_19  and  C_20
REMARK    4  A    between atoms: C_20  and  N_22
REMARK                            x       y       z     vdW  Elec       q    Type
REMARK                         _______ _______ _______ _____ _____    ______ ____
ROOT
ATOM      1  S   UNL     1      33.810 -15.673 -24.878  0.00  0.00    -0.056 S 
ATOM      2  O   UNL     1      34.971 -17.175 -20.613  0.00  0.00    -0.252 OA
ATOM      3  N   UNL     1      34.376 -14.900 -22.478  0.00  0.00    -0.223 NA
ATOM      4  N   UNL     1      34.399 -17.274 -22.889  0.00  0.00    -0.248 N 
ATOM      5  N   UNL     1      34.808 -19.241 -21.697  0.00  0.00    -0.268 N 
ATOM      6  C   UNL     1      33.801 -13.989 -24.554  0.00  0.00    +0.031 C 
ATOM      7  C   UNL     1      34.125 -13.770 -23.231  0.00  0.00    +0.103 C 
ATOM      8  C   UNL     1      34.239 -15.961 -23.242  0.00  0.00    +0.166 C 
ATOM      9  C   UNL     1      34.751 -17.839 -21.620  0.00  0.00    +0.310 C 
ATOM     10  H   UNL     1      34.251 -17.925 -23.613  0.00  0.00    +0.158 HD
ATOM     11  H   UNL     1      34.606 -19.632 -22.578  0.00  0.00    +0.156 HD
ENDROOT
BRANCH   5  13
ATOM     12 CL   UNL     1      33.146 -22.618 -18.205  0.00  0.00    -0.082 Cl
ATOM     13  C   UNL     1      35.119 -20.157 -20.666  0.00  0.00    +0.052 C 
ATOM     14  C   UNL     1      34.098 -20.854 -20.021  0.00  0.00    +0.026 C 
ATOM     15  C   UNL     1      36.448 -20.363 -20.294  0.00  0.00    +0.015 C 
ATOM     16  C   UNL     1      34.407 -21.757 -19.003  0.00  0.00    +0.059 C 
ATOM     17  C   UNL     1      36.756 -21.266 -19.277  0.00  0.00    +0.002 C 
ATOM     18  C   UNL     1      35.735 -21.963 -18.632  0.00  0.00    +0.011 C 
ENDBRANCH   5  13
BRANCH   6  19
ATOM     19  C   UNL     1      33.474 -12.998 -25.645  0.00  0.00    +0.056 C 
BRANCH  19  20
ATOM     20  C   UNL     1      34.006 -11.595 -25.359  0.00  0.00    +0.093 C 
BRANCH  20  22
ATOM     21  S   UNL     1      31.865  -9.975 -21.573  0.00  0.00    -0.101 S 
ATOM     22  N   UNL     1      33.380 -11.036 -24.199  0.00  0.00    -0.320 N 
ATOM     23  N   UNL     1      34.545  -8.970 -24.388  0.00  0.00    -0.233 NA
ATOM     24  N   UNL     1      34.226  -7.153 -22.820  0.00  0.00    -0.247 NA
ATOM     25  C   UNL     1      33.655  -9.738 -23.729  0.00  0.00    +0.118 C 
ATOM     26  C   UNL     1      33.025  -9.233 -22.597  0.00  0.00    +0.145 C 
ATOM     27  C   UNL     1      33.330  -7.942 -22.168  0.00  0.00    +0.073 C 
ATOM     28  C   UNL     1      32.598  -7.583 -20.996  0.00  0.00    +0.022 C 
ATOM     29  C   UNL     1      31.767  -8.595 -20.570  0.00  0.00    +0.033 C 
ATOM     30  C   UNL     1      34.774  -7.738 -23.898  0.00  0.00    +0.251 C 
ATOM     31  H   UNL     1      32.728 -11.586 -23.706  0.00  0.00    +0.148 HD
ENDBRANCH  20  22
ENDBRANCH  19  20
ENDBRANCH   6  19
TORSDOF 4
ENDMDL
MODEL 7
REMARK VINA RESULT:     -11.0      4.857     11.876
REMARK  Name = 24995524
REMARK  4 active torsions:
REMARK  status: ('A' for Active; 'I' for Inactive)
REMARK    1  A    between atoms: N_5  and  C_13
REMARK    2  A    between atoms: C_6  and  C_19
REMARK    3  A    between atoms: C_19  and  C_20
REMARK    4  A    between atoms: C_20  and  N_22
REMARK                            x       y       z     vdW  Elec       q    Type
REMARK                         _______ _______ _______ _____ _____    ______ ____
ROOT
ATOM      1  S   UNL     1      33.715 -19.626 -20.891  0.00  0.00    -0.056 S 
ATOM      2  O   UNL     1      35.187 -15.282 -21.765  0.00  0.00    -0.252 OA
ATOM      3  N   UNL     1      35.804 -18.105 -20.956  0.00  0.00    -0.223 NA
ATOM      4  N   UNL     1      33.700 -17.086 -21.538  0.00  0.00    -0.248 N 
ATOM      5  N   UNL     1      32.906 -14.989 -22.191  0.00  0.00    -0.268 N 
ATOM      6  C   UNL     1      35.228 -20.323 -20.482  0.00  0.00    +0.031 C 
ATOM      7  C   UNL     1      36.217 -19.366 -20.572  0.00  0.00    +0.103 C 
ATOM      8  C   UNL     1      34.504 -18.125 -21.152  0.00  0.00    +0.166 C 
ATOM      9  C   UNL     1      34.046 -15.727 -21.829  0.00  0.00    +0.310 C 
ATOM     10  H   UNL     1      32.745 -17.306 -21.630  0.00  0.00    +0.158 HD
ATOM     11  H   UNL     1      32.055 -15.485 -22.196  0.00  0.00    +0.156 HD
ENDROOT
BRANCH   5  13
ATOM     12 CL   UNL     1      34.450 -11.189 -25.279  0.00  0.00    -0.082 Cl
ATOM     13  C   UNL     1      32.831 -13.623 -22.548  0.00  0.00    +0.052 C 
ATOM     14  C   UNL     1      33.589 -13.138 -23.613  0.00  0.00    +0.026 C 
ATOM     15  C   UNL     1      31.998 -12.760 -21.834  0.00  0.00    +0.015 C 
ATOM     16  C   UNL     1      33.514 -11.789 -23.964  0.00  0.00    +0.059 C 
ATOM     17  C   UNL     1      31.924 -11.413 -22.185  0.00  0.00    +0.002 C 
ATOM     18  C   UNL     1      32.682 -10.928 -23.250  0.00  0.00    +0.011 C 
ENDBRANCH   5  13
BRANCH   6  19
ATOM     19  C   UNL     1      35.324 -21.779 -20.096  0.00  0.00    +0.056 C 
BRANCH  19  20
ATOM     20  C   UNL     1      35.718 -21.987 -18.635  0.00  0.00    +0.093 C 
BRANCH  20  22
ATOM     21  S   UNL     1      31.945 -23.303 -16.274  0.00  0.00    -0.101 S 
ATOM     22  N   UNL     1      34.595 -22.418 -17.858  0.00  0.00    -0.320 N 
ATOM     23  N   UNL     1      35.957 -23.322 -16.128  0.00  0.00    -0.233 NA
ATOM     24  N   UNL     1      35.023 -24.385 -14.164  0.00  0.00    -0.247 NA
ATOM     25  C   UNL     1      34.727 -23.077 -16.621  0.00  0.00    +0.118 C 
ATOM     26  C   UNL     1      33.610 -23.479 -15.897  0.00  0.00    +0.145 C 
ATOM     27  C   UNL     1      33.788 -24.129 -14.676  0.00  0.00    +0.073 C 
ATOM     28  C   UNL     1      32.543 -24.472 -14.069  0.00  0.00    +0.022 C 
ATOM     29  C   UNL     1      31.466 -24.081 -14.831  0.00  0.00    +0.033 C 
ATOM     30  C   UNL     1      36.029 -23.954 -14.942  0.00  0.00    +0.251 C 
ATOM     31  H   UNL     1      33.690 -22.247 -18.205  0.00  0.00    +0.148 HD
ENDBRANCH  20  22
ENDBRANCH  19  20
ENDBRANCH   6  19
TORSDOF 4
ENDMDL
MODEL 8
REMARK VINA RESULT:     -11.0      6.947     13.630
REMARK  Name = 24995524
REMARK  4 active torsions:
REMARK  status: ('A' for Active; 'I' for Inactive)
REMARK    1  A    between atoms: N_5  and  C_13
REMARK    2  A    between atoms: C_6  and  C_19
REMARK    3  A    between atoms: C_19  and  C_20
REMARK    4  A    between atoms: C_20  and  N_22
REMARK                            x       y       z     vdW  Elec       q    Type
REMARK                         _______ _______ _______ _____ _____    ______ ____
ROOT
ATOM      1  S   UNL     1      33.926 -13.384 -24.382  0.00  0.00    -0.056 S 
ATOM      2  O   UNL     1      31.618 -10.188 -21.881  0.00  0.00    -0.252 OA
ATOM      3  N   UNL     1      32.410 -13.049 -22.316  0.00  0.00    -0.223 NA
ATOM      4  N   UNL     1      32.972 -11.078 -23.582  0.00  0.00    -0.248 N 
ATOM      5  N   UNL     1      32.535  -8.785 -23.513  0.00  0.00    -0.268 N 
ATOM      6  C   UNL     1      33.508 -14.769 -23.461  0.00  0.00    +0.031 C 
ATOM      7  C   UNL     1      32.700 -14.397 -22.407  0.00  0.00    +0.103 C 
ATOM      8  C   UNL     1      33.003 -12.418 -23.305  0.00  0.00    +0.166 C 
ATOM      9  C   UNL     1      32.301 -10.020 -22.886  0.00  0.00    +0.310 C 
ATOM     10  H   UNL     1      33.486 -10.800 -24.375  0.00  0.00    +0.158 HD
ATOM     11  H   UNL     1      33.106  -8.809 -24.315  0.00  0.00    +0.156 HD
ENDROOT
BRANCH   5  13
ATOM     12 CL   UNL     1      30.758  -4.183 -24.938  0.00  0.00    -0.082 Cl
ATOM     13  C   UNL     1      32.051  -7.511 -23.134  0.00  0.00    +0.052 C 
ATOM     14  C   UNL     1      31.685  -6.585 -24.109  0.00  0.00    +0.026 C 
ATOM     15  C   UNL     1      31.940  -7.182 -21.782  0.00  0.00    +0.015 C 
ATOM     16  C   UNL     1      31.209  -5.328 -23.733  0.00  0.00    +0.059 C 
ATOM     17  C   UNL     1      31.464  -5.926 -21.407  0.00  0.00    +0.002 C 
ATOM     18  C   UNL     1      31.098  -5.000 -22.383  0.00  0.00    +0.011 C 
ENDBRANCH   5  13
BRANCH   6  19
ATOM     19  C   UNL     1      34.015 -16.135 -23.854  0.00  0.00    +0.056 C 
BRANCH  19  20
ATOM     20  C   UNL     1      34.997 -16.724 -22.843  0.00  0.00    +0.093 C 
BRANCH  20  22
ATOM     21  S   UNL     1      32.867 -20.176 -20.586  0.00  0.00    -0.101 S 
ATOM     22  N   UNL     1      34.401 -17.811 -22.124  0.00  0.00    -0.320 N 
ATOM     23  N   UNL     1      36.493 -18.621 -21.330  0.00  0.00    -0.233 NA
ATOM     24  N   UNL     1      36.673 -20.574 -19.912  0.00  0.00    -0.247 NA
ATOM     25  C   UNL     1      35.151 -18.741 -21.381  0.00  0.00    +0.118 C 
ATOM     26  C   UNL     1      34.534 -19.782 -20.697  0.00  0.00    +0.145 C 
ATOM     27  C   UNL     1      35.318 -20.681 -19.974  0.00  0.00    +0.073 C 
ATOM     28  C   UNL     1      34.528 -21.683 -19.336  0.00  0.00    +0.022 C 
ATOM     29  C   UNL     1      33.183 -21.525 -19.587  0.00  0.00    +0.033 C 
ATOM     30  C   UNL     1      37.165 -19.535 -20.607  0.00  0.00    +0.251 C 
ATOM     31  H   UNL     1      33.422 -17.912 -22.153  0.00  0.00    +0.148 HD
ENDBRANCH  20  22
ENDBRANCH  19  20
ENDBRANCH   6  19
TORSDOF 4
ENDMDL
MODEL 9
REMARK VINA RESULT:     -10.9      1.545      1.921
REMARK  Name = 24995524
REMARK  4 active torsions:
REMARK  status: ('A' for Active; 'I' for Inactive)
REMARK    1  A    between atoms: N_5  and  C_13
REMARK    2  A    between atoms: C_6  and  C_19
REMARK    3  A    between atoms: C_19  and  C_20
REMARK    4  A    between atoms: C_20  and  N_22
REMARK                            x       y       z     vdW  Elec       q    Type
REMARK                         _______ _______ _______ _____ _____    ______ ____
ROOT
ATOM      1  S   UNL     1      36.377 -20.252 -20.240  0.00  0.00    -0.056 S 
ATOM      2  O   UNL     1      35.438 -23.114 -16.673  0.00  0.00    -0.252 OA
ATOM      3  N   UNL     1      34.497 -21.596 -19.084  0.00  0.00    -0.223 NA
ATOM      4  N   UNL     1      36.693 -21.736 -18.103  0.00  0.00    -0.248 N 
ATOM      5  N   UNL     1      37.723 -22.791 -16.292  0.00  0.00    -0.268 N 
ATOM      6  C   UNL     1      34.803 -20.173 -20.915  0.00  0.00    +0.031 C 
ATOM      7  C   UNL     1      33.940 -20.947 -20.169  0.00  0.00    +0.103 C 
ATOM      8  C   UNL     1      35.777 -21.303 -19.024  0.00  0.00    +0.166 C 
ATOM      9  C   UNL     1      36.512 -22.607 -16.980  0.00  0.00    +0.310 C 
ATOM     10  H   UNL     1      37.609 -21.401 -18.232  0.00  0.00    +0.158 HD
ATOM     11  H   UNL     1      38.504 -22.316 -16.659  0.00  0.00    +0.156 HD
ENDROOT
BRANCH   5  13
ATOM     12 CL   UNL     1      40.533 -26.400 -13.959  0.00  0.00    -0.082 Cl
ATOM     13  C   UNL     1      37.958 -23.574 -15.138  0.00  0.00    +0.052 C 
ATOM     14  C   UNL     1      39.008 -24.492 -15.120  0.00  0.00    +0.026 C 
ATOM     15  C   UNL     1      37.140 -23.427 -14.017  0.00  0.00    +0.015 C 
ATOM     16  C   UNL     1      39.238 -25.265 -13.981  0.00  0.00    +0.059 C 
ATOM     17  C   UNL     1      37.370 -24.199 -12.880  0.00  0.00    +0.002 C 
ATOM     18  C   UNL     1      38.420 -25.118 -12.862  0.00  0.00    +0.011 C 
ENDBRANCH   5  13
BRANCH   6  19
ATOM     19  C   UNL     1      34.536 -19.339 -22.145  0.00  0.00    +0.056 C 
BRANCH  19  20
ATOM     20  C   UNL     1      35.406 -18.085 -22.220  0.00  0.00    +0.093 C 
BRANCH  20  22
ATOM     21  S   UNL     1      33.009 -14.363 -20.828  0.00  0.00    -0.101 S 
ATOM     22  N   UNL     1      34.657 -16.920 -21.857  0.00  0.00    -0.320 N 
ATOM     23  N   UNL     1      34.309 -16.263 -24.117  0.00  0.00    -0.233 NA
ATOM     24  N   UNL     1      33.068 -14.272 -24.712  0.00  0.00    -0.247 NA
ATOM     25  C   UNL     1      34.120 -16.027 -22.803  0.00  0.00    +0.118 C 
ATOM     26  C   UNL     1      33.399 -14.907 -22.409  0.00  0.00    +0.145 C 
ATOM     27  C   UNL     1      32.887 -14.049 -23.382  0.00  0.00    +0.073 C 
ATOM     28  C   UNL     1      32.177 -12.954 -22.806  0.00  0.00    +0.022 C 
ATOM     29  C   UNL     1      32.167 -13.004 -21.430  0.00  0.00    +0.033 C 
ATOM     30  C   UNL     1      33.777 -15.380 -24.982  0.00  0.00    +0.251 C 
ATOM     31  H   UNL     1      34.512 -16.734 -20.901  0.00  0.00    +0.148 HD
ENDBRANCH  20  22
ENDBRANCH  19  20
ENDBRANCH   6  19
TORSDOF 4
ENDMDL
