MODEL 1
REMARK VINA RESULT:      -5.4      0.000      0.000
REMARK  Name = 445724
REMARK  9 active torsions:
REMARK  status: ('A' for Active; 'I' for Inactive)
REMARK    1  A    between atoms: C_1  and  O_2
REMARK    2  A    between atoms: C_1  and  C_4
REMARK    3  A    between atoms: C_1  and  C_11
REMARK    4  A    between atoms: C_4  and  O_5
REMARK    5  A    between atoms: C_4  and  C_7
REMARK    6  A    between atoms: C_7  and  O_9
REMARK    7  A    between atoms: C_11  and  O_12
REMARK    8  A    between atoms: C_11  and  C_14
REMARK    9  A    between atoms: C_14  and  O_15
REMARK                            x       y       z     vdW  Elec       q    Type
REMARK                         _______ _______ _______ _____ _____    ______ ____
ROOT
ATOM      1  C   UNL     1      36.459 -25.406 -13.446  0.00  0.00    +0.169 C 
ENDROOT
BRANCH   1   2
ATOM      2  O   UNL     1      36.810 -26.440 -12.518  0.00  0.00    -0.379 OA
ATOM      3  H   UNL     1      36.713 -27.304 -12.945  0.00  0.00    +0.211 HD
ENDBRANCH   1   2
BRANCH   1   4
ATOM      4  C   UNL     1      37.755 -24.840 -14.052  0.00  0.00    +0.166 C 
BRANCH   4   5
ATOM      5  O   UNL     1      37.483 -24.466 -15.407  0.00  0.00    -0.379 OA
ATOM      6  H   UNL     1      38.308 -24.202 -15.842  0.00  0.00    +0.211 HD
ENDBRANCH   4   5
BRANCH   4   7
ATOM      7  C   UNL     1      38.941 -25.822 -14.056  0.00  0.00    +0.140 C 
ATOM      8  C   UNL     1      40.161 -25.303 -14.806  0.00  0.00    +0.034 C 
BRANCH   7   9
ATOM      9  O   UNL     1      38.536 -27.027 -14.713  0.00  0.00    -0.382 OA
ATOM     10  H   UNL     1      37.723 -27.360 -14.304  0.00  0.00    +0.210 HD
ENDBRANCH   7   9
ENDBRANCH   4   7
ENDBRANCH   1   4
BRANCH   1  11
ATOM     11  C   UNL     1      35.601 -24.370 -12.694  0.00  0.00    +0.169 C 
BRANCH  11  12
ATOM     12  O   UNL     1      35.747 -23.120 -13.379  0.00  0.00    -0.379 OA
ATOM     13  H   UNL     1      36.059 -22.445 -12.756  0.00  0.00    +0.211 HD
ENDBRANCH  11  12
BRANCH  11  14
ATOM     14  C   UNL     1      35.984 -24.161 -11.230  0.00  0.00    +0.169 C 
BRANCH  14  15
ATOM     15  O   UNL     1      35.284 -25.082 -10.402  0.00  0.00    -0.379 OA
ATOM     16  H   UNL     1      34.685 -24.597  -9.814  0.00  0.00    +0.211 HD
ENDBRANCH  14  15
ENDBRANCH  11  14
ENDBRANCH   1  11
TORSDOF 9
ENDMDL
MODEL 2
REMARK VINA RESULT:      -5.3      1.549      4.603
REMARK  Name = 445724
REMARK  9 active torsions:
REMARK  status: ('A' for Active; 'I' for Inactive)
REMARK    1  A    between atoms: C_1  and  O_2
REMARK    2  A    between atoms: C_1  and  C_4
REMARK    3  A    between atoms: C_1  and  C_11
REMARK    4  A    between atoms: C_4  and  O_5
REMARK    5  A    between atoms: C_4  and  C_7
REMARK    6  A    between atoms: C_7  and  O_9
REMARK    7  A    between atoms: C_11  and  O_12
REMARK    8  A    between atoms: C_11  and  C_14
REMARK    9  A    between atoms: C_14  and  O_15
REMARK                            x       y       z     vdW  Elec       q    Type
REMARK                         _______ _______ _______ _____ _____    ______ ____
ROOT
ATOM      1  C   UNL     1      37.753 -24.769 -13.977  0.00  0.00    +0.169 C 
ENDROOT
BRANCH   1   2
ATOM      2  O   UNL     1      38.041 -23.469 -14.508  0.00  0.00    -0.379 OA
ATOM      3  H   UNL     1      37.554 -23.343 -15.337  0.00  0.00    +0.211 HD
ENDBRANCH   1   2
BRANCH   1   4
ATOM      4  C   UNL     1      38.157 -24.784 -12.493  0.00  0.00    +0.166 C 
BRANCH   4   5
ATOM      5  O   UNL     1      37.789 -26.056 -11.949  0.00  0.00    -0.379 OA
ATOM      6  H   UNL     1      37.333 -26.578 -12.627  0.00  0.00    +0.211 HD
ENDBRANCH   4   5
BRANCH   4   7
ATOM      7  C   UNL     1      37.494 -23.689 -11.637  0.00  0.00    +0.140 C 
ATOM      8  C   UNL     1      36.010 -23.504 -11.925  0.00  0.00    +0.034 C 
BRANCH   7   9
ATOM      9  O   UNL     1      38.127 -22.438 -11.923  0.00  0.00    -0.382 OA
ATOM     10  H   UNL     1      37.639 -21.982 -12.625  0.00  0.00    +0.210 HD
ENDBRANCH   7   9
ENDBRANCH   4   7
ENDBRANCH   1   4
BRANCH   1  11
ATOM     11  C   UNL     1      38.487 -25.805 -14.850  0.00  0.00    +0.169 C 
BRANCH  11  12
ATOM     12  O   UNL     1      38.033 -27.101 -14.439  0.00  0.00    -0.379 OA
ATOM     13  H   UNL     1      38.672 -27.485 -13.819  0.00  0.00    +0.211 HD
ENDBRANCH  11  12
BRANCH  11  14
ATOM     14  C   UNL     1      40.010 -25.775 -14.739  0.00  0.00    +0.169 C 
BRANCH  14  15
ATOM     15  O   UNL     1      40.600 -26.001 -16.013  0.00  0.00    -0.379 OA
ATOM     16  H   UNL     1      39.985 -26.500 -16.571  0.00  0.00    +0.211 HD
ENDBRANCH  14  15
ENDBRANCH  11  14
ENDBRANCH   1  11
TORSDOF 9
ENDMDL
MODEL 3
REMARK VINA RESULT:      -5.1      1.056      4.327
REMARK  Name = 445724
REMARK  9 active torsions:
REMARK  status: ('A' for Active; 'I' for Inactive)
REMARK    1  A    between atoms: C_1  and  O_2
REMARK    2  A    between atoms: C_1  and  C_4
REMARK    3  A    between atoms: C_1  and  C_11
REMARK    4  A    between atoms: C_4  and  O_5
REMARK    5  A    between atoms: C_4  and  C_7
REMARK    6  A    between atoms: C_7  and  O_9
REMARK    7  A    between atoms: C_11  and  O_12
REMARK    8  A    between atoms: C_11  and  C_14
REMARK    9  A    between atoms: C_14  and  O_15
REMARK                            x       y       z     vdW  Elec       q    Type
REMARK                         _______ _______ _______ _____ _____    ______ ____
ROOT
ATOM      1  C   UNL     1      36.646 -25.524 -14.098  0.00  0.00    +0.169 C 
ENDROOT
BRANCH   1   2
ATOM      2  O   UNL     1      36.166 -24.273 -14.608  0.00  0.00    -0.379 OA
ATOM      3  H   UNL     1      36.141 -23.620 -13.892  0.00  0.00    +0.211 HD
ENDBRANCH   1   2
BRANCH   1   4
ATOM      4  C   UNL     1      36.958 -25.347 -12.602  0.00  0.00    +0.166 C 
BRANCH   4   5
ATOM      5  O   UNL     1      36.858 -26.631 -11.976  0.00  0.00    -0.379 OA
ATOM      6  H   UNL     1      36.878 -27.324 -12.655  0.00  0.00    +0.211 HD
ENDBRANCH   4   5
BRANCH   4   7
ATOM      7  C   UNL     1      36.016 -24.380 -11.862  0.00  0.00    +0.140 C 
ATOM      8  C   UNL     1      36.721 -23.157 -11.291  0.00  0.00    +0.034 C 
BRANCH   7   9
ATOM      9  O   UNL     1      35.427 -25.070 -10.755  0.00  0.00    -0.382 OA
ATOM     10  H   UNL     1      35.411 -26.021 -10.940  0.00  0.00    +0.210 HD
ENDBRANCH   7   9
ENDBRANCH   4   7
ENDBRANCH   1   4
BRANCH   1  11
ATOM     11  C   UNL     1      37.853 -25.949 -14.957  0.00  0.00    +0.169 C 
BRANCH  11  12
ATOM     12  O   UNL     1      38.194 -27.287 -14.573  0.00  0.00    -0.379 OA
ATOM     13  H   UNL     1      39.159 -27.385 -14.567  0.00  0.00    +0.211 HD
ENDBRANCH  11  12
BRANCH  11  14
ATOM     14  C   UNL     1      39.094 -25.074 -14.797  0.00  0.00    +0.169 C 
BRANCH  14  15
ATOM     15  O   UNL     1      38.980 -23.906 -15.599  0.00  0.00    -0.379 OA
ATOM     16  H   UNL     1      39.179 -24.126 -16.522  0.00  0.00    +0.211 HD
ENDBRANCH  14  15
ENDBRANCH  11  14
ENDBRANCH   1  11
TORSDOF 9
ENDMDL
MODEL 4
REMARK VINA RESULT:      -5.1      1.707      4.078
REMARK  Name = 445724
REMARK  9 active torsions:
REMARK  status: ('A' for Active; 'I' for Inactive)
REMARK    1  A    between atoms: C_1  and  O_2
REMARK    2  A    between atoms: C_1  and  C_4
REMARK    3  A    between atoms: C_1  and  C_11
REMARK    4  A    between atoms: C_4  and  O_5
REMARK    5  A    between atoms: C_4  and  C_7
REMARK    6  A    between atoms: C_7  and  O_9
REMARK    7  A    between atoms: C_11  and  O_12
REMARK    8  A    between atoms: C_11  and  C_14
REMARK    9  A    between atoms: C_14  and  O_15
REMARK                            x       y       z     vdW  Elec       q    Type
REMARK                         _______ _______ _______ _____ _____    ______ ____
ROOT
ATOM      1  C   UNL     1      36.720 -25.188 -13.466  0.00  0.00    +0.169 C 
ENDROOT
BRANCH   1   2
ATOM      2  O   UNL     1      36.718 -26.403 -12.707  0.00  0.00    -0.379 OA
ATOM      3  H   UNL     1      35.869 -26.497 -12.248  0.00  0.00    +0.211 HD
ENDBRANCH   1   2
BRANCH   1   4
ATOM      4  C   UNL     1      35.503 -24.350 -13.038  0.00  0.00    +0.166 C 
BRANCH   4   5
ATOM      5  O   UNL     1      35.467 -23.175 -13.856  0.00  0.00    -0.379 OA
ATOM      6  H   UNL     1      36.223 -23.181 -14.464  0.00  0.00    +0.211 HD
ENDBRANCH   4   5
BRANCH   4   7
ATOM      7  C   UNL     1      35.518 -23.905 -11.564  0.00  0.00    +0.140 C 
ATOM      8  C   UNL     1      36.833 -23.270 -11.132  0.00  0.00    +0.034 C 
BRANCH   7   9
ATOM      9  O   UNL     1      35.325 -25.055 -10.736  0.00  0.00    -0.382 OA
ATOM     10  H   UNL     1      34.982 -25.786 -11.273  0.00  0.00    +0.210 HD
ENDBRANCH   7   9
ENDBRANCH   4   7
ENDBRANCH   1   4
BRANCH   1  11
ATOM     11  C   UNL     1      36.741 -25.568 -14.960  0.00  0.00    +0.169 C 
BRANCH  11  12
ATOM     12  O   UNL     1      35.422 -25.339 -15.473  0.00  0.00    -0.379 OA
ATOM     13  H   UNL     1      35.201 -26.032 -16.114  0.00  0.00    +0.211 HD
ENDBRANCH  11  12
BRANCH  11  14
ATOM     14  C   UNL     1      37.121 -27.019 -15.248  0.00  0.00    +0.169 C 
BRANCH  14  15
ATOM     15  O   UNL     1      36.691 -27.390 -16.552  0.00  0.00    -0.379 OA
ATOM     16  H   UNL     1      37.326 -28.015 -16.935  0.00  0.00    +0.211 HD
ENDBRANCH  14  15
ENDBRANCH  11  14
ENDBRANCH   1  11
TORSDOF 9
ENDMDL
MODEL 5
REMARK VINA RESULT:      -5.0      1.330      2.255
REMARK  Name = 445724
REMARK  9 active torsions:
REMARK  status: ('A' for Active; 'I' for Inactive)
REMARK    1  A    between atoms: C_1  and  O_2
REMARK    2  A    between atoms: C_1  and  C_4
REMARK    3  A    between atoms: C_1  and  C_11
REMARK    4  A    between atoms: C_4  and  O_5
REMARK    5  A    between atoms: C_4  and  C_7
REMARK    6  A    between atoms: C_7  and  O_9
REMARK    7  A    between atoms: C_11  and  O_12
REMARK    8  A    between atoms: C_11  and  C_14
REMARK    9  A    between atoms: C_14  and  O_15
REMARK                            x       y       z     vdW  Elec       q    Type
REMARK                         _______ _______ _______ _____ _____    ______ ____
ROOT
ATOM      1  C   UNL     1      37.047 -25.805 -12.960  0.00  0.00    +0.169 C 
ENDROOT
BRANCH   1   2
ATOM      2  O   UNL     1      36.827 -26.276 -11.624  0.00  0.00    -0.379 OA
ATOM      3  H   UNL     1      36.872 -25.530 -11.007  0.00  0.00    +0.211 HD
ENDBRANCH   1   2
BRANCH   1   4
ATOM      4  C   UNL     1      38.483 -25.261 -13.050  0.00  0.00    +0.166 C 
BRANCH   4   5
ATOM      5  O   UNL     1      38.413 -23.904 -13.501  0.00  0.00    -0.379 OA
ATOM      6  H   UNL     1      37.523 -23.722 -13.841  0.00  0.00    +0.211 HD
ENDBRANCH   4   5
BRANCH   4   7
ATOM      7  C   UNL     1      39.403 -26.037 -14.011  0.00  0.00    +0.140 C 
ATOM      8  C   UNL     1      40.122 -25.149 -15.017  0.00  0.00    +0.034 C 
BRANCH   7   9
ATOM      9  O   UNL     1      38.607 -26.955 -14.766  0.00  0.00    -0.382 OA
ATOM     10  H   UNL     1      39.185 -27.520 -15.300  0.00  0.00    +0.210 HD
ENDBRANCH   7   9
ENDBRANCH   4   7
ENDBRANCH   1   4
BRANCH   1  11
ATOM     11  C   UNL     1      35.951 -24.770 -13.280  0.00  0.00    +0.169 C 
BRANCH  11  12
ATOM     12  O   UNL     1      34.886 -24.978 -12.343  0.00  0.00    -0.379 OA
ATOM     13  H   UNL     1      34.736 -24.162 -11.839  0.00  0.00    +0.211 HD
ENDBRANCH  11  12
BRANCH  11  14
ATOM     14  C   UNL     1      35.371 -24.863 -14.690  0.00  0.00    +0.169 C 
BRANCH  14  15
ATOM     15  O   UNL     1      36.416 -25.005 -15.643  0.00  0.00    -0.379 OA
ATOM     16  H   UNL     1      36.695 -24.128 -15.950  0.00  0.00    +0.211 HD
ENDBRANCH  14  15
ENDBRANCH  11  14
ENDBRANCH   1  11
TORSDOF 9
ENDMDL
MODEL 6
REMARK VINA RESULT:      -5.0     12.221     13.688
REMARK  Name = 445724
REMARK  9 active torsions:
REMARK  status: ('A' for Active; 'I' for Inactive)
REMARK    1  A    between atoms: C_1  and  O_2
REMARK    2  A    between atoms: C_1  and  C_4
REMARK    3  A    between atoms: C_1  and  C_11
REMARK    4  A    between atoms: C_4  and  O_5
REMARK    5  A    between atoms: C_4  and  C_7
REMARK    6  A    between atoms: C_7  and  O_9
REMARK    7  A    between atoms: C_11  and  O_12
REMARK    8  A    between atoms: C_11  and  C_14
REMARK    9  A    between atoms: C_14  and  O_15
REMARK                            x       y       z     vdW  Elec       q    Type
REMARK                         _______ _______ _______ _____ _____    ______ ____
ROOT
ATOM      1  C   UNL     1      34.701 -16.975 -23.500  0.00  0.00    +0.169 C 
ENDROOT
BRANCH   1   2
ATOM      2  O   UNL     1      35.610 -15.895 -23.257  0.00  0.00    -0.379 OA
ATOM      3  H   UNL     1      35.116 -15.118 -22.953  0.00  0.00    +0.211 HD
ENDBRANCH   1   2
BRANCH   1   4
ATOM      4  C   UNL     1      35.438 -18.298 -23.225  0.00  0.00    +0.166 C 
BRANCH   4   5
ATOM      5  O   UNL     1      34.882 -19.299 -24.084  0.00  0.00    -0.379 OA
ATOM      6  H   UNL     1      33.914 -19.236 -24.070  0.00  0.00    +0.211 HD
ENDBRANCH   4   5
BRANCH   4   7
ATOM      7  C   UNL     1      35.330 -18.800 -21.773  0.00  0.00    +0.140 C 
ATOM      8  C   UNL     1      33.976 -19.411 -21.438  0.00  0.00    +0.034 C 
BRANCH   7   9
ATOM      9  O   UNL     1      35.511 -17.690 -20.889  0.00  0.00    -0.382 OA
ATOM     10  H   UNL     1      35.419 -16.863 -21.386  0.00  0.00    +0.210 HD
ENDBRANCH   7   9
ENDBRANCH   4   7
ENDBRANCH   1   4
BRANCH   1  11
ATOM     11  C   UNL     1      34.171 -16.828 -24.940  0.00  0.00    +0.169 C 
BRANCH  11  12
ATOM     12  O   UNL     1      35.282 -17.024 -25.823  0.00  0.00    -0.379 OA
ATOM     13  H   UNL     1      34.958 -17.148 -26.728  0.00  0.00    +0.211 HD
ENDBRANCH  11  12
BRANCH  11  14
ATOM     14  C   UNL     1      33.542 -15.472 -25.256  0.00  0.00    +0.169 C 
BRANCH  14  15
ATOM     15  O   UNL     1      33.539 -15.247 -26.661  0.00  0.00    -0.379 OA
ATOM     16  H   UNL     1      33.909 -16.020 -27.113  0.00  0.00    +0.211 HD
ENDBRANCH  14  15
ENDBRANCH  11  14
ENDBRANCH   1  11
TORSDOF 9
ENDMDL
MODEL 7
REMARK VINA RESULT:      -5.0      1.461      4.144
REMARK  Name = 445724
REMARK  9 active torsions:
REMARK  status: ('A' for Active; 'I' for Inactive)
REMARK    1  A    between atoms: C_1  and  O_2
REMARK    2  A    between atoms: C_1  and  C_4
REMARK    3  A    between atoms: C_1  and  C_11
REMARK    4  A    between atoms: C_4  and  O_5
REMARK    5  A    between atoms: C_4  and  C_7
REMARK    6  A    between atoms: C_7  and  O_9
REMARK    7  A    between atoms: C_11  and  O_12
REMARK    8  A    between atoms: C_11  and  C_14
REMARK    9  A    between atoms: C_14  and  O_15
REMARK                            x       y       z     vdW  Elec       q    Type
REMARK                         _______ _______ _______ _____ _____    ______ ____
ROOT
ATOM      1  C   UNL     1      37.136 -25.858 -12.434  0.00  0.00    +0.169 C 
ENDROOT
BRANCH   1   2
ATOM      2  O   UNL     1      36.562 -26.549 -13.550  0.00  0.00    -0.379 OA
ATOM      3  H   UNL     1      35.974 -27.249 -13.229  0.00  0.00    +0.211 HD
ENDBRANCH   1   2
BRANCH   1   4
ATOM      4  C   UNL     1      36.191 -24.710 -12.037  0.00  0.00    +0.166 C 
BRANCH   4   5
ATOM      5  O   UNL     1      35.449 -25.128 -10.886  0.00  0.00    -0.379 OA
ATOM      6  H   UNL     1      34.972 -24.369 -10.515  0.00  0.00    +0.211 HD
ENDBRANCH   4   5
BRANCH   4   7
ATOM      7  C   UNL     1      35.186 -24.302 -13.131  0.00  0.00    +0.140 C 
ATOM      8  C   UNL     1      35.741 -23.287 -14.121  0.00  0.00    +0.034 C 
BRANCH   7   9
ATOM      9  O   UNL     1      34.053 -23.692 -12.507  0.00  0.00    -0.382 OA
ATOM     10  H   UNL     1      33.323 -24.329 -12.469  0.00  0.00    +0.210 HD
ENDBRANCH   7   9
ENDBRANCH   4   7
ENDBRANCH   1   4
BRANCH   1  11
ATOM     11  C   UNL     1      38.553 -25.406 -12.839  0.00  0.00    +0.169 C 
BRANCH  11  12
ATOM     12  O   UNL     1      38.715 -24.059 -12.380  0.00  0.00    -0.379 OA
ATOM     13  H   UNL     1      39.472 -24.012 -11.775  0.00  0.00    +0.211 HD
ENDBRANCH  11  12
BRANCH  11  14
ATOM     14  C   UNL     1      38.831 -25.436 -14.341  0.00  0.00    +0.169 C 
BRANCH  14  15
ATOM     15  O   UNL     1      39.233 -26.741 -14.741  0.00  0.00    -0.379 OA
ATOM     16  H   UNL     1      40.198 -26.812 -14.687  0.00  0.00    +0.211 HD
ENDBRANCH  14  15
ENDBRANCH  11  14
ENDBRANCH   1  11
TORSDOF 9
ENDMDL
MODEL 8
REMARK VINA RESULT:      -4.9     10.916     12.179
REMARK  Name = 445724
REMARK  9 active torsions:
REMARK  status: ('A' for Active; 'I' for Inactive)
REMARK    1  A    between atoms: C_1  and  O_2
REMARK    2  A    between atoms: C_1  and  C_4
REMARK    3  A    between atoms: C_1  and  C_11
REMARK    4  A    between atoms: C_4  and  O_5
REMARK    5  A    between atoms: C_4  and  C_7
REMARK    6  A    between atoms: C_7  and  O_9
REMARK    7  A    between atoms: C_11  and  O_12
REMARK    8  A    between atoms: C_11  and  C_14
REMARK    9  A    between atoms: C_14  and  O_15
REMARK                            x       y       z     vdW  Elec       q    Type
REMARK                         _______ _______ _______ _____ _____    ______ ____
ROOT
ATOM      1  C   UNL     1      34.521 -17.261 -21.643  0.00  0.00    +0.169 C 
ENDROOT
BRANCH   1   2
ATOM      2  O   UNL     1      35.274 -16.810 -20.510  0.00  0.00    -0.379 OA
ATOM      3  H   UNL     1      34.927 -17.226 -19.706  0.00  0.00    +0.211 HD
ENDBRANCH   1   2
BRANCH   1   4
ATOM      4  C   UNL     1      35.186 -18.539 -22.187  0.00  0.00    +0.166 C 
BRANCH   4   5
ATOM      5  O   UNL     1      34.601 -18.832 -23.460  0.00  0.00    -0.379 OA
ATOM      6  H   UNL     1      33.891 -18.198 -23.644  0.00  0.00    +0.211 HD
ENDBRANCH   4   5
BRANCH   4   7
ATOM      7  C   UNL     1      35.020 -19.778 -21.288  0.00  0.00    +0.140 C 
ATOM      8  C   UNL     1      33.626 -19.917 -20.691  0.00  0.00    +0.034 C 
BRANCH   7   9
ATOM      9  O   UNL     1      35.929 -19.673 -20.189  0.00  0.00    -0.382 OA
ATOM     10  H   UNL     1      35.946 -18.757 -19.870  0.00  0.00    +0.210 HD
ENDBRANCH   7   9
ENDBRANCH   4   7
ENDBRANCH   1   4
BRANCH   1  11
ATOM     11  C   UNL     1      34.451 -16.100 -22.653  0.00  0.00    +0.169 C 
BRANCH  11  12
ATOM     12  O   UNL     1      35.654 -16.141 -23.431  0.00  0.00    -0.379 OA
ATOM     13  H   UNL     1      35.891 -15.243 -23.708  0.00  0.00    +0.211 HD
ENDBRANCH  11  12
BRANCH  11  14
ATOM     14  C   UNL     1      34.335 -14.711 -22.027  0.00  0.00    +0.169 C 
BRANCH  14  15
ATOM     15  O   UNL     1      34.465 -13.708 -23.027  0.00  0.00    -0.379 OA
ATOM     16  H   UNL     1      34.636 -14.126 -23.884  0.00  0.00    +0.211 HD
ENDBRANCH  14  15
ENDBRANCH  11  14
ENDBRANCH   1  11
TORSDOF 9
ENDMDL
MODEL 9
REMARK VINA RESULT:      -4.9      2.426      4.370
REMARK  Name = 445724
REMARK  9 active torsions:
REMARK  status: ('A' for Active; 'I' for Inactive)
REMARK    1  A    between atoms: C_1  and  O_2
REMARK    2  A    between atoms: C_1  and  C_4
REMARK    3  A    between atoms: C_1  and  C_11
REMARK    4  A    between atoms: C_4  and  O_5
REMARK    5  A    between atoms: C_4  and  C_7
REMARK    6  A    between atoms: C_7  and  O_9
REMARK    7  A    between atoms: C_11  and  O_12
REMARK    8  A    between atoms: C_11  and  C_14
REMARK    9  A    between atoms: C_14  and  O_15
REMARK                            x       y       z     vdW  Elec       q    Type
REMARK                         _______ _______ _______ _____ _____    ______ ____
ROOT
ATOM      1  C   UNL     1      38.018 -25.291 -14.944  0.00  0.00    +0.169 C 
ENDROOT
BRANCH   1   2
ATOM      2  O   UNL     1      38.275 -23.947 -15.369  0.00  0.00    -0.379 OA
ATOM      3  H   UNL     1      37.513 -23.388 -15.154  0.00  0.00    +0.211 HD
ENDBRANCH   1   2
BRANCH   1   4
ATOM      4  C   UNL     1      36.526 -25.407 -14.586  0.00  0.00    +0.166 C 
BRANCH   4   5
ATOM      5  O   UNL     1      35.951 -26.423 -15.415  0.00  0.00    -0.379 OA
ATOM      6  H   UNL     1      35.877 -26.094 -16.325  0.00  0.00    +0.211 HD
ENDBRANCH   4   5
BRANCH   4   7
ATOM      7  C   UNL     1      35.717 -24.112 -14.788  0.00  0.00    +0.140 C 
ATOM      8  C   UNL     1      34.359 -24.127 -14.100  0.00  0.00    +0.034 C 
BRANCH   7   9
ATOM      9  O   UNL     1      35.469 -23.939 -16.186  0.00  0.00    -0.382 OA
ATOM     10  H   UNL     1      34.776 -23.273 -16.311  0.00  0.00    +0.210 HD
ENDBRANCH   7   9
ENDBRANCH   4   7
ENDBRANCH   1   4
BRANCH   1  11
ATOM     11  C   UNL     1      38.979 -25.609 -13.783  0.00  0.00    +0.169 C 
BRANCH  11  12
ATOM     12  O   UNL     1      39.023 -24.450 -12.940  0.00  0.00    -0.379 OA
ATOM     13  H   UNL     1      39.663 -24.594 -12.226  0.00  0.00    +0.211 HD
ENDBRANCH  11  12
BRANCH  11  14
ATOM     14  C   UNL     1      40.407 -25.947 -14.206  0.00  0.00    +0.169 C 
BRANCH  14  15
ATOM     15  O   UNL     1      41.087 -24.771 -14.627  0.00  0.00    -0.379 OA
ATOM     16  H   UNL     1      41.959 -24.732 -14.205  0.00  0.00    +0.211 HD
ENDBRANCH  14  15
ENDBRANCH  11  14
ENDBRANCH   1  11
TORSDOF 9
ENDMDL
