MODEL 1
REMARK VINA RESULT:      -8.1      0.000      0.000
REMARK  Name = 25246329
REMARK  6 active torsions:
REMARK  status: ('A' for Active; 'I' for Inactive)
REMARK    1  A    between atoms: C_2  and  C_9
REMARK    2  A    between atoms: C_3  and  C_20
REMARK    3  A    between atoms: CA_4  and  C_30
REMARK    4  A    between atoms: CA_5  and  C_34
REMARK    5  A    between atoms: C_30  and  O_31
REMARK    6  A    between atoms: C_34  and  O_35
REMARK                            x       y       z     vdW  Elec       q    Type
REMARK                         _______ _______ _______ _____ _____    ______ ____
ROOT
ATOM      1  N   UNL     1      32.071 -12.865 -19.766  0.00  0.00    -0.343 N 
ATOM      2  C   UNL     1      31.886 -11.310 -21.340  0.00  0.00    +0.025 A 
ATOM      3  C   UNL     1      32.512 -12.449 -21.903  0.00  0.00    +0.025 A 
ATOM      4  CA  UNL     1      31.625 -11.595 -20.018  0.00  0.00    +0.133 A 
ATOM      5  CA  UNL     1      32.614 -13.396 -20.907  0.00  0.00    +0.133 A 
ATOM      6  H   UNL     1      32.012 -13.327 -18.899  0.00  0.00    +0.166 HD
ENDROOT
BRANCH   2   9
ATOM      7 CL   UNL     1      31.046  -5.412 -23.656  0.00  0.00    -0.081 Cl
ATOM      8  N   UNL     1      30.859  -8.626 -23.554  0.00  0.00    -0.311 N 
ATOM      9  C   UNL     1      31.587 -10.082 -22.045  0.00  0.00    +0.017 C 
ATOM     10  C   UNL     1      31.931  -8.774 -21.603  0.00  0.00    +0.016 C 
ATOM     11  C   UNL     1      31.463  -7.879 -22.568  0.00  0.00    +0.059 C 
ATOM     12  C   UNL     1      30.929  -9.958 -23.247  0.00  0.00    +0.062 C 
ATOM     13  C   UNL     1      32.598  -8.263 -20.472  0.00  0.00    +0.001 C 
ATOM     14  C   UNL     1      31.629  -6.494 -22.457  0.00  0.00    +0.071 C 
ATOM     15  C   UNL     1      32.771  -6.880 -20.348  0.00  0.00    +0.001 C 
ATOM     16  C   UNL     1      32.294  -6.010 -21.326  0.00  0.00    +0.013 C 
ATOM     17  H   UNL     1      30.438  -8.256 -24.363  0.00  0.00    +0.152 HD
ENDBRANCH   2   9
BRANCH   3  20
ATOM     18 CL   UNL     1      34.949 -12.078 -27.802  0.00  0.00    -0.081 Cl
ATOM     19  N   UNL     1      33.281 -13.319 -25.342  0.00  0.00    -0.311 N 
ATOM     20  C   UNL     1      32.954 -12.571 -23.278  0.00  0.00    +0.017 C 
ATOM     21  C   UNL     1      33.775 -11.634 -23.965  0.00  0.00    +0.016 C 
ATOM     22  C   UNL     1      33.965 -12.127 -25.258  0.00  0.00    +0.059 C 
ATOM     23  C   UNL     1      32.667 -13.596 -24.150  0.00  0.00    +0.062 C 
ATOM     24  C   UNL     1      34.377 -10.411 -23.611  0.00  0.00    +0.001 C 
ATOM     25  C   UNL     1      34.730 -11.454 -26.218  0.00  0.00    +0.071 C 
ATOM     26  C   UNL     1      35.145  -9.727 -24.559  0.00  0.00    +0.001 C 
ATOM     27  C   UNL     1      35.317 -10.243 -25.843  0.00  0.00    +0.013 C 
ATOM     28  H   UNL     1      33.238 -13.889 -26.143  0.00  0.00    +0.152 HD
ENDBRANCH   3  20
BRANCH   4  30
ATOM     29  OXT UNL     1      29.812 -10.407 -19.003  0.00  0.00    -0.243 OA
ATOM     30  C   UNL     1      31.007 -10.771 -19.024  0.00  0.00    +0.354 C 
BRANCH  30  31
ATOM     31  O   UNL     1      31.865 -10.384 -18.028  0.00  0.00    -0.476 OA
ATOM     32  H   UNL     1      31.638  -9.673 -17.464  0.00  0.00    +0.295 HD
ENDBRANCH  30  31
ENDBRANCH   4  30
BRANCH   5  34
ATOM     33  OXT UNL     1      34.368 -15.019 -20.794  0.00  0.00    -0.243 OA
ATOM     34  C   UNL     1      33.170 -14.712 -20.971  0.00  0.00    +0.354 C 
BRANCH  34  35
ATOM     35  O   UNL     1      32.243 -15.681 -21.256  0.00  0.00    -0.476 OA
ATOM     36  H   UNL     1      32.213 -16.466 -20.746  0.00  0.00    +0.295 HD
ENDBRANCH  34  35
ENDBRANCH   5  34
TORSDOF 6
ENDMDL
MODEL 2
REMARK VINA RESULT:      -8.0      0.016      5.344
REMARK  Name = 25246329
REMARK  6 active torsions:
REMARK  status: ('A' for Active; 'I' for Inactive)
REMARK    1  A    between atoms: C_2  and  C_9
REMARK    2  A    between atoms: C_3  and  C_20
REMARK    3  A    between atoms: CA_4  and  C_30
REMARK    4  A    between atoms: CA_5  and  C_34
REMARK    5  A    between atoms: C_30  and  O_31
REMARK    6  A    between atoms: C_34  and  O_35
REMARK                            x       y       z     vdW  Elec       q    Type
REMARK                         _______ _______ _______ _____ _____    ______ ____
ROOT
ATOM      1  N   UNL     1      32.076 -12.862 -19.753  0.00  0.00    -0.343 N 
ATOM      2  C   UNL     1      32.510 -12.449 -21.891  0.00  0.00    +0.025 A 
ATOM      3  C   UNL     1      31.883 -11.310 -21.329  0.00  0.00    +0.025 A 
ATOM      4  CA  UNL     1      32.617 -13.393 -20.894  0.00  0.00    +0.133 A 
ATOM      5  CA  UNL     1      31.625 -11.593 -20.006  0.00  0.00    +0.133 A 
ATOM      6  H   UNL     1      32.020 -13.321 -18.884  0.00  0.00    +0.166 HD
ENDROOT
BRANCH   2   9
ATOM      7 CL   UNL     1      34.932 -12.087 -27.795  0.00  0.00    -0.081 Cl
ATOM      8  N   UNL     1      33.271 -13.324 -25.328  0.00  0.00    -0.311 N 
ATOM      9  C   UNL     1      32.949 -12.574 -23.264  0.00  0.00    +0.017 C 
ATOM     10  C   UNL     1      33.767 -11.637 -23.956  0.00  0.00    +0.016 C 
ATOM     11  C   UNL     1      33.954 -12.131 -25.248  0.00  0.00    +0.059 C 
ATOM     12  C   UNL     1      32.660 -13.600 -24.134  0.00  0.00    +0.062 C 
ATOM     13  C   UNL     1      34.368 -10.412 -23.605  0.00  0.00    +0.001 C 
ATOM     14  C   UNL     1      34.715 -11.460 -26.211  0.00  0.00    +0.071 C 
ATOM     15  C   UNL     1      35.132  -9.729 -24.558  0.00  0.00    +0.001 C 
ATOM     16  C   UNL     1      35.302 -10.246 -25.841  0.00  0.00    +0.013 C 
ATOM     17  H   UNL     1      33.228 -13.897 -26.128  0.00  0.00    +0.152 HD
ENDBRANCH   2   9
BRANCH   3  20
ATOM     18 CL   UNL     1      31.028  -5.421 -23.669  0.00  0.00    -0.081 Cl
ATOM     19  N   UNL     1      30.839  -8.634 -23.550  0.00  0.00    -0.311 N 
ATOM     20  C   UNL     1      31.578 -10.083 -22.038  0.00  0.00    +0.017 C 
ATOM     21  C   UNL     1      31.927  -8.773 -21.606  0.00  0.00    +0.016 C 
ATOM     22  C   UNL     1      31.453  -7.882 -22.572  0.00  0.00    +0.059 C 
ATOM     23  C   UNL     1      30.911  -9.965 -23.236  0.00  0.00    +0.062 C 
ATOM     24  C   UNL     1      32.604  -8.257 -20.483  0.00  0.00    +0.001 C 
ATOM     25  C   UNL     1      31.621  -6.497 -22.470  0.00  0.00    +0.071 C 
ATOM     26  C   UNL     1      32.780  -6.874 -20.367  0.00  0.00    +0.001 C 
ATOM     27  C   UNL     1      32.295  -6.009 -21.347  0.00  0.00    +0.013 C 
ATOM     28  H   UNL     1      30.412  -8.268 -24.357  0.00  0.00    +0.152 HD
ENDBRANCH   3  20
BRANCH   4  30
ATOM     29  OXT UNL     1      34.372 -15.016 -20.775  0.00  0.00    -0.243 OA
ATOM     30  C   UNL     1      33.174 -14.710 -20.956  0.00  0.00    +0.354 C 
BRANCH  30  31
ATOM     31  O   UNL     1      32.248 -15.679 -21.243  0.00  0.00    -0.476 OA
ATOM     32  H   UNL     1      31.926 -16.235 -20.562  0.00  0.00    +0.295 HD
ENDBRANCH  30  31
ENDBRANCH   4  30
BRANCH   5  34
ATOM     33  OXT UNL     1      29.810 -10.410 -18.992  0.00  0.00    -0.243 OA
ATOM     34  C   UNL     1      31.006 -10.770 -19.013  0.00  0.00    +0.354 C 
BRANCH  34  35
ATOM     35  O   UNL     1      31.865 -10.376 -18.020  0.00  0.00    -0.476 OA
ATOM     36  H   UNL     1      31.855 -10.813 -17.192  0.00  0.00    +0.295 HD
ENDBRANCH  34  35
ENDBRANCH   5  34
TORSDOF 6
ENDMDL
MODEL 3
REMARK VINA RESULT:      -7.9      2.663      3.988
REMARK  Name = 25246329
REMARK  6 active torsions:
REMARK  status: ('A' for Active; 'I' for Inactive)
REMARK    1  A    between atoms: C_2  and  C_9
REMARK    2  A    between atoms: C_3  and  C_20
REMARK    3  A    between atoms: CA_4  and  C_30
REMARK    4  A    between atoms: CA_5  and  C_34
REMARK    5  A    between atoms: C_30  and  O_31
REMARK    6  A    between atoms: C_34  and  O_35
REMARK                            x       y       z     vdW  Elec       q    Type
REMARK                         _______ _______ _______ _____ _____    ______ ____
ROOT
ATOM      1  N   UNL     1      31.679  -8.976 -20.179  0.00  0.00    -0.343 N 
ATOM      2  C   UNL     1      32.762  -8.467 -22.048  0.00  0.00    +0.025 A 
ATOM      3  C   UNL     1      32.408  -9.838 -22.091  0.00  0.00    +0.025 A 
ATOM      4  CA  UNL     1      32.299  -7.959 -20.855  0.00  0.00    +0.133 A 
ATOM      5  CA  UNL     1      31.740 -10.126 -20.922  0.00  0.00    +0.133 A 
ATOM      6  H   UNL     1      31.254  -8.895 -19.294  0.00  0.00    +0.166 HD
ENDROOT
BRANCH   2   9
ATOM      7 CL   UNL     1      35.006  -4.882 -26.840  0.00  0.00    -0.081 Cl
ATOM      8  N   UNL     1      35.086  -7.003 -24.418  0.00  0.00    -0.311 N 
ATOM      9  C   UNL     1      33.480  -7.753 -23.082  0.00  0.00    +0.017 C 
ATOM     10  C   UNL     1      32.905  -6.819 -23.989  0.00  0.00    +0.016 C 
ATOM     11  C   UNL     1      33.934  -6.364 -24.816  0.00  0.00    +0.059 C 
ATOM     12  C   UNL     1      34.822  -7.844 -23.371  0.00  0.00    +0.062 C 
ATOM     13  C   UNL     1      31.604  -6.316 -24.187  0.00  0.00    +0.001 C 
ATOM     14  C   UNL     1      33.726  -5.428 -25.835  0.00  0.00    +0.071 C 
ATOM     15  C   UNL     1      31.381  -5.379 -25.202  0.00  0.00    +0.001 C 
ATOM     16  C   UNL     1      32.427  -4.942 -26.013  0.00  0.00    +0.013 C 
ATOM     17  H   UNL     1      35.973  -6.875 -24.827  0.00  0.00    +0.152 HD
ENDBRANCH   2   9
BRANCH   3  20
ATOM     18 CL   UNL     1      33.757 -14.593 -26.146  0.00  0.00    -0.081 Cl
ATOM     19  N   UNL     1      33.114 -11.585 -25.194  0.00  0.00    -0.311 N 
ATOM     20  C   UNL     1      32.707 -10.749 -23.178  0.00  0.00    +0.017 C 
ATOM     21  C   UNL     1      32.931 -12.148 -23.042  0.00  0.00    +0.016 C 
ATOM     22  C   UNL     1      33.183 -12.648 -24.322  0.00  0.00    +0.059 C 
ATOM     23  C   UNL     1      32.826 -10.433 -24.512  0.00  0.00    +0.062 C 
ATOM     24  C   UNL     1      32.943 -13.039 -21.951  0.00  0.00    +0.001 C 
ATOM     25  C   UNL     1      33.449 -14.001 -24.565  0.00  0.00    +0.071 C 
ATOM     26  C   UNL     1      33.206 -14.394 -22.179  0.00  0.00    +0.001 C 
ATOM     27  C   UNL     1      33.455 -14.865 -23.467  0.00  0.00    +0.013 C 
ATOM     28  H   UNL     1      33.250 -11.644 -26.167  0.00  0.00    +0.152 HD
ENDBRANCH   3  20
BRANCH   4  30
ATOM     29  OXT UNL     1      33.154  -6.252 -19.412  0.00  0.00    -0.243 OA
ATOM     30  C   UNL     1      32.405  -6.628 -20.340  0.00  0.00    +0.354 C 
BRANCH  30  31
ATOM     31  O   UNL     1      31.583  -5.733 -20.972  0.00  0.00    -0.476 OA
ATOM     32  H   UNL     1      31.902  -4.882 -21.196  0.00  0.00    +0.295 HD
ENDBRANCH  30  31
ENDBRANCH   4  30
BRANCH   5  34
ATOM     33  OXT UNL     1      31.612 -12.092 -19.564  0.00  0.00    -0.243 OA
ATOM     34  C   UNL     1      31.180 -11.369 -20.488  0.00  0.00    +0.354 C 
BRANCH  34  35
ATOM     35  O   UNL     1      30.067 -11.741 -21.195  0.00  0.00    -0.476 OA
ATOM     36  H   UNL     1      30.159 -12.163 -22.026  0.00  0.00    +0.295 HD
ENDBRANCH  34  35
ENDBRANCH   5  34
TORSDOF 6
ENDMDL
MODEL 4
REMARK VINA RESULT:      -7.9      2.663      5.913
REMARK  Name = 25246329
REMARK  6 active torsions:
REMARK  status: ('A' for Active; 'I' for Inactive)
REMARK    1  A    between atoms: C_2  and  C_9
REMARK    2  A    between atoms: C_3  and  C_20
REMARK    3  A    between atoms: CA_4  and  C_30
REMARK    4  A    between atoms: CA_5  and  C_34
REMARK    5  A    between atoms: C_30  and  O_31
REMARK    6  A    between atoms: C_34  and  O_35
REMARK                            x       y       z     vdW  Elec       q    Type
REMARK                         _______ _______ _______ _____ _____    ______ ____
ROOT
ATOM      1  N   UNL     1      31.684  -8.984 -20.176  0.00  0.00    -0.343 N 
ATOM      2  C   UNL     1      32.411  -9.843 -22.089  0.00  0.00    +0.025 A 
ATOM      3  C   UNL     1      32.768  -8.473 -22.045  0.00  0.00    +0.025 A 
ATOM      4  CA  UNL     1      31.742 -10.132 -20.920  0.00  0.00    +0.133 A 
ATOM      5  CA  UNL     1      32.305  -7.966 -20.851  0.00  0.00    +0.133 A 
ATOM      6  H   UNL     1      31.261  -8.901 -19.290  0.00  0.00    +0.166 HD
ENDROOT
BRANCH   2   9
ATOM      7 CL   UNL     1      33.746 -14.600 -26.144  0.00  0.00    -0.081 Cl
ATOM      8  N   UNL     1      33.109 -11.590 -25.191  0.00  0.00    -0.311 N 
ATOM      9  C   UNL     1      32.706 -10.753 -23.175  0.00  0.00    +0.017 C 
ATOM     10  C   UNL     1      32.929 -12.152 -23.040  0.00  0.00    +0.016 C 
ATOM     11  C   UNL     1      33.179 -12.653 -24.319  0.00  0.00    +0.059 C 
ATOM     12  C   UNL     1      32.823 -10.438 -24.509  0.00  0.00    +0.062 C 
ATOM     13  C   UNL     1      32.941 -13.043 -21.949  0.00  0.00    +0.001 C 
ATOM     14  C   UNL     1      33.442 -14.006 -24.562  0.00  0.00    +0.071 C 
ATOM     15  C   UNL     1      33.202 -14.399 -22.177  0.00  0.00    +0.001 C 
ATOM     16  C   UNL     1      33.449 -14.871 -23.465  0.00  0.00    +0.013 C 
ATOM     17  H   UNL     1      33.244 -11.649 -26.165  0.00  0.00    +0.152 HD
ENDBRANCH   2   9
BRANCH   3  20
ATOM     18 CL   UNL     1      35.020  -4.889 -26.837  0.00  0.00    -0.081 Cl
ATOM     19  N   UNL     1      35.096  -7.013 -24.417  0.00  0.00    -0.311 N 
ATOM     20  C   UNL     1      33.487  -7.759 -23.081  0.00  0.00    +0.017 C 
ATOM     21  C   UNL     1      32.915  -6.823 -23.987  0.00  0.00    +0.016 C 
ATOM     22  C   UNL     1      33.945  -6.369 -24.814  0.00  0.00    +0.059 C 
ATOM     23  C   UNL     1      34.830  -7.854 -23.371  0.00  0.00    +0.062 C 
ATOM     24  C   UNL     1      31.615  -6.315 -24.183  0.00  0.00    +0.001 C 
ATOM     25  C   UNL     1      33.739  -5.431 -25.832  0.00  0.00    +0.071 C 
ATOM     26  C   UNL     1      31.394  -5.376 -25.196  0.00  0.00    +0.001 C 
ATOM     27  C   UNL     1      32.442  -4.942 -26.007  0.00  0.00    +0.013 C 
ATOM     28  H   UNL     1      35.982  -6.887 -24.827  0.00  0.00    +0.152 HD
ENDBRANCH   3  20
BRANCH   4  30
ATOM     29  OXT UNL     1      31.606 -12.100 -19.565  0.00  0.00    -0.243 OA
ATOM     30  C   UNL     1      31.178 -11.374 -20.488  0.00  0.00    +0.354 C 
BRANCH  30  31
ATOM     31  O   UNL     1      30.062 -11.740 -21.195  0.00  0.00    -0.476 OA
ATOM     32  H   UNL     1      30.083 -12.499 -21.742  0.00  0.00    +0.295 HD
ENDBRANCH  30  31
ENDBRANCH   4  30
BRANCH   5  34
ATOM     33  OXT UNL     1      33.160  -6.261 -19.407  0.00  0.00    -0.243 OA
ATOM     34  C   UNL     1      32.413  -6.635 -20.336  0.00  0.00    +0.354 C 
BRANCH  34  35
ATOM     35  O   UNL     1      31.592  -5.739 -20.969  0.00  0.00    -0.476 OA
ATOM     36  H   UNL     1      31.588  -4.840 -20.705  0.00  0.00    +0.295 HD
ENDBRANCH  34  35
ENDBRANCH   5  34
TORSDOF 6
ENDMDL
MODEL 5
REMARK VINA RESULT:      -6.7      1.007      5.981
REMARK  Name = 25246329
REMARK  6 active torsions:
REMARK  status: ('A' for Active; 'I' for Inactive)
REMARK    1  A    between atoms: C_2  and  C_9
REMARK    2  A    between atoms: C_3  and  C_20
REMARK    3  A    between atoms: CA_4  and  C_30
REMARK    4  A    between atoms: CA_5  and  C_34
REMARK    5  A    between atoms: C_30  and  O_31
REMARK    6  A    between atoms: C_34  and  O_35
REMARK                            x       y       z     vdW  Elec       q    Type
REMARK                         _______ _______ _______ _____ _____    ______ ____
ROOT
ATOM      1  N   UNL     1      32.103 -12.860 -20.259  0.00  0.00    -0.343 N 
ATOM      2  C   UNL     1      32.793 -12.061 -22.212  0.00  0.00    +0.025 A 
ATOM      3  C   UNL     1      32.006 -11.072 -21.573  0.00  0.00    +0.025 A 
ATOM      4  CA  UNL     1      32.836 -13.156 -21.377  0.00  0.00    +0.133 A 
ATOM      5  CA  UNL     1      31.592 -11.593 -20.367  0.00  0.00    +0.133 A 
ATOM      6  H   UNL     1      31.964 -13.464 -19.494  0.00  0.00    +0.166 HD
ENDROOT
BRANCH   2   9
ATOM      7 CL   UNL     1      35.103 -12.350 -28.165  0.00  0.00    -0.081 Cl
ATOM      8  N   UNL     1      34.632 -11.163 -25.208  0.00  0.00    -0.311 N 
ATOM      9  C   UNL     1      33.426 -11.923 -23.507  0.00  0.00    +0.017 C 
ATOM     10  C   UNL     1      33.290 -12.835 -24.591  0.00  0.00    +0.016 C 
ATOM     11  C   UNL     1      34.056 -12.335 -25.645  0.00  0.00    +0.059 C 
ATOM     12  C   UNL     1      34.256 -10.906 -23.916  0.00  0.00    +0.062 C 
ATOM     13  C   UNL     1      32.587 -14.042 -24.777  0.00  0.00    +0.001 C 
ATOM     14  C   UNL     1      34.155 -12.983 -26.881  0.00  0.00    +0.071 C 
ATOM     15  C   UNL     1      32.676 -14.701 -26.008  0.00  0.00    +0.001 C 
ATOM     16  C   UNL     1      33.449 -14.179 -27.043  0.00  0.00    +0.013 C 
ATOM     17  H   UNL     1      35.227 -10.592 -25.746  0.00  0.00    +0.152 HD
ENDBRANCH   2   9
BRANCH   3  20
ATOM     18 CL   UNL     1      31.128  -4.920 -23.077  0.00  0.00    -0.081 Cl
ATOM     19  N   UNL     1      30.998  -8.119 -23.428  0.00  0.00    -0.311 N 
ATOM     20  C   UNL     1      31.706  -9.760 -22.111  0.00  0.00    +0.017 C 
ATOM     21  C   UNL     1      32.011  -8.522 -21.481  0.00  0.00    +0.016 C 
ATOM     22  C   UNL     1      31.558  -7.508 -22.328  0.00  0.00    +0.059 C 
ATOM     23  C   UNL     1      31.083  -9.480 -23.306  0.00  0.00    +0.062 C 
ATOM     24  C   UNL     1      32.633  -8.164 -20.268  0.00  0.00    +0.001 C 
ATOM     25  C   UNL     1      31.694  -6.149 -22.021  0.00  0.00    +0.071 C 
ATOM     26  C   UNL     1      32.777  -6.809 -19.948  0.00  0.00    +0.001 C 
ATOM     27  C   UNL     1      32.314  -5.819 -20.813  0.00  0.00    +0.013 C 
ATOM     28  H   UNL     1      30.595  -7.646 -24.192  0.00  0.00    +0.152 HD
ENDBRANCH   3  20
BRANCH   4  30
ATOM     29  OXT UNL     1      34.720 -14.575 -21.787  0.00  0.00    -0.243 OA
ATOM     30  C   UNL     1      33.500 -14.409 -21.569  0.00  0.00    +0.354 C 
BRANCH  30  31
ATOM     31  O   UNL     1      32.658 -15.488 -21.490  0.00  0.00    -0.476 OA
ATOM     32  H   UNL     1      31.746 -15.359 -21.323  0.00  0.00    +0.295 HD
ENDBRANCH  30  31
ENDBRANCH   4  30
BRANCH   5  34
ATOM     33  OXT UNL     1      29.581 -10.650 -19.477  0.00  0.00    -0.243 OA
ATOM     34  C   UNL     1      30.778 -10.988 -19.357  0.00  0.00    +0.354 C 
BRANCH  34  35
ATOM     35  O   UNL     1      31.438 -10.792 -18.172  0.00  0.00    -0.476 OA
ATOM     36  H   UNL     1      31.175 -11.262 -17.406  0.00  0.00    +0.295 HD
ENDBRANCH  34  35
ENDBRANCH   5  34
TORSDOF 6
ENDMDL
MODEL 6
REMARK VINA RESULT:      -6.7      1.003      1.797
REMARK  Name = 25246329
REMARK  6 active torsions:
REMARK  status: ('A' for Active; 'I' for Inactive)
REMARK    1  A    between atoms: C_2  and  C_9
REMARK    2  A    between atoms: C_3  and  C_20
REMARK    3  A    between atoms: CA_4  and  C_30
REMARK    4  A    between atoms: CA_5  and  C_34
REMARK    5  A    between atoms: C_30  and  O_31
REMARK    6  A    between atoms: C_34  and  O_35
REMARK                            x       y       z     vdW  Elec       q    Type
REMARK                         _______ _______ _______ _____ _____    ______ ____
ROOT
ATOM      1  N   UNL     1      32.097 -12.858 -20.246  0.00  0.00    -0.343 N 
ATOM      2  C   UNL     1      32.000 -11.074 -21.564  0.00  0.00    +0.025 A 
ATOM      3  C   UNL     1      32.788 -12.064 -22.201  0.00  0.00    +0.025 A 
ATOM      4  CA  UNL     1      31.586 -11.592 -20.357  0.00  0.00    +0.133 A 
ATOM      5  CA  UNL     1      32.831 -13.157 -21.363  0.00  0.00    +0.133 A 
ATOM      6  H   UNL     1      31.957 -13.462 -19.481  0.00  0.00    +0.166 HD
ENDROOT
BRANCH   2   9
ATOM      7 CL   UNL     1      31.125  -4.925 -23.072  0.00  0.00    -0.081 Cl
ATOM      8  N   UNL     1      30.993  -8.124 -23.419  0.00  0.00    -0.311 N 
ATOM      9  C   UNL     1      31.701  -9.765 -22.103  0.00  0.00    +0.017 C 
ATOM     10  C   UNL     1      32.008  -8.525 -21.474  0.00  0.00    +0.016 C 
ATOM     11  C   UNL     1      31.553  -7.513 -22.320  0.00  0.00    +0.059 C 
ATOM     12  C   UNL     1      31.077  -9.485 -23.297  0.00  0.00    +0.062 C 
ATOM     13  C   UNL     1      32.631  -8.167 -20.262  0.00  0.00    +0.001 C 
ATOM     14  C   UNL     1      31.691  -6.154 -22.015  0.00  0.00    +0.071 C 
ATOM     15  C   UNL     1      32.776  -6.812 -19.944  0.00  0.00    +0.001 C 
ATOM     16  C   UNL     1      32.313  -5.822 -20.808  0.00  0.00    +0.013 C 
ATOM     17  H   UNL     1      30.589  -7.652 -24.183  0.00  0.00    +0.152 HD
ENDBRANCH   2   9
BRANCH   3  20
ATOM     18 CL   UNL     1      35.100 -12.353 -28.155  0.00  0.00    -0.081 Cl
ATOM     19  N   UNL     1      34.631 -11.168 -25.198  0.00  0.00    -0.311 N 
ATOM     20  C   UNL     1      33.422 -11.927 -23.497  0.00  0.00    +0.017 C 
ATOM     21  C   UNL     1      33.285 -12.838 -24.582  0.00  0.00    +0.016 C 
ATOM     22  C   UNL     1      34.052 -12.338 -25.636  0.00  0.00    +0.059 C 
ATOM     23  C   UNL     1      34.255 -10.911 -23.906  0.00  0.00    +0.062 C 
ATOM     24  C   UNL     1      32.579 -14.043 -24.769  0.00  0.00    +0.001 C 
ATOM     25  C   UNL     1      34.150 -12.986 -26.873  0.00  0.00    +0.071 C 
ATOM     26  C   UNL     1      32.666 -14.702 -26.000  0.00  0.00    +0.001 C 
ATOM     27  C   UNL     1      33.441 -14.179 -27.035  0.00  0.00    +0.013 C 
ATOM     28  H   UNL     1      35.227 -10.598 -25.734  0.00  0.00    +0.152 HD
ENDBRANCH   3  20
BRANCH   4  30
ATOM     29  OXT UNL     1      29.578 -10.639 -19.469  0.00  0.00    -0.243 OA
ATOM     30  C   UNL     1      30.773 -10.985 -19.347  0.00  0.00    +0.354 C 
BRANCH  30  31
ATOM     31  O   UNL     1      31.431 -10.797 -18.160  0.00  0.00    -0.476 OA
ATOM     32  H   UNL     1      32.198 -10.261 -18.129  0.00  0.00    +0.295 HD
ENDBRANCH  30  31
ENDBRANCH   4  30
BRANCH   5  34
ATOM     33  OXT UNL     1      34.721 -14.577 -21.731  0.00  0.00    -0.243 OA
ATOM     34  C   UNL     1      33.496 -14.409 -21.551  0.00  0.00    +0.354 C 
BRANCH  34  35
ATOM     35  O   UNL     1      32.649 -15.486 -21.519  0.00  0.00    -0.476 OA
ATOM     36  H   UNL     1      32.849 -16.224 -20.979  0.00  0.00    +0.295 HD
ENDBRANCH  34  35
ENDBRANCH   5  34
TORSDOF 6
ENDMDL
MODEL 7
REMARK VINA RESULT:      -6.2     12.415     15.252
REMARK  Name = 25246329
REMARK  6 active torsions:
REMARK  status: ('A' for Active; 'I' for Inactive)
REMARK    1  A    between atoms: C_2  and  C_9
REMARK    2  A    between atoms: C_3  and  C_20
REMARK    3  A    between atoms: CA_4  and  C_30
REMARK    4  A    between atoms: CA_5  and  C_34
REMARK    5  A    between atoms: C_30  and  O_31
REMARK    6  A    between atoms: C_34  and  O_35
REMARK                            x       y       z     vdW  Elec       q    Type
REMARK                         _______ _______ _______ _____ _____    ______ ____
ROOT
ATOM      1  N   UNL     1      31.351 -23.818 -14.886  0.00  0.00    -0.343 N 
ATOM      2  C   UNL     1      33.516 -24.215 -15.178  0.00  0.00    +0.025 A 
ATOM      3  C   UNL     1      33.043 -23.460 -16.280  0.00  0.00    +0.025 A 
ATOM      4  CA  UNL     1      32.449 -24.421 -14.332  0.00  0.00    +0.133 A 
ATOM      5  CA  UNL     1      31.701 -23.229 -16.074  0.00  0.00    +0.133 A 
ATOM      6  H   UNL     1      30.449 -23.807 -14.492  0.00  0.00    +0.166 HD
ENDROOT
BRANCH   2   9
ATOM      7 CL   UNL     1      39.548 -25.584 -13.568  0.00  0.00    -0.081 Cl
ATOM      8  N   UNL     1      36.806 -25.742 -15.250  0.00  0.00    -0.311 N 
ATOM      9  C   UNL     1      34.876 -24.674 -14.998  0.00  0.00    +0.017 C 
ATOM     10  C   UNL     1      35.766 -24.232 -13.979  0.00  0.00    +0.016 C 
ATOM     11  C   UNL     1      36.969 -24.918 -14.159  0.00  0.00    +0.059 C 
ATOM     12  C   UNL     1      35.544 -25.602 -15.763  0.00  0.00    +0.062 C 
ATOM     13  C   UNL     1      35.663 -23.313 -12.916  0.00  0.00    +0.001 C 
ATOM     14  C   UNL     1      38.078 -24.729 -13.328  0.00  0.00    +0.071 C 
ATOM     15  C   UNL     1      36.765 -23.114 -12.077  0.00  0.00    +0.001 C 
ATOM     16  C   UNL     1      37.953 -23.812 -12.281  0.00  0.00    +0.013 C 
ATOM     17  H   UNL     1      37.496 -26.346 -15.609  0.00  0.00    +0.152 HD
ENDBRANCH   2   9
BRANCH   3  20
ATOM     18 CL   UNL     1      37.248 -21.185 -20.525  0.00  0.00    -0.081 Cl
ATOM     19  N   UNL     1      34.570 -22.627 -19.466  0.00  0.00    -0.311 N 
ATOM     20  C   UNL     1      33.845 -23.024 -17.406  0.00  0.00    +0.017 C 
ATOM     21  C   UNL     1      35.096 -22.353 -17.315  0.00  0.00    +0.016 C 
ATOM     22  C   UNL     1      35.529 -22.115 -18.622  0.00  0.00    +0.059 C 
ATOM     23  C   UNL     1      33.548 -23.179 -18.741  0.00  0.00    +0.062 C 
ATOM     24  C   UNL     1      35.904 -21.923 -16.244  0.00  0.00    +0.001 C 
ATOM     25  C   UNL     1      36.735 -21.466 -18.911  0.00  0.00    +0.071 C 
ATOM     26  C   UNL     1      37.113 -21.274 -16.518  0.00  0.00    +0.001 C 
ATOM     27  C   UNL     1      37.520 -21.049 -17.833  0.00  0.00    +0.013 C 
ATOM     28  H   UNL     1      34.612 -22.600 -20.449  0.00  0.00    +0.152 HD
ENDBRANCH   3  20
BRANCH   4  30
ATOM     29  OXT UNL     1      33.389 -25.406 -12.364  0.00  0.00    -0.243 OA
ATOM     30  C   UNL     1      32.409 -25.127 -13.088  0.00  0.00    +0.354 C 
BRANCH  30  31
ATOM     31  O   UNL     1      31.144 -25.499 -12.714  0.00  0.00    -0.476 OA
ATOM     32  H   UNL     1      30.551 -24.861 -12.372  0.00  0.00    +0.295 HD
ENDBRANCH  30  31
ENDBRANCH   4  30
BRANCH   5  34
ATOM     33  OXT UNL     1      31.060 -21.695 -17.794  0.00  0.00    -0.243 OA
ATOM     34  C   UNL     1      30.773 -22.515 -16.896  0.00  0.00    +0.354 C 
BRANCH  34  35
ATOM     35  O   UNL     1      29.463 -22.808 -16.620  0.00  0.00    -0.476 OA
ATOM     36  H   UNL     1      28.991 -22.298 -15.993  0.00  0.00    +0.295 HD
ENDBRANCH  34  35
ENDBRANCH   5  34
TORSDOF 6
ENDMDL
MODEL 8
REMARK VINA RESULT:      -6.2     12.419     15.168
REMARK  Name = 25246329
REMARK  6 active torsions:
REMARK  status: ('A' for Active; 'I' for Inactive)
REMARK    1  A    between atoms: C_2  and  C_9
REMARK    2  A    between atoms: C_3  and  C_20
REMARK    3  A    between atoms: CA_4  and  C_30
REMARK    4  A    between atoms: CA_5  and  C_34
REMARK    5  A    between atoms: C_30  and  O_31
REMARK    6  A    between atoms: C_34  and  O_35
REMARK                            x       y       z     vdW  Elec       q    Type
REMARK                         _______ _______ _______ _____ _____    ______ ____
ROOT
ATOM      1  N   UNL     1      31.340 -23.766 -14.920  0.00  0.00    -0.343 N 
ATOM      2  C   UNL     1      33.042 -23.431 -16.304  0.00  0.00    +0.025 A 
ATOM      3  C   UNL     1      33.502 -24.188 -15.198  0.00  0.00    +0.025 A 
ATOM      4  CA  UNL     1      31.702 -23.184 -16.106  0.00  0.00    +0.133 A 
ATOM      5  CA  UNL     1      32.428 -24.380 -14.358  0.00  0.00    +0.133 A 
ATOM      6  H   UNL     1      30.436 -23.746 -14.530  0.00  0.00    +0.166 HD
ENDROOT
BRANCH   2   9
ATOM      7 CL   UNL     1      37.287 -21.200 -20.531  0.00  0.00    -0.081 Cl
ATOM      8  N   UNL     1      34.594 -22.623 -19.482  0.00  0.00    -0.311 N 
ATOM      9  C   UNL     1      33.853 -23.007 -17.426  0.00  0.00    +0.017 C 
ATOM     10  C   UNL     1      35.107 -22.341 -17.330  0.00  0.00    +0.016 C 
ATOM     11  C   UNL     1      35.550 -22.112 -18.634  0.00  0.00    +0.059 C 
ATOM     12  C   UNL     1      33.564 -23.166 -18.761  0.00  0.00    +0.062 C 
ATOM     13  C   UNL     1      35.911 -21.911 -16.256  0.00  0.00    +0.001 C 
ATOM     14  C   UNL     1      36.761 -21.471 -18.919  0.00  0.00    +0.071 C 
ATOM     15  C   UNL     1      37.124 -21.269 -16.525  0.00  0.00    +0.001 C 
ATOM     16  C   UNL     1      37.542 -21.053 -17.837  0.00  0.00    +0.013 C 
ATOM     17  H   UNL     1      34.643 -22.602 -20.466  0.00  0.00    +0.152 HD
ENDBRANCH   2   9
BRANCH   3  20
ATOM     18 CL   UNL     1      39.517 -25.612 -13.563  0.00  0.00    -0.081 Cl
ATOM     19  N   UNL     1      36.776 -25.756 -15.248  0.00  0.00    -0.311 N 
ATOM     20  C   UNL     1      34.859 -24.662 -15.010  0.00  0.00    +0.017 C 
ATOM     21  C   UNL     1      35.752 -24.220 -13.994  0.00  0.00    +0.016 C 
ATOM     22  C   UNL     1      36.947 -24.922 -14.165  0.00  0.00    +0.059 C 
ATOM     23  C   UNL     1      35.517 -25.606 -15.765  0.00  0.00    +0.062 C 
ATOM     24  C   UNL     1      35.659 -23.287 -12.942  0.00  0.00    +0.001 C 
ATOM     25  C   UNL     1      38.058 -24.737 -13.334  0.00  0.00    +0.071 C 
ATOM     26  C   UNL     1      36.760 -23.093 -12.102  0.00  0.00    +0.001 C 
ATOM     27  C   UNL     1      37.941 -23.808 -12.297  0.00  0.00    +0.013 C 
ATOM     28  H   UNL     1      37.459 -26.371 -15.599  0.00  0.00    +0.152 HD
ENDBRANCH   3  20
BRANCH   4  30
ATOM     29  OXT UNL     1      31.088 -21.685 -17.867  0.00  0.00    -0.243 OA
ATOM     30  C   UNL     1      30.787 -22.461 -16.934  0.00  0.00    +0.354 C 
BRANCH  30  31
ATOM     31  O   UNL     1      29.472 -22.690 -16.622  0.00  0.00    -0.476 OA
ATOM     32  H   UNL     1      28.975 -23.309 -17.118  0.00  0.00    +0.295 HD
ENDBRANCH  30  31
ENDBRANCH   4  30
BRANCH   5  34
ATOM     33  OXT UNL     1      33.350 -25.375 -12.386  0.00  0.00    -0.243 OA
ATOM     34  C   UNL     1      32.375 -25.080 -13.111  0.00  0.00    +0.354 C 
BRANCH  34  35
ATOM     35  O   UNL     1      31.104 -25.429 -12.736  0.00  0.00    -0.476 OA
ATOM     36  H   UNL     1      30.743 -26.249 -13.009  0.00  0.00    +0.295 HD
ENDBRANCH  34  35
ENDBRANCH   5  34
TORSDOF 6
ENDMDL
MODEL 9
REMARK VINA RESULT:      -6.2     12.785     16.169
REMARK  Name = 25246329
REMARK  6 active torsions:
REMARK  status: ('A' for Active; 'I' for Inactive)
REMARK    1  A    between atoms: C_2  and  C_9
REMARK    2  A    between atoms: C_3  and  C_20
REMARK    3  A    between atoms: CA_4  and  C_30
REMARK    4  A    between atoms: CA_5  and  C_34
REMARK    5  A    between atoms: C_30  and  O_31
REMARK    6  A    between atoms: C_34  and  O_35
REMARK                            x       y       z     vdW  Elec       q    Type
REMARK                         _______ _______ _______ _____ _____    ______ ____
ROOT
ATOM      1  N   UNL     1      33.443 -23.876 -12.212  0.00  0.00    -0.343 N 
ATOM      2  C   UNL     1      35.050 -24.439 -13.637  0.00  0.00    +0.025 A 
ATOM      3  C   UNL     1      34.019 -23.783 -14.355  0.00  0.00    +0.025 A 
ATOM      4  CA  UNL     1      34.667 -24.482 -12.315  0.00  0.00    +0.133 A 
ATOM      5  CA  UNL     1      33.038 -23.446 -13.449  0.00  0.00    +0.133 A 
ATOM      6  H   UNL     1      32.933 -23.764 -11.377  0.00  0.00    +0.166 HD
ENDROOT
BRANCH   2   9
ATOM      7 CL   UNL     1      40.932 -26.164 -15.447  0.00  0.00    -0.081 Cl
ATOM      8  N   UNL     1      37.713 -26.066 -15.486  0.00  0.00    -0.311 N 
ATOM      9  C   UNL     1      36.272 -24.960 -14.211  0.00  0.00    +0.017 C 
ATOM     10  C   UNL     1      37.588 -24.649 -13.768  0.00  0.00    +0.016 C 
ATOM     11  C   UNL     1      38.473 -25.355 -14.585  0.00  0.00    +0.059 C 
ATOM     12  C   UNL     1      36.381 -25.833 -15.269  0.00  0.00    +0.062 C 
ATOM     13  C   UNL     1      38.113 -23.832 -12.747  0.00  0.00    +0.001 C 
ATOM     14  C   UNL     1      39.862 -25.286 -14.432  0.00  0.00    +0.071 C 
ATOM     15  C   UNL     1      39.500 -23.752 -12.582  0.00  0.00    +0.001 C 
ATOM     16  C   UNL     1      40.360 -24.469 -13.412  0.00  0.00    +0.013 C 
ATOM     17  H   UNL     1      38.074 -26.656 -16.187  0.00  0.00    +0.152 HD
ENDBRANCH   2   9
BRANCH   3  20
ATOM     18 CL   UNL     1      34.920 -22.145 -20.468  0.00  0.00    -0.081 Cl
ATOM     19  N   UNL     1      33.461 -23.485 -17.929  0.00  0.00    -0.311 N 
ATOM     20  C   UNL     1      34.021 -23.527 -15.781  0.00  0.00    +0.017 C 
ATOM     21  C   UNL     1      35.017 -22.795 -16.486  0.00  0.00    +0.016 C 
ATOM     22  C   UNL     1      34.643 -22.784 -17.831  0.00  0.00    +0.059 C 
ATOM     23  C   UNL     1      33.078 -23.939 -16.696  0.00  0.00    +0.062 C 
ATOM     24  C   UNL     1      36.205 -22.139 -16.107  0.00  0.00    +0.001 C 
ATOM     25  C   UNL     1      35.400 -22.146 -18.821  0.00  0.00    +0.071 C 
ATOM     26  C   UNL     1      36.973 -21.498 -17.085  0.00  0.00    +0.001 C 
ATOM     27  C   UNL     1      36.574 -21.502 -18.421  0.00  0.00    +0.013 C 
ATOM     28  H   UNL     1      32.965 -23.639 -18.765  0.00  0.00    +0.152 HD
ENDBRANCH   3  20
BRANCH   4  30
ATOM     29  OXT UNL     1      35.266 -24.667 -10.005  0.00  0.00    -0.243 OA
ATOM     30  C   UNL     1      35.360 -25.040 -11.194  0.00  0.00    +0.354 C 
BRANCH  30  31
ATOM     31  O   UNL     1      36.187 -26.081 -11.529  0.00  0.00    -0.476 OA
ATOM     32  H   UNL     1      36.560 -26.125 -12.386  0.00  0.00    +0.295 HD
ENDBRANCH  30  31
ENDBRANCH   4  30
BRANCH   5  34
ATOM     33  OXT UNL     1      31.571 -21.913 -14.555  0.00  0.00    -0.243 OA
ATOM     34  C   UNL     1      31.797 -22.772 -13.675  0.00  0.00    +0.354 C 
BRANCH  34  35
ATOM     35  O   UNL     1      30.805 -23.153 -12.810  0.00  0.00    -0.476 OA
ATOM     36  H   UNL     1      29.951 -22.774 -12.880  0.00  0.00    +0.295 HD
ENDBRANCH  34  35
ENDBRANCH   5  34
TORSDOF 6
ENDMDL
