MODEL 1
REMARK VINA RESULT:      -8.9      0.000      0.000
REMARK  Name = 208924
REMARK  7 active torsions:
REMARK  status: ('A' for Active; 'I' for Inactive)
REMARK    1  A    between atoms: C_1  and  O_2
REMARK    2  A    between atoms: C_1  and  C_13
REMARK    3  A    between atoms: O_2  and  N_4
REMARK    4  A    between atoms: C_5  and  C_8
REMARK    5  A    between atoms: C_13  and  O_14
REMARK    6  A    between atoms: C_13  and  C_16
REMARK    7  A    between atoms: C_16  and  N_17
REMARK                            x       y       z     vdW  Elec       q    Type
REMARK                         _______ _______ _______ _____ _____    ______ ____
ROOT
ATOM      1  C   UNL     1      34.540 -17.936 -25.186  0.00  0.00    +0.265 C 
ENDROOT
BRANCH   1   2
ATOM      2  O   UNL     1      35.373 -18.182 -24.058  0.00  0.00    -0.374 OA
BRANCH   2   4
ATOM      3 CL   UNL     1      36.846 -18.437 -21.774  0.00  0.00    -0.058 Cl
ATOM      4  N   UNL     1      34.666 -19.002 -23.171  0.00  0.00    -0.071 NA
ATOM      5  C   UNL     1      35.295 -19.182 -22.047  0.00  0.00    +0.178 C 
BRANCH   5   8
ATOM      6  O   UNL     1      35.619 -22.397 -18.536  0.00  0.00    -0.163 OA
ATOM      7  N   UNL     1      34.891 -21.643 -19.260  0.00  0.00    -0.127 N 
ATOM      8  C   UNL     1      34.657 -20.039 -20.999  0.00  0.00    +0.052 C 
ATOM      9  C   UNL     1      35.460 -20.843 -20.233  0.00  0.00    +0.124 C 
ATOM     10  C   UNL     1      33.297 -19.991 -20.844  0.00  0.00    +0.006 C 
ATOM     11  C   UNL     1      32.715 -20.792 -19.867  0.00  0.00    +0.022 C 
ATOM     12  C   UNL     1      33.521 -21.612 -19.083  0.00  0.00    +0.121 C 
ENDBRANCH   5   8
ENDBRANCH   2   4
ENDBRANCH   1   2
BRANCH   1  13
ATOM     13  C   UNL     1      33.911 -16.552 -25.043  0.00  0.00    +0.136 C 
BRANCH  13  14
ATOM     14  O   UNL     1      34.093 -15.841 -26.271  0.00  0.00    -0.383 OA
ATOM     15  H   UNL     1      33.663 -14.973 -26.209  0.00  0.00    +0.210 HD
ENDBRANCH  13  14
BRANCH  13  16
ATOM     16  C   UNL     1      34.525 -15.720 -23.914  0.00  0.00    -0.044 C 
BRANCH  16  17
ATOM     17  N   UNL     1      33.518 -15.264 -22.957  0.00  0.00    +0.389 N 
ATOM     18  C   UNL     1      33.368 -13.804 -23.024  0.00  0.00    -0.077 C 
ATOM     19  C   UNL     1      33.868 -15.700 -21.598  0.00  0.00    -0.077 C 
ATOM     20  C   UNL     1      32.282 -13.316 -22.064  0.00  0.00    -0.023 C 
ATOM     21  C   UNL     1      32.799 -15.273 -20.589  0.00  0.00    -0.023 C 
ATOM     22  C   UNL     1      32.562 -13.768 -20.636  0.00  0.00    -0.004 C 
ATOM     23  H   UNL     1      32.621 -15.685 -23.200  0.00  0.00    -0.080 HD
ENDBRANCH  16  17
ENDBRANCH  13  16
ENDBRANCH   1  13
TORSDOF 7
ENDMDL
MODEL 2
REMARK VINA RESULT:      -8.8      2.358      3.302
REMARK  Name = 208924
REMARK  7 active torsions:
REMARK  status: ('A' for Active; 'I' for Inactive)
REMARK    1  A    between atoms: C_1  and  O_2
REMARK    2  A    between atoms: C_1  and  C_13
REMARK    3  A    between atoms: O_2  and  N_4
REMARK    4  A    between atoms: C_5  and  C_8
REMARK    5  A    between atoms: C_13  and  O_14
REMARK    6  A    between atoms: C_13  and  C_16
REMARK    7  A    between atoms: C_16  and  N_17
REMARK                            x       y       z     vdW  Elec       q    Type
REMARK                         _______ _______ _______ _____ _____    ______ ____
ROOT
ATOM      1  C   UNL     1      34.505 -15.096 -20.979  0.00  0.00    +0.265 C 
ENDROOT
BRANCH   1   2
ATOM      2  O   UNL     1      34.649 -16.279 -21.758  0.00  0.00    -0.374 OA
BRANCH   2   4
ATOM      3 CL   UNL     1      34.688 -18.574 -23.235  0.00  0.00    -0.058 Cl
ATOM      4  N   UNL     1      34.764 -17.362 -20.879  0.00  0.00    -0.071 NA
ATOM      5  C   UNL     1      34.790 -18.507 -21.497  0.00  0.00    +0.178 C 
BRANCH   5   8
ATOM      6  O   UNL     1      32.798 -22.187 -19.204  0.00  0.00    -0.163 OA
ATOM      7  N   UNL     1      33.852 -21.564 -19.560  0.00  0.00    -0.127 N 
ATOM      8  C   UNL     1      34.910 -19.756 -20.683  0.00  0.00    +0.052 C 
ATOM      9  C   UNL     1      33.764 -20.409 -20.311  0.00  0.00    +0.124 C 
ATOM     10  C   UNL     1      36.158 -20.204 -20.338  0.00  0.00    +0.006 C 
ATOM     11  C   UNL     1      36.258 -21.366 -19.582  0.00  0.00    +0.022 C 
ATOM     12  C   UNL     1      35.100 -22.036 -19.200  0.00  0.00    +0.121 C 
ENDBRANCH   5   8
ENDBRANCH   2   4
ENDBRANCH   1   2
BRANCH   1  13
ATOM     13  C   UNL     1      33.021 -14.750 -20.878  0.00  0.00    +0.136 C 
BRANCH  13  14
ATOM     14  O   UNL     1      32.283 -15.961 -20.682  0.00  0.00    -0.383 OA
ATOM     15  H   UNL     1      32.504 -16.338 -19.816  0.00  0.00    +0.210 HD
ENDBRANCH  13  14
BRANCH  13  16
ATOM     16  C   UNL     1      32.474 -14.053 -22.126  0.00  0.00    -0.044 C 
BRANCH  16  17
ATOM     17  N   UNL     1      31.799 -12.797 -21.803  0.00  0.00    +0.389 N 
ATOM     18  C   UNL     1      32.327 -11.702 -22.630  0.00  0.00    -0.077 C 
ATOM     19  C   UNL     1      31.936 -12.494 -20.372  0.00  0.00    -0.077 C 
ATOM     20  C   UNL     1      31.598 -10.390 -22.340  0.00  0.00    -0.023 C 
ATOM     21  C   UNL     1      31.195 -11.206 -20.006  0.00  0.00    -0.023 C 
ATOM     22  C   UNL     1      31.667 -10.035 -20.859  0.00  0.00    -0.004 C 
ATOM     23  H   UNL     1      30.805 -12.896 -22.009  0.00  0.00    -0.080 HD
ENDBRANCH  16  17
ENDBRANCH  13  16
ENDBRANCH   1  13
TORSDOF 7
ENDMDL
MODEL 3
REMARK VINA RESULT:      -8.7      2.325      3.384
REMARK  Name = 208924
REMARK  7 active torsions:
REMARK  status: ('A' for Active; 'I' for Inactive)
REMARK    1  A    between atoms: C_1  and  O_2
REMARK    2  A    between atoms: C_1  and  C_13
REMARK    3  A    between atoms: O_2  and  N_4
REMARK    4  A    between atoms: C_5  and  C_8
REMARK    5  A    between atoms: C_13  and  O_14
REMARK    6  A    between atoms: C_13  and  C_16
REMARK    7  A    between atoms: C_16  and  N_17
REMARK                            x       y       z     vdW  Elec       q    Type
REMARK                         _______ _______ _______ _____ _____    ______ ____
ROOT
ATOM      1  C   UNL     1      34.518 -15.370 -21.232  0.00  0.00    +0.265 C 
ENDROOT
BRANCH   1   2
ATOM      2  O   UNL     1      35.099 -16.507 -21.861  0.00  0.00    -0.374 OA
BRANCH   2   4
ATOM      3 CL   UNL     1      34.693 -18.863 -23.178  0.00  0.00    -0.058 Cl
ATOM      4  N   UNL     1      35.138 -17.545 -20.923  0.00  0.00    -0.071 NA
ATOM      5  C   UNL     1      34.953 -18.714 -21.462  0.00  0.00    +0.178 C 
BRANCH   5   8
ATOM      6  O   UNL     1      32.664 -22.144 -19.062  0.00  0.00    -0.163 OA
ATOM      7  N   UNL     1      33.765 -21.602 -19.405  0.00  0.00    -0.127 N 
ATOM      8  C   UNL     1      34.968 -19.921 -20.578  0.00  0.00    +0.052 C 
ATOM      9  C   UNL     1      33.773 -20.487 -20.221  0.00  0.00    +0.124 C 
ATOM     10  C   UNL     1      36.174 -20.416 -20.156  0.00  0.00    +0.006 C 
ATOM     11  C   UNL     1      36.177 -21.538 -19.335  0.00  0.00    +0.022 C 
ATOM     12  C   UNL     1      34.968 -22.121 -18.967  0.00  0.00    +0.121 C 
ENDBRANCH   5   8
ENDBRANCH   2   4
ENDBRANCH   1   2
BRANCH   1  13
ATOM     13  C   UNL     1      33.467 -14.772 -22.165  0.00  0.00    +0.136 C 
BRANCH  13  14
ATOM     14  O   UNL     1      32.172 -15.022 -21.610  0.00  0.00    -0.383 OA
ATOM     15  H   UNL     1      31.559 -14.326 -21.896  0.00  0.00    +0.210 HD
ENDBRANCH  13  14
BRANCH  13  16
ATOM     16  C   UNL     1      33.504 -15.362 -23.577  0.00  0.00    -0.044 C 
BRANCH  16  17
ATOM     17  N   UNL     1      33.852 -14.359 -24.583  0.00  0.00    +0.389 N 
ATOM     18  C   UNL     1      33.592 -13.006 -24.071  0.00  0.00    -0.077 C 
ATOM     19  C   UNL     1      33.114 -14.605 -25.830  0.00  0.00    -0.077 C 
ATOM     20  C   UNL     1      33.997 -11.943 -25.092  0.00  0.00    -0.023 C 
ATOM     21  C   UNL     1      33.502 -13.593 -26.910  0.00  0.00    -0.023 C 
ATOM     22  C   UNL     1      33.296 -12.162 -26.427  0.00  0.00    -0.004 C 
ATOM     23  H   UNL     1      34.848 -14.432 -24.788  0.00  0.00    -0.080 HD
ENDBRANCH  16  17
ENDBRANCH  13  16
ENDBRANCH   1  13
TORSDOF 7
ENDMDL
MODEL 4
REMARK VINA RESULT:      -8.6      2.808      7.587
REMARK  Name = 208924
REMARK  7 active torsions:
REMARK  status: ('A' for Active; 'I' for Inactive)
REMARK    1  A    between atoms: C_1  and  O_2
REMARK    2  A    between atoms: C_1  and  C_13
REMARK    3  A    between atoms: O_2  and  N_4
REMARK    4  A    between atoms: C_5  and  C_8
REMARK    5  A    between atoms: C_13  and  O_14
REMARK    6  A    between atoms: C_13  and  C_16
REMARK    7  A    between atoms: C_16  and  N_17
REMARK                            x       y       z     vdW  Elec       q    Type
REMARK                         _______ _______ _______ _____ _____    ______ ____
ROOT
ATOM      1  C   UNL     1      35.469 -17.134 -22.910  0.00  0.00    +0.265 C 
ENDROOT
BRANCH   1   2
ATOM      2  O   UNL     1      34.283 -16.686 -23.556  0.00  0.00    -0.374 OA
BRANCH   2   4
ATOM      3 CL   UNL     1      33.383 -15.181 -25.647  0.00  0.00    -0.058 Cl
ATOM      4  N   UNL     1      33.989 -15.404 -23.077  0.00  0.00    -0.071 NA
ATOM      5  C   UNL     1      33.551 -14.610 -24.010  0.00  0.00    +0.178 C 
BRANCH   5   8
ATOM      6  O   UNL     1      31.044 -11.491 -21.411  0.00  0.00    -0.163 OA
ATOM      7  N   UNL     1      31.916 -11.705 -22.316  0.00  0.00    -0.127 N 
ATOM      8  C   UNL     1      33.197 -13.203 -23.644  0.00  0.00    +0.052 C 
ATOM      9  C   UNL     1      32.257 -12.996 -22.669  0.00  0.00    +0.124 C 
ATOM     10  C   UNL     1      33.824 -12.174 -24.295  0.00  0.00    +0.006 C 
ATOM     11  C   UNL     1      33.488 -10.870 -23.946  0.00  0.00    +0.022 C 
ATOM     12  C   UNL     1      32.534 -10.649 -22.957  0.00  0.00    +0.121 C 
ENDBRANCH   5   8
ENDBRANCH   2   4
ENDBRANCH   1   2
BRANCH   1  13
ATOM     13  C   UNL     1      35.098 -17.734 -21.555  0.00  0.00    +0.136 C 
BRANCH  13  14
ATOM     14  O   UNL     1      35.205 -16.710 -20.560  0.00  0.00    -0.383 OA
ATOM     15  H   UNL     1      34.548 -16.867 -19.863  0.00  0.00    +0.210 HD
ENDBRANCH  13  14
BRANCH  13  16
ATOM     16  C   UNL     1      35.999 -18.899 -21.140  0.00  0.00    -0.044 C 
BRANCH  16  17
ATOM     17  N   UNL     1      35.337 -19.795 -20.192  0.00  0.00    +0.389 N 
ATOM     18  C   UNL     1      36.152 -20.996 -19.965  0.00  0.00    -0.077 C 
ATOM     19  C   UNL     1      33.994 -20.148 -20.672  0.00  0.00    -0.077 C 
ATOM     20  C   UNL     1      35.497 -21.921 -18.938  0.00  0.00    -0.023 C 
ATOM     21  C   UNL     1      33.267 -21.046 -19.669  0.00  0.00    -0.023 C 
ATOM     22  C   UNL     1      34.081 -22.297 -19.355  0.00  0.00    -0.004 C 
ATOM     23  H   UNL     1      35.234 -19.311 -19.301  0.00  0.00    -0.080 HD
ENDBRANCH  16  17
ENDBRANCH  13  16
ENDBRANCH   1  13
TORSDOF 7
ENDMDL
MODEL 5
REMARK VINA RESULT:      -8.5      1.621      2.452
REMARK  Name = 208924
REMARK  7 active torsions:
REMARK  status: ('A' for Active; 'I' for Inactive)
REMARK    1  A    between atoms: C_1  and  O_2
REMARK    2  A    between atoms: C_1  and  C_13
REMARK    3  A    between atoms: O_2  and  N_4
REMARK    4  A    between atoms: C_5  and  C_8
REMARK    5  A    between atoms: C_13  and  O_14
REMARK    6  A    between atoms: C_13  and  C_16
REMARK    7  A    between atoms: C_16  and  N_17
REMARK                            x       y       z     vdW  Elec       q    Type
REMARK                         _______ _______ _______ _____ _____    ______ ____
ROOT
ATOM      1  C   UNL     1      34.510 -17.663 -24.752  0.00  0.00    +0.265 C 
ENDROOT
BRANCH   1   2
ATOM      2  O   UNL     1      35.436 -18.426 -23.985  0.00  0.00    -0.374 OA
BRANCH   2   4
ATOM      3 CL   UNL     1      36.892 -18.647 -21.687  0.00  0.00    -0.058 Cl
ATOM      4  N   UNL     1      34.708 -19.206 -23.080  0.00  0.00    -0.071 NA
ATOM      5  C   UNL     1      35.327 -19.367 -21.948  0.00  0.00    +0.178 C 
BRANCH   5   8
ATOM      6  O   UNL     1      35.567 -22.485 -18.344  0.00  0.00    -0.163 OA
ATOM      7  N   UNL     1      34.858 -21.739 -19.095  0.00  0.00    -0.127 N 
ATOM      8  C   UNL     1      34.666 -20.182 -20.881  0.00  0.00    +0.052 C 
ATOM      9  C   UNL     1      35.448 -20.978 -20.086  0.00  0.00    +0.124 C 
ATOM     10  C   UNL     1      33.306 -20.104 -20.737  0.00  0.00    +0.006 C 
ATOM     11  C   UNL     1      32.703 -20.865 -19.742  0.00  0.00    +0.022 C 
ATOM     12  C   UNL     1      33.488 -21.677 -18.929  0.00  0.00    +0.121 C 
ENDBRANCH   5   8
ENDBRANCH   2   4
ENDBRANCH   1   2
BRANCH   1  13
ATOM     13  C   UNL     1      34.715 -16.182 -24.443  0.00  0.00    +0.136 C 
BRANCH  13  14
ATOM     14  O   UNL     1      35.749 -16.060 -23.461  0.00  0.00    -0.383 OA
ATOM     15  H   UNL     1      36.545 -16.522 -23.770  0.00  0.00    +0.210 HD
ENDBRANCH  13  14
BRANCH  13  16
ATOM     16  C   UNL     1      33.459 -15.495 -23.902  0.00  0.00    -0.044 C 
BRANCH  16  17
ATOM     17  N   UNL     1      33.190 -14.228 -24.580  0.00  0.00    +0.389 N 
ATOM     18  C   UNL     1      33.504 -14.335 -26.012  0.00  0.00    -0.077 C 
ATOM     19  C   UNL     1      33.947 -13.137 -23.951  0.00  0.00    -0.077 C 
ATOM     20  C   UNL     1      33.181 -13.033 -26.746  0.00  0.00    -0.023 C 
ATOM     21  C   UNL     1      33.640 -11.795 -24.618  0.00  0.00    -0.023 C 
ATOM     22  C   UNL     1      33.906 -11.849 -26.118  0.00  0.00    -0.004 C 
ATOM     23  H   UNL     1      32.197 -14.012 -24.491  0.00  0.00    -0.080 HD
ENDBRANCH  16  17
ENDBRANCH  13  16
ENDBRANCH   1  13
TORSDOF 7
ENDMDL
MODEL 6
REMARK VINA RESULT:      -8.4      2.668      7.624
REMARK  Name = 208924
REMARK  7 active torsions:
REMARK  status: ('A' for Active; 'I' for Inactive)
REMARK    1  A    between atoms: C_1  and  O_2
REMARK    2  A    between atoms: C_1  and  C_13
REMARK    3  A    between atoms: O_2  and  N_4
REMARK    4  A    between atoms: C_5  and  C_8
REMARK    5  A    between atoms: C_13  and  O_14
REMARK    6  A    between atoms: C_13  and  C_16
REMARK    7  A    between atoms: C_16  and  N_17
REMARK                            x       y       z     vdW  Elec       q    Type
REMARK                         _______ _______ _______ _____ _____    ______ ____
ROOT
ATOM      1  C   UNL     1      34.910 -16.618 -21.111  0.00  0.00    +0.265 C 
ENDROOT
BRANCH   1   2
ATOM      2  O   UNL     1      33.671 -16.406 -21.778  0.00  0.00    -0.374 OA
BRANCH   2   4
ATOM      3 CL   UNL     1      32.278 -14.065 -21.597  0.00  0.00    -0.058 Cl
ATOM      4  N   UNL     1      33.926 -15.655 -22.931  0.00  0.00    -0.071 NA
ATOM      5  C   UNL     1      33.300 -14.515 -22.934  0.00  0.00    +0.178 C 
BRANCH   5   8
ATOM      6  O   UNL     1      33.447 -13.780 -27.647  0.00  0.00    -0.163 OA
ATOM      7  N   UNL     1      33.537 -13.309 -26.466  0.00  0.00    -0.127 N 
ATOM      8  C   UNL     1      33.477 -13.604 -24.108  0.00  0.00    +0.052 C 
ATOM      9  C   UNL     1      33.377 -14.133 -25.369  0.00  0.00    +0.124 C 
ATOM     10  C   UNL     1      33.733 -12.278 -23.883  0.00  0.00    +0.006 C 
ATOM     11  C   UNL     1      33.895 -11.440 -24.981  0.00  0.00    +0.022 C 
ATOM     12  C   UNL     1      33.795 -11.967 -26.265  0.00  0.00    +0.121 C 
ENDBRANCH   5   8
ENDBRANCH   2   4
ENDBRANCH   1   2
BRANCH   1  13
ATOM     13  C   UNL     1      35.552 -17.893 -21.655  0.00  0.00    +0.136 C 
BRANCH  13  14
ATOM     14  O   UNL     1      36.086 -17.615 -22.953  0.00  0.00    -0.383 OA
ATOM     15  H   UNL     1      35.727 -16.774 -23.278  0.00  0.00    +0.210 HD
ENDBRANCH  13  14
BRANCH  13  16
ATOM     16  C   UNL     1      34.569 -19.060 -21.783  0.00  0.00    -0.044 C 
BRANCH  16  17
ATOM     17  N   UNL     1      34.504 -19.860 -20.561  0.00  0.00    +0.389 N 
ATOM     18  C   UNL     1      35.678 -20.738 -20.459  0.00  0.00    -0.077 C 
ATOM     19  C   UNL     1      33.257 -20.636 -20.521  0.00  0.00    -0.077 C 
ATOM     20  C   UNL     1      35.651 -21.546 -19.161  0.00  0.00    -0.023 C 
ATOM     21  C   UNL     1      33.150 -21.443 -19.226  0.00  0.00    -0.023 C 
ATOM     22  C   UNL     1      34.362 -22.348 -19.036  0.00  0.00    -0.004 C 
ATOM     23  H   UNL     1      34.509 -19.233 -19.758  0.00  0.00    -0.080 HD
ENDBRANCH  16  17
ENDBRANCH  13  16
ENDBRANCH   1  13
TORSDOF 7
ENDMDL
MODEL 7
REMARK VINA RESULT:      -8.4      5.078      7.886
REMARK  Name = 208924
REMARK  7 active torsions:
REMARK  status: ('A' for Active; 'I' for Inactive)
REMARK    1  A    between atoms: C_1  and  O_2
REMARK    2  A    between atoms: C_1  and  C_13
REMARK    3  A    between atoms: O_2  and  N_4
REMARK    4  A    between atoms: C_5  and  C_8
REMARK    5  A    between atoms: C_13  and  O_14
REMARK    6  A    between atoms: C_13  and  C_16
REMARK    7  A    between atoms: C_16  and  N_17
REMARK                            x       y       z     vdW  Elec       q    Type
REMARK                         _______ _______ _______ _____ _____    ______ ____
ROOT
ATOM      1  C   UNL     1      33.904 -23.155 -17.616  0.00  0.00    +0.265 C 
ENDROOT
BRANCH   1   2
ATOM      2  O   UNL     1      35.070 -22.654 -16.971  0.00  0.00    -0.374 OA
BRANCH   2   4
ATOM      3 CL   UNL     1      37.643 -22.141 -16.221  0.00  0.00    -0.058 Cl
ATOM      4  N   UNL     1      35.411 -23.543 -15.947  0.00  0.00    -0.071 NA
ATOM      5  C   UNL     1      36.629 -23.373 -15.522  0.00  0.00    +0.178 C 
BRANCH   5   8
ATOM      6  O   UNL     1      36.048 -25.506 -11.293  0.00  0.00    -0.163 OA
ATOM      7  N   UNL     1      36.779 -25.288 -12.314  0.00  0.00    -0.127 N 
ATOM      8  C   UNL     1      37.135 -24.257 -14.425  0.00  0.00    +0.052 C 
ATOM      9  C   UNL     1      36.331 -24.476 -13.337  0.00  0.00    +0.124 C 
ATOM     10  C   UNL     1      38.380 -24.815 -14.548  0.00  0.00    +0.006 C 
ATOM     11  C   UNL     1      38.839 -25.635 -13.523  0.00  0.00    +0.022 C 
ATOM     12  C   UNL     1      38.031 -25.863 -12.414  0.00  0.00    +0.121 C 
ENDBRANCH   5   8
ENDBRANCH   2   4
ENDBRANCH   1   2
BRANCH   1  13
ATOM     13  C   UNL     1      33.977 -22.815 -19.103  0.00  0.00    +0.136 C 
BRANCH  13  14
ATOM     14  O   UNL     1      33.986 -24.036 -19.849  0.00  0.00    -0.383 OA
ATOM     15  H   UNL     1      33.713 -24.768 -19.274  0.00  0.00    +0.210 HD
ENDBRANCH  13  14
BRANCH  13  16
ATOM     16  C   UNL     1      35.226 -22.014 -19.482  0.00  0.00    -0.044 C 
BRANCH  16  17
ATOM     17  N   UNL     1      34.906 -20.633 -19.839  0.00  0.00    +0.389 N 
ATOM     18  C   UNL     1      33.581 -20.560 -20.470  0.00  0.00    -0.077 C 
ATOM     19  C   UNL     1      35.944 -20.077 -20.718  0.00  0.00    -0.077 C 
ATOM     20  C   UNL     1      33.209 -19.115 -20.806  0.00  0.00    -0.023 C 
ATOM     21  C   UNL     1      35.649 -18.615 -21.064  0.00  0.00    -0.023 C 
ATOM     22  C   UNL     1      34.267 -18.461 -21.687  0.00  0.00    -0.004 C 
ATOM     23  H   UNL     1      34.881 -20.072 -18.988  0.00  0.00    -0.080 HD
ENDBRANCH  16  17
ENDBRANCH  13  16
ENDBRANCH   1  13
TORSDOF 7
ENDMDL
MODEL 8
REMARK VINA RESULT:      -8.4      4.818      9.845
REMARK  Name = 208924
REMARK  7 active torsions:
REMARK  status: ('A' for Active; 'I' for Inactive)
REMARK    1  A    between atoms: C_1  and  O_2
REMARK    2  A    between atoms: C_1  and  C_13
REMARK    3  A    between atoms: O_2  and  N_4
REMARK    4  A    between atoms: C_5  and  C_8
REMARK    5  A    between atoms: C_13  and  O_14
REMARK    6  A    between atoms: C_13  and  C_16
REMARK    7  A    between atoms: C_16  and  N_17
REMARK                            x       y       z     vdW  Elec       q    Type
REMARK                         _______ _______ _______ _____ _____    ______ ____
ROOT
ATOM      1  C   UNL     1      33.490 -23.517 -16.246  0.00  0.00    +0.265 C 
ENDROOT
BRANCH   1   2
ATOM      2  O   UNL     1      34.477 -23.601 -17.268  0.00  0.00    -0.374 OA
BRANCH   2   4
ATOM      3 CL   UNL     1      36.579 -21.945 -17.803  0.00  0.00    -0.058 Cl
ATOM      4  N   UNL     1      34.100 -22.738 -18.303  0.00  0.00    -0.071 NA
ATOM      5  C   UNL     1      35.046 -21.905 -18.629  0.00  0.00    +0.178 C 
BRANCH   5   8
ATOM      6  O   UNL     1      36.608 -18.733 -21.832  0.00  0.00    -0.163 OA
ATOM      7  N   UNL     1      35.631 -19.350 -21.296  0.00  0.00    -0.127 N 
ATOM      8  C   UNL     1      34.784 -20.919 -19.723  0.00  0.00    +0.052 C 
ATOM      9  C   UNL     1      35.850 -20.265 -20.284  0.00  0.00    +0.124 C 
ATOM     10  C   UNL     1      33.492 -20.704 -20.124  0.00  0.00    +0.006 C 
ATOM     11  C   UNL     1      33.261 -19.785 -21.142  0.00  0.00    +0.022 C 
ATOM     12  C   UNL     1      34.336 -19.116 -21.719  0.00  0.00    +0.121 C 
ENDBRANCH   5   8
ENDBRANCH   2   4
ENDBRANCH   1   2
BRANCH   1  13
ATOM     13  C   UNL     1      34.183 -23.560 -14.886  0.00  0.00    +0.136 C 
BRANCH  13  14
ATOM     14  O   UNL     1      35.109 -22.472 -14.812  0.00  0.00    -0.383 OA
ATOM     15  H   UNL     1      35.209 -22.072 -15.690  0.00  0.00    +0.210 HD
ENDBRANCH  13  14
BRANCH  13  16
ATOM     16  C   UNL     1      34.952 -24.860 -14.638  0.00  0.00    -0.044 C 
BRANCH  16  17
ATOM     17  N   UNL     1      36.311 -24.611 -14.158  0.00  0.00    +0.389 N 
ATOM     18  C   UNL     1      37.292 -25.285 -15.020  0.00  0.00    -0.077 C 
ATOM     19  C   UNL     1      36.449 -25.042 -12.760  0.00  0.00    -0.077 C 
ATOM     20  C   UNL     1      38.721 -24.995 -14.562  0.00  0.00    -0.023 C 
ATOM     21  C   UNL     1      37.852 -24.745 -12.227  0.00  0.00    -0.023 C 
ATOM     22  C   UNL     1      38.924 -25.383 -13.102  0.00  0.00    -0.004 C 
ATOM     23  H   UNL     1      36.494 -23.609 -14.197  0.00  0.00    -0.080 HD
ENDBRANCH  16  17
ENDBRANCH  13  16
ENDBRANCH   1  13
TORSDOF 7
ENDMDL
MODEL 9
REMARK VINA RESULT:      -8.4      4.399      9.373
REMARK  Name = 208924
REMARK  7 active torsions:
REMARK  status: ('A' for Active; 'I' for Inactive)
REMARK    1  A    between atoms: C_1  and  O_2
REMARK    2  A    between atoms: C_1  and  C_13
REMARK    3  A    between atoms: O_2  and  N_4
REMARK    4  A    between atoms: C_5  and  C_8
REMARK    5  A    between atoms: C_13  and  O_14
REMARK    6  A    between atoms: C_13  and  C_16
REMARK    7  A    between atoms: C_16  and  N_17
REMARK                            x       y       z     vdW  Elec       q    Type
REMARK                         _______ _______ _______ _____ _____    ______ ____
ROOT
ATOM      1  C   UNL     1      35.262 -22.970 -15.216  0.00  0.00    +0.265 C 
ENDROOT
BRANCH   1   2
ATOM      2  O   UNL     1      35.560 -23.560 -16.476  0.00  0.00    -0.374 OA
BRANCH   2   4
ATOM      3 CL   UNL     1      33.223 -23.630 -17.886  0.00  0.00    -0.058 Cl
ATOM      4  N   UNL     1      35.595 -22.538 -17.432  0.00  0.00    -0.071 NA
ATOM      5  C   UNL     1      34.516 -22.494 -18.157  0.00  0.00    +0.178 C 
BRANCH   5   8
ATOM      6  O   UNL     1      36.552 -19.361 -21.125  0.00  0.00    -0.163 OA
ATOM      7  N   UNL     1      35.492 -19.908 -20.676  0.00  0.00    -0.127 N 
ATOM      8  C   UNL     1      34.413 -21.450 -19.224  0.00  0.00    +0.052 C 
ATOM      9  C   UNL     1      35.565 -20.874 -19.691  0.00  0.00    +0.124 C 
ATOM     10  C   UNL     1      33.173 -21.106 -19.695  0.00  0.00    +0.006 C 
ATOM     11  C   UNL     1      33.089 -20.136 -20.687  0.00  0.00    +0.022 C 
ATOM     12  C   UNL     1      34.253 -19.545 -21.168  0.00  0.00    +0.121 C 
ENDBRANCH   5   8
ENDBRANCH   2   4
ENDBRANCH   1   2
BRANCH   1  13
ATOM     13  C   UNL     1      35.026 -24.080 -14.194  0.00  0.00    +0.136 C 
BRANCH  13  14
ATOM     14  O   UNL     1      35.014 -25.336 -14.882  0.00  0.00    -0.383 OA
ATOM     15  H   UNL     1      35.145 -26.054 -14.244  0.00  0.00    +0.210 HD
ENDBRANCH  13  14
BRANCH  13  16
ATOM     16  C   UNL     1      33.702 -23.937 -13.437  0.00  0.00    -0.044 C 
BRANCH  16  17
ATOM     17  N   UNL     1      32.546 -24.100 -14.318  0.00  0.00    +0.389 N 
ATOM     18  C   UNL     1      31.861 -22.814 -14.509  0.00  0.00    -0.077 C 
ATOM     19  C   UNL     1      31.630 -25.114 -13.779  0.00  0.00    -0.077 C 
ATOM     20  C   UNL     1      30.677 -22.956 -15.467  0.00  0.00    -0.023 C 
ATOM     21  C   UNL     1      30.437 -25.332 -14.712  0.00  0.00    -0.023 C 
ATOM     22  C   UNL     1      29.703 -24.025 -14.987  0.00  0.00    -0.004 C 
ATOM     23  H   UNL     1      32.870 -24.422 -15.229  0.00  0.00    -0.080 HD
ENDBRANCH  16  17
ENDBRANCH  13  16
ENDBRANCH   1  13
TORSDOF 7
ENDMDL
