MODEL 1
REMARK VINA RESULT:      -4.7      0.000      0.000
REMARK  Name = 77970
REMARK  6 active torsions:
REMARK  status: ('A' for Active; 'I' for Inactive)
REMARK    1  A    between atoms: C_1  and  C_2
REMARK    2  A    between atoms: C_1  and  C_6
REMARK    3  A    between atoms: C_2  and  C_3
REMARK    4  A    between atoms: C_3  and  C_5
REMARK    5  A    between atoms: C_6  and  C_7
REMARK    6  A    between atoms: C_7  and  O_8
REMARK                            x       y       z     vdW  Elec       q    Type
REMARK                         _______ _______ _______ _____ _____    ______ ____
ROOT
ATOM      1  C   UNL     1      33.159 -20.534 -20.165  0.00  0.00    +0.003 C 
ENDROOT
BRANCH   1   2
ATOM      2  C   UNL     1      33.688 -19.391 -21.033  0.00  0.00    +0.001 C 
BRANCH   2   3
ATOM      3  C   UNL     1      35.217 -19.354 -21.036  0.00  0.00    +0.012 C 
BRANCH   3   5
ATOM      4 BR   UNL     1      34.868 -18.955 -23.833  0.00  0.00    -0.081 Br
ATOM      5  C   UNL     1      35.740 -18.476 -22.160  0.00  0.00    +0.068 C 
ENDBRANCH   3   5
ENDBRANCH   2   3
ENDBRANCH   1   2
BRANCH   1   6
ATOM      6  C   UNL     1      34.304 -21.378 -19.600  0.00  0.00    +0.032 C 
BRANCH   6   7
ATOM      7  C   UNL     1      33.799 -22.545 -18.759  0.00  0.00    +0.137 C 
BRANCH   7   8
ATOM      8  O   UNL     1      33.944 -23.760 -19.479  0.00  0.00    -0.382 OA
ATOM      9  H   UNL     1      33.446 -23.705 -20.310  0.00  0.00    +0.210 HD
ENDBRANCH   7   8
ENDBRANCH   6   7
ENDBRANCH   1   6
TORSDOF 6
ENDMDL
MODEL 2
REMARK VINA RESULT:      -4.7      4.188      5.616
REMARK  Name = 77970
REMARK  6 active torsions:
REMARK  status: ('A' for Active; 'I' for Inactive)
REMARK    1  A    between atoms: C_1  and  C_2
REMARK    2  A    between atoms: C_1  and  C_6
REMARK    3  A    between atoms: C_2  and  C_3
REMARK    4  A    between atoms: C_3  and  C_5
REMARK    5  A    between atoms: C_6  and  C_7
REMARK    6  A    between atoms: C_7  and  O_8
REMARK                            x       y       z     vdW  Elec       q    Type
REMARK                         _______ _______ _______ _____ _____    ______ ____
ROOT
ATOM      1  C   UNL     1      34.975 -19.218 -23.762  0.00  0.00    +0.003 C 
ENDROOT
BRANCH   1   2
ATOM      2  C   UNL     1      35.695 -18.302 -22.771  0.00  0.00    +0.001 C 
BRANCH   2   3
ATOM      3  C   UNL     1      35.082 -18.401 -21.374  0.00  0.00    +0.012 C 
BRANCH   3   5
ATOM      4 BR   UNL     1      33.020 -20.162 -20.510  0.00  0.00    -0.081 Br
ATOM      5  C   UNL     1      34.887 -19.850 -20.963  0.00  0.00    +0.068 C 
ENDBRANCH   3   5
ENDBRANCH   2   3
ENDBRANCH   1   2
BRANCH   1   6
ATOM      6  C   UNL     1      34.385 -18.421 -24.928  0.00  0.00    +0.032 C 
BRANCH   6   7
ATOM      7  C   UNL     1      34.701 -16.934 -24.829  0.00  0.00    +0.137 C 
BRANCH   7   8
ATOM      8  O   UNL     1      34.269 -16.267 -26.005  0.00  0.00    -0.382 OA
ATOM      9  H   UNL     1      34.025 -16.922 -26.678  0.00  0.00    +0.210 HD
ENDBRANCH   7   8
ENDBRANCH   6   7
ENDBRANCH   1   6
TORSDOF 6
ENDMDL
MODEL 3
REMARK VINA RESULT:      -4.6      3.798      5.207
REMARK  Name = 77970
REMARK  6 active torsions:
REMARK  status: ('A' for Active; 'I' for Inactive)
REMARK    1  A    between atoms: C_1  and  C_2
REMARK    2  A    between atoms: C_1  and  C_6
REMARK    3  A    between atoms: C_2  and  C_3
REMARK    4  A    between atoms: C_3  and  C_5
REMARK    5  A    between atoms: C_6  and  C_7
REMARK    6  A    between atoms: C_7  and  O_8
REMARK                            x       y       z     vdW  Elec       q    Type
REMARK                         _______ _______ _______ _____ _____    ______ ____
ROOT
ATOM      1  C   UNL     1      34.547 -19.369 -22.483  0.00  0.00    +0.003 C 
ENDROOT
BRANCH   1   2
ATOM      2  C   UNL     1      34.437 -19.419 -20.958  0.00  0.00    +0.001 C 
BRANCH   2   3
ATOM      3  C   UNL     1      33.153 -20.119 -20.514  0.00  0.00    +0.012 C 
BRANCH   3   5
ATOM      4 BR   UNL     1      35.386 -21.542 -19.471  0.00  0.00    -0.081 Br
ATOM      5  C   UNL     1      33.460 -21.308 -19.619  0.00  0.00    +0.068 C 
ENDBRANCH   3   5
ENDBRANCH   2   3
ENDBRANCH   1   2
BRANCH   1   6
ATOM      6  C   UNL     1      35.569 -18.323 -22.933  0.00  0.00    +0.032 C 
BRANCH   6   7
ATOM      7  C   UNL     1      34.941 -17.240 -23.802  0.00  0.00    +0.137 C 
BRANCH   7   8
ATOM      8  O   UNL     1      35.626 -16.010 -23.615  0.00  0.00    -0.382 OA
ATOM      9  H   UNL     1      36.566 -16.128 -23.827  0.00  0.00    +0.210 HD
ENDBRANCH   7   8
ENDBRANCH   6   7
ENDBRANCH   1   6
TORSDOF 6
ENDMDL
MODEL 4
REMARK VINA RESULT:      -4.6      1.249      1.249
REMARK  Name = 77970
REMARK  6 active torsions:
REMARK  status: ('A' for Active; 'I' for Inactive)
REMARK    1  A    between atoms: C_1  and  C_2
REMARK    2  A    between atoms: C_1  and  C_6
REMARK    3  A    between atoms: C_2  and  C_3
REMARK    4  A    between atoms: C_3  and  C_5
REMARK    5  A    between atoms: C_6  and  C_7
REMARK    6  A    between atoms: C_7  and  O_8
REMARK                            x       y       z     vdW  Elec       q    Type
REMARK                         _______ _______ _______ _____ _____    ______ ____
ROOT
ATOM      1  C   UNL     1      33.184 -20.582 -20.154  0.00  0.00    +0.003 C 
ENDROOT
BRANCH   1   2
ATOM      2  C   UNL     1      33.726 -19.454 -21.034  0.00  0.00    +0.001 C 
BRANCH   2   3
ATOM      3  C   UNL     1      35.251 -19.508 -21.134  0.00  0.00    +0.012 C 
BRANCH   3   5
ATOM      4 BR   UNL     1      34.747 -16.707 -21.163  0.00  0.00    -0.081 Br
ATOM      5  C   UNL     1      35.804 -18.233 -21.747  0.00  0.00    +0.068 C 
ENDBRANCH   3   5
ENDBRANCH   2   3
ENDBRANCH   1   2
BRANCH   1   6
ATOM      6  C   UNL     1      34.320 -21.405 -19.542  0.00  0.00    +0.032 C 
BRANCH   6   7
ATOM      7  C   UNL     1      33.804 -22.588 -18.732  0.00  0.00    +0.137 C 
BRANCH   7   8
ATOM      8  O   UNL     1      33.932 -23.784 -19.486  0.00  0.00    -0.382 OA
ATOM      9  H   UNL     1      33.188 -23.859 -20.104  0.00  0.00    +0.210 HD
ENDBRANCH   7   8
ENDBRANCH   6   7
ENDBRANCH   1   6
TORSDOF 6
ENDMDL
MODEL 5
REMARK VINA RESULT:      -4.5      4.632      5.826
REMARK  Name = 77970
REMARK  6 active torsions:
REMARK  status: ('A' for Active; 'I' for Inactive)
REMARK    1  A    between atoms: C_1  and  C_2
REMARK    2  A    between atoms: C_1  and  C_6
REMARK    3  A    between atoms: C_2  and  C_3
REMARK    4  A    between atoms: C_3  and  C_5
REMARK    5  A    between atoms: C_6  and  C_7
REMARK    6  A    between atoms: C_7  and  O_8
REMARK                            x       y       z     vdW  Elec       q    Type
REMARK                         _______ _______ _______ _____ _____    ______ ____
ROOT
ATOM      1  C   UNL     1      35.375 -18.306 -23.694  0.00  0.00    +0.003 C 
ENDROOT
BRANCH   1   2
ATOM      2  C   UNL     1      34.581 -19.218 -22.758  0.00  0.00    +0.001 C 
BRANCH   2   3
ATOM      3  C   UNL     1      34.304 -18.537 -21.417  0.00  0.00    +0.012 C 
BRANCH   3   5
ATOM      4 BR   UNL     1      34.334 -15.730 -20.951  0.00  0.00    -0.081 Br
ATOM      5  C   UNL     1      35.291 -17.411 -21.161  0.00  0.00    +0.068 C 
ENDBRANCH   3   5
ENDBRANCH   2   3
ENDBRANCH   1   2
BRANCH   1   6
ATOM      6  C   UNL     1      34.535 -17.882 -24.902  0.00  0.00    +0.032 C 
BRANCH   6   7
ATOM      7  C   UNL     1      34.267 -16.383 -24.921  0.00  0.00    +0.137 C 
BRANCH   7   8
ATOM      8  O   UNL     1      33.843 -15.982 -26.215  0.00  0.00    -0.382 OA
ATOM      9  H   UNL     1      32.978 -16.375 -26.409  0.00  0.00    +0.210 HD
ENDBRANCH   7   8
ENDBRANCH   6   7
ENDBRANCH   1   6
TORSDOF 6
ENDMDL
MODEL 6
REMARK VINA RESULT:      -4.3      2.434      3.145
REMARK  Name = 77970
REMARK  6 active torsions:
REMARK  status: ('A' for Active; 'I' for Inactive)
REMARK    1  A    between atoms: C_1  and  C_2
REMARK    2  A    between atoms: C_1  and  C_6
REMARK    3  A    between atoms: C_2  and  C_3
REMARK    4  A    between atoms: C_3  and  C_5
REMARK    5  A    between atoms: C_6  and  C_7
REMARK    6  A    between atoms: C_7  and  O_8
REMARK                            x       y       z     vdW  Elec       q    Type
REMARK                         _______ _______ _______ _____ _____    ______ ____
ROOT
ATOM      1  C   UNL     1      34.838 -19.516 -22.291  0.00  0.00    +0.003 C 
ENDROOT
BRANCH   1   2
ATOM      2  C   UNL     1      35.594 -18.201 -22.485  0.00  0.00    +0.001 C 
BRANCH   2   3
ATOM      3  C   UNL     1      34.848 -17.262 -23.433  0.00  0.00    +0.012 C 
BRANCH   3   5
ATOM      4 BR   UNL     1      34.532 -15.847 -20.984  0.00  0.00    -0.081 Br
ATOM      5  C   UNL     1      34.847 -15.838 -22.904  0.00  0.00    +0.068 C 
ENDBRANCH   3   5
ENDBRANCH   2   3
ENDBRANCH   1   2
BRANCH   1   6
ATOM      6  C   UNL     1      34.386 -19.687 -20.839  0.00  0.00    +0.032 C 
BRANCH   6   7
ATOM      7  C   UNL     1      32.889 -19.948 -20.727  0.00  0.00    +0.137 C 
BRANCH   7   8
ATOM      8  O   UNL     1      32.610 -20.678 -19.542  0.00  0.00    -0.382 OA
ATOM      9  H   UNL     1      33.263 -20.452 -18.862  0.00  0.00    +0.210 HD
ENDBRANCH   7   8
ENDBRANCH   6   7
ENDBRANCH   1   6
TORSDOF 6
ENDMDL
MODEL 7
REMARK VINA RESULT:      -4.3      9.491     10.445
REMARK  Name = 77970
REMARK  6 active torsions:
REMARK  status: ('A' for Active; 'I' for Inactive)
REMARK    1  A    between atoms: C_1  and  C_2
REMARK    2  A    between atoms: C_1  and  C_6
REMARK    3  A    between atoms: C_2  and  C_3
REMARK    4  A    between atoms: C_3  and  C_5
REMARK    5  A    between atoms: C_6  and  C_7
REMARK    6  A    between atoms: C_7  and  O_8
REMARK                            x       y       z     vdW  Elec       q    Type
REMARK                         _______ _______ _______ _____ _____    ______ ____
ROOT
ATOM      1  C   UNL     1      31.042 -10.911 -19.913  0.00  0.00    +0.003 C 
ENDROOT
BRANCH   1   2
ATOM      2  C   UNL     1      31.850 -12.138 -20.340  0.00  0.00    +0.001 C 
BRANCH   2   3
ATOM      3  C   UNL     1      31.791 -12.347 -21.854  0.00  0.00    +0.012 C 
BRANCH   3   5
ATOM      4 BR   UNL     1      32.833 -14.713 -20.664  0.00  0.00    -0.081 Br
ATOM      5  C   UNL     1      32.455 -13.653 -22.252  0.00  0.00    +0.068 C 
ENDBRANCH   3   5
ENDBRANCH   2   3
ENDBRANCH   1   2
BRANCH   1   6
ATOM      6  C   UNL     1      31.947  -9.830 -19.316  0.00  0.00    +0.032 C 
BRANCH   6   7
ATOM      7  C   UNL     1      32.282  -8.738 -20.324  0.00  0.00    +0.137 C 
BRANCH   7   8
ATOM      8  O   UNL     1      33.097  -7.748 -19.714  0.00  0.00    -0.382 OA
ATOM      9  H   UNL     1      33.447  -7.152 -20.395  0.00  0.00    +0.210 HD
ENDBRANCH   7   8
ENDBRANCH   6   7
ENDBRANCH   1   6
TORSDOF 6
ENDMDL
MODEL 8
REMARK VINA RESULT:      -4.3      3.834      4.916
REMARK  Name = 77970
REMARK  6 active torsions:
REMARK  status: ('A' for Active; 'I' for Inactive)
REMARK    1  A    between atoms: C_1  and  C_2
REMARK    2  A    between atoms: C_1  and  C_6
REMARK    3  A    between atoms: C_2  and  C_3
REMARK    4  A    between atoms: C_3  and  C_5
REMARK    5  A    between atoms: C_6  and  C_7
REMARK    6  A    between atoms: C_7  and  O_8
REMARK                            x       y       z     vdW  Elec       q    Type
REMARK                         _______ _______ _______ _____ _____    ______ ____
ROOT
ATOM      1  C   UNL     1      33.883 -18.824 -21.312  0.00  0.00    +0.003 C 
ENDROOT
BRANCH   1   2
ATOM      2  C   UNL     1      34.069 -20.138 -20.551  0.00  0.00    +0.001 C 
BRANCH   2   3
ATOM      3  C   UNL     1      35.550 -20.466 -20.356  0.00  0.00    +0.012 C 
BRANCH   3   5
ATOM      4 BR   UNL     1      33.990 -22.386 -18.948  0.00  0.00    -0.081 Br
ATOM      5  C   UNL     1      35.729 -21.655 -19.428  0.00  0.00    +0.068 C 
ENDBRANCH   3   5
ENDBRANCH   2   3
ENDBRANCH   1   2
BRANCH   1   6
ATOM      6  C   UNL     1      35.223 -18.120 -21.542  0.00  0.00    +0.032 C 
BRANCH   6   7
ATOM      7  C   UNL     1      35.047 -16.700 -22.065  0.00  0.00    +0.137 C 
BRANCH   7   8
ATOM      8  O   UNL     1      35.783 -16.530 -23.267  0.00  0.00    -0.382 OA
ATOM      9  H   UNL     1      35.716 -17.335 -23.804  0.00  0.00    +0.210 HD
ENDBRANCH   7   8
ENDBRANCH   6   7
ENDBRANCH   1   6
TORSDOF 6
ENDMDL
MODEL 9
REMARK VINA RESULT:      -4.2      3.208      4.233
REMARK  Name = 77970
REMARK  6 active torsions:
REMARK  status: ('A' for Active; 'I' for Inactive)
REMARK    1  A    between atoms: C_1  and  C_2
REMARK    2  A    between atoms: C_1  and  C_6
REMARK    3  A    between atoms: C_2  and  C_3
REMARK    4  A    between atoms: C_3  and  C_5
REMARK    5  A    between atoms: C_6  and  C_7
REMARK    6  A    between atoms: C_7  and  O_8
REMARK                            x       y       z     vdW  Elec       q    Type
REMARK                         _______ _______ _______ _____ _____    ______ ____
ROOT
ATOM      1  C   UNL     1      34.835 -19.299 -23.455  0.00  0.00    +0.003 C 
ENDROOT
BRANCH   1   2
ATOM      2  C   UNL     1      35.258 -17.907 -23.928  0.00  0.00    +0.001 C 
BRANCH   2   3
ATOM      3  C   UNL     1      34.504 -17.494 -25.192  0.00  0.00    +0.012 C 
BRANCH   3   5
ATOM      4 BR   UNL     1      34.454 -15.334 -23.339  0.00  0.00    -0.081 Br
ATOM      5  C   UNL     1      33.974 -16.075 -25.073  0.00  0.00    +0.068 C 
ENDBRANCH   3   5
ENDBRANCH   2   3
ENDBRANCH   1   2
BRANCH   1   6
ATOM      6  C   UNL     1      34.529 -19.307 -21.955  0.00  0.00    +0.032 C 
BRANCH   6   7
ATOM      7  C   UNL     1      35.485 -18.421 -21.166  0.00  0.00    +0.137 C 
BRANCH   7   8
ATOM      8  O   UNL     1      36.396 -19.225 -20.432  0.00  0.00    -0.382 OA
ATOM      9  H   UNL     1      37.304 -18.946 -20.629  0.00  0.00    +0.210 HD
ENDBRANCH   7   8
ENDBRANCH   6   7
ENDBRANCH   1   6
TORSDOF 6
ENDMDL
