MODEL 1
REMARK VINA RESULT:     -10.8      0.000      0.000
REMARK  Name = 6674
REMARK  5 active torsions:
REMARK  status: ('A' for Active; 'I' for Inactive)
REMARK    1  A    between atoms: C_9  and  C_23
REMARK    2  A    between atoms: C_23  and  C_25
REMARK    3  A    between atoms: C_25  and  C_26
REMARK    4  A    between atoms: C_26  and  C_28
REMARK    5  A    between atoms: C_28  and  O_29
REMARK                            x       y       z     vdW  Elec       q    Type
REMARK                         _______ _______ _______ _____ _____    ______ ____
ROOT
ATOM      1  O   UNL     1      31.849 -25.749 -13.701  0.00  0.00    -0.296 OA
ATOM      2  O   UNL     1      35.691 -22.910 -17.323  0.00  0.00    -0.296 OA
ATOM      3  O   UNL     1      39.165 -27.043 -14.688  0.00  0.00    -0.296 OA
ATOM      4  C   UNL     1      33.367 -23.432 -15.773  0.00  0.00    +0.013 C 
ATOM      5  C   UNL     1      32.219 -23.602 -14.751  0.00  0.00    +0.052 C 
ATOM      6  C   UNL     1      34.714 -23.127 -15.107  0.00  0.00    +0.058 C 
ATOM      7  C   UNL     1      35.097 -24.320 -14.172  0.00  0.00    +0.014 C 
ATOM      8  C   UNL     1      36.487 -24.096 -13.465  0.00  0.00    +0.002 C 
ATOM      9  C   UNL     1      31.040 -23.825 -15.723  0.00  0.00    +0.007 C 
ATOM     10  C   UNL     1      32.786 -22.429 -16.768  0.00  0.00    +0.001 C 
ATOM     11  C   UNL     1      37.591 -23.843 -14.550  0.00  0.00    +0.015 C 
ATOM     12  C   UNL     1      33.958 -24.706 -13.201  0.00  0.00    +0.065 C 
ATOM     13  C   UNL     1      31.295 -22.799 -16.850  0.00  0.00    +0.000 C 
ATOM     14  C   UNL     1      32.604 -24.797 -13.893  0.00  0.00    +0.150 C 
ATOM     15  C   UNL     1      35.852 -22.932 -16.105  0.00  0.00    +0.150 C 
ATOM     16  C   UNL     1      37.221 -22.701 -15.504  0.00  0.00    +0.065 C 
ATOM     17  C   UNL     1      36.927 -25.316 -12.604  0.00  0.00    +0.008 C 
ATOM     18  C   UNL     1      31.980 -22.393 -13.823  0.00  0.00    +0.007 C 
ATOM     19  C   UNL     1      36.433 -22.885 -12.497  0.00  0.00    +0.000 C 
ATOM     20  C   UNL     1      37.936 -25.102 -15.368  0.00  0.00    +0.065 C 
ATOM     21  C   UNL     1      37.198 -26.579 -13.405  0.00  0.00    +0.065 C 
ATOM     22  C   UNL     1      38.214 -26.290 -14.479  0.00  0.00    +0.151 C 
ENDROOT
BRANCH   9  23
ATOM     23  C   UNL     1      29.639 -23.702 -15.137  0.00  0.00    +0.001 C 
ATOM     24  C   UNL     1      28.884 -25.024 -15.305  0.00  0.00    +0.000 C 
BRANCH  23  25
ATOM     25  C   UNL     1      28.894 -22.521 -15.790  0.00  0.00    +0.012 C 
BRANCH  25  26
ATOM     26  C   UNL     1      27.737 -22.947 -16.697  0.00  0.00    +0.109 C 
BRANCH  26  28
ATOM     27  O   UNL     1      25.657 -22.065 -15.791  0.00  0.00    -0.250 OA
ATOM     28  C   UNL     1      26.567 -21.995 -16.604  0.00  0.00    +0.314 C 
BRANCH  28  29
ATOM     29  O   UNL     1      26.637 -21.028 -17.557  0.00  0.00    -0.480 OA
ATOM     30  H   UNL     1      27.427 -20.912 -18.048  0.00  0.00    +0.295 HD
ENDBRANCH  28  29
ENDBRANCH  26  28
ENDBRANCH  25  26
ENDBRANCH  23  25
ENDBRANCH   9  23
TORSDOF 5
ENDMDL
