MODEL 1
REMARK VINA RESULT:      -6.0      0.000      0.000
REMARK  Name = 5810
REMARK  3 active torsions:
REMARK  status: ('A' for Active; 'I' for Inactive)
REMARK    1  A    between atoms: CA_3  and  C_11
REMARK    2  A    between atoms: CG_4  and  OD_8
REMARK    3  A    between atoms: C_11  and  O_12
REMARK                            x       y       z     vdW  Elec       q    Type
REMARK                         _______ _______ _______ _____ _____    ______ ____
ROOT
ATOM      1  N   HYP A   1      37.910 -25.707 -15.221  0.00  0.00    +0.394 N 
ATOM      2  CB  HYP A   1      38.531 -25.640 -12.897  0.00  0.00    +0.017 C 
ATOM      3  CA  HYP A   1      38.964 -25.250 -14.309  0.00  0.00    +0.042 C 
ATOM      4  CG  HYP A   1      37.246 -26.436 -13.085  0.00  0.00    +0.088 C 
ATOM      5  CD  HYP A   1      37.259 -26.840 -14.546  0.00  0.00    -0.051 C 
ATOM      6  H1  HYP A   1      38.314 -26.006 -16.109  0.00  0.00    -0.084 HD
ATOM      7  H2  HYP A   1      37.245 -24.962 -15.431  0.00  0.00    -0.084 HD
ENDROOT
BRANCH   4   8
ATOM      8  OD  HYP A   1      36.113 -25.608 -12.842  0.00  0.00    -0.387 OA
ATOM      9  HD  HYP A   1      35.311 -26.153 -12.835  0.00  0.00    +0.210 HD
ENDBRANCH   4   8
BRANCH   3  11
ATOM     10  OXT HYP A   1      41.013 -26.480 -13.963  0.00  0.00    -0.253 OA
ATOM     11  C   HYP A   1      40.228 -25.937 -14.724  0.00  0.00    +0.294 C 
BRANCH  11  12
ATOM     12  O   HYP A   1      40.387 -25.874 -16.068  0.00  0.00    -0.482 OA
ATOM     13  H   HYP A   1      41.166 -25.501 -16.431  0.00  0.00    +0.295 HD
ENDBRANCH  11  12
ENDBRANCH   3  11
TORSDOF 3
ENDMDL
MODEL 2
REMARK VINA RESULT:      -5.3      1.722      3.916
REMARK  Name = 5810
REMARK  3 active torsions:
REMARK  status: ('A' for Active; 'I' for Inactive)
REMARK    1  A    between atoms: CA_3  and  C_11
REMARK    2  A    between atoms: CG_4  and  OD_8
REMARK    3  A    between atoms: C_11  and  O_12
REMARK                            x       y       z     vdW  Elec       q    Type
REMARK                         _______ _______ _______ _____ _____    ______ ____
ROOT
ATOM      1  N   HYP A   1      36.217 -25.764 -13.958  0.00  0.00    +0.394 N 
ATOM      2  CB  HYP A   1      38.433 -25.471 -13.067  0.00  0.00    +0.017 C 
ATOM      3  CA  HYP A   1      37.000 -25.865 -12.721  0.00  0.00    +0.042 C 
ATOM      4  CG  HYP A   1      38.382 -25.037 -14.526  0.00  0.00    +0.088 C 
ATOM      5  CD  HYP A   1      36.913 -24.773 -14.792  0.00  0.00    -0.051 C 
ATOM      6  H1  HYP A   1      35.268 -25.454 -13.753  0.00  0.00    -0.084 HD
ATOM      7  H2  HYP A   1      36.143 -26.666 -14.430  0.00  0.00    -0.084 HD
ENDROOT
BRANCH   4   8
ATOM      8  OD  HYP A   1      38.825 -26.094 -15.371  0.00  0.00    -0.387 OA
ATOM      9  HD  HYP A   1      38.562 -26.946 -14.988  0.00  0.00    +0.210 HD
ENDBRANCH   4   8
BRANCH   3  11
ATOM     10  OXT HYP A   1      36.994 -24.180 -10.990  0.00  0.00    -0.253 OA
ATOM     11  C   HYP A   1      36.377 -24.926 -11.735  0.00  0.00    +0.294 C 
BRANCH  11  12
ATOM     12  O   HYP A   1      35.025 -25.017 -11.776  0.00  0.00    -0.482 OA
ATOM     13  H   HYP A   1      34.608 -25.853 -11.703  0.00  0.00    +0.295 HD
ENDBRANCH  11  12
ENDBRANCH   3  11
TORSDOF 3
ENDMDL
MODEL 3
REMARK VINA RESULT:      -5.3      1.445      1.800
REMARK  Name = 5810
REMARK  3 active torsions:
REMARK  status: ('A' for Active; 'I' for Inactive)
REMARK    1  A    between atoms: CA_3  and  C_11
REMARK    2  A    between atoms: CG_4  and  OD_8
REMARK    3  A    between atoms: C_11  and  O_12
REMARK                            x       y       z     vdW  Elec       q    Type
REMARK                         _______ _______ _______ _____ _____    ______ ____
ROOT
ATOM      1  N   HYP A   1      38.530 -24.730 -13.228  0.00  0.00    +0.394 N 
ATOM      2  CB  HYP A   1      37.857 -26.195 -15.014  0.00  0.00    +0.017 C 
ATOM      3  CA  HYP A   1      38.994 -25.849 -14.056  0.00  0.00    +0.042 C 
ATOM      4  CG  HYP A   1      36.788 -25.142 -14.755  0.00  0.00    +0.088 C 
ATOM      5  CD  HYP A   1      37.520 -24.027 -14.033  0.00  0.00    -0.051 C 
ATOM      6  H1  HYP A   1      39.306 -24.106 -13.007  0.00  0.00    -0.084 HD
ATOM      7  H2  HYP A   1      38.143 -25.054 -12.341  0.00  0.00    -0.084 HD
ENDROOT
BRANCH   4   8
ATOM      8  OD  HYP A   1      35.777 -25.664 -13.899  0.00  0.00    -0.387 OA
ATOM      9  HD  HYP A   1      34.906 -25.396 -14.228  0.00  0.00    +0.210 HD
ENDBRANCH   4   8
BRANCH   3  11
ATOM     10  OXT HYP A   1      41.041 -24.596 -14.326  0.00  0.00    -0.253 OA
ATOM     11  C   HYP A   1      40.219 -25.378 -14.777  0.00  0.00    +0.294 C 
BRANCH  11  12
ATOM     12  O   HYP A   1      40.294 -25.939 -16.009  0.00  0.00    -0.482 OA
ATOM     13  H   HYP A   1      40.934 -25.638 -16.623  0.00  0.00    +0.295 HD
ENDBRANCH  11  12
ENDBRANCH   3  11
TORSDOF 3
ENDMDL
MODEL 4
REMARK VINA RESULT:      -5.3      8.458      9.892
REMARK  Name = 5810
REMARK  3 active torsions:
REMARK  status: ('A' for Active; 'I' for Inactive)
REMARK    1  A    between atoms: CA_3  and  C_11
REMARK    2  A    between atoms: CG_4  and  OD_8
REMARK    3  A    between atoms: C_11  and  O_12
REMARK                            x       y       z     vdW  Elec       q    Type
REMARK                         _______ _______ _______ _____ _____    ______ ____
ROOT
ATOM      1  N   HYP A   1      28.784 -25.003 -14.937  0.00  0.00    +0.394 N 
ATOM      2  CB  HYP A   1      30.037 -22.953 -14.795  0.00  0.00    +0.017 C 
ATOM      3  CA  HYP A   1      28.718 -23.571 -15.252  0.00  0.00    +0.042 C 
ATOM      4  CG  HYP A   1      30.879 -24.128 -14.318  0.00  0.00    +0.088 C 
ATOM      5  CD  HYP A   1      30.214 -25.345 -14.930  0.00  0.00    -0.051 C 
ATOM      6  H1  HYP A   1      28.291 -25.545 -15.646  0.00  0.00    -0.084 HD
ATOM      7  H2  HYP A   1      28.344 -25.210 -14.040  0.00  0.00    -0.084 HD
ENDROOT
BRANCH   4   8
ATOM      8  OD  HYP A   1      30.822 -24.233 -12.898  0.00  0.00    -0.387 OA
ATOM      9  HD  HYP A   1      30.015 -23.804 -12.575  0.00  0.00    +0.210 HD
ENDBRANCH   4   8
BRANCH   3  11
ATOM     10  OXT HYP A   1      27.840 -24.212 -17.409  0.00  0.00    -0.253 OA
ATOM     11  C   HYP A   1      28.524 -23.460 -16.733  0.00  0.00    +0.294 C 
BRANCH  11  12
ATOM     12  O   HYP A   1      29.218 -22.406 -17.228  0.00  0.00    -0.482 OA
ATOM     13  H   HYP A   1      29.822 -22.532 -17.933  0.00  0.00    +0.295 HD
ENDBRANCH  11  12
ENDBRANCH   3  11
TORSDOF 3
ENDMDL
MODEL 5
REMARK VINA RESULT:      -5.1      2.174      2.908
REMARK  Name = 5810
REMARK  3 active torsions:
REMARK  status: ('A' for Active; 'I' for Inactive)
REMARK    1  A    between atoms: CA_3  and  C_11
REMARK    2  A    between atoms: CG_4  and  OD_8
REMARK    3  A    between atoms: C_11  and  O_12
REMARK                            x       y       z     vdW  Elec       q    Type
REMARK                         _______ _______ _______ _____ _____    ______ ____
ROOT
ATOM      1  N   HYP A   1      36.547 -24.361 -13.824  0.00  0.00    +0.394 N 
ATOM      2  CB  HYP A   1      38.786 -25.091 -13.326  0.00  0.00    +0.017 C 
ATOM      3  CA  HYP A   1      37.738 -24.966 -14.430  0.00  0.00    +0.042 C 
ATOM      4  CG  HYP A   1      38.078 -24.633 -12.058  0.00  0.00    +0.088 C 
ATOM      5  CD  HYP A   1      36.602 -24.712 -12.397  0.00  0.00    -0.051 C 
ATOM      6  H1  HYP A   1      35.701 -24.739 -14.250  0.00  0.00    -0.084 HD
ATOM      7  H2  HYP A   1      36.527 -23.351 -13.961  0.00  0.00    -0.084 HD
ENDROOT
BRANCH   4   8
ATOM      8  OD  HYP A   1      38.416 -23.282 -11.764  0.00  0.00    -0.387 OA
ATOM      9  HD  HYP A   1      37.713 -22.696 -12.086  0.00  0.00    +0.210 HD
ENDBRANCH   4   8
BRANCH   3  11
ATOM     10  OXT HYP A   1      36.285 -26.519 -15.575  0.00  0.00    -0.253 OA
ATOM     11  C   HYP A   1      37.323 -26.300 -14.970  0.00  0.00    +0.294 C 
BRANCH  11  12
ATOM     12  O   HYP A   1      38.259 -27.240 -14.693  0.00  0.00    -0.482 OA
ATOM     13  H   HYP A   1      38.030 -28.148 -14.707  0.00  0.00    +0.295 HD
ENDBRANCH  11  12
ENDBRANCH   3  11
TORSDOF 3
ENDMDL
MODEL 6
REMARK VINA RESULT:      -5.0      2.692      3.226
REMARK  Name = 5810
REMARK  3 active torsions:
REMARK  status: ('A' for Active; 'I' for Inactive)
REMARK    1  A    between atoms: CA_3  and  C_11
REMARK    2  A    between atoms: CG_4  and  OD_8
REMARK    3  A    between atoms: C_11  and  O_12
REMARK                            x       y       z     vdW  Elec       q    Type
REMARK                         _______ _______ _______ _____ _____    ______ ____
ROOT
ATOM      1  N   HYP A   1      37.572 -24.350 -14.195  0.00  0.00    +0.394 N 
ATOM      2  CB  HYP A   1      35.436 -25.037 -15.064  0.00  0.00    +0.017 C 
ATOM      3  CA  HYP A   1      36.671 -25.503 -14.296  0.00  0.00    +0.042 C 
ATOM      4  CG  HYP A   1      35.748 -23.607 -15.482  0.00  0.00    +0.088 C 
ATOM      5  CD  HYP A   1      37.254 -23.491 -15.346  0.00  0.00    -0.051 C 
ATOM      6  H1  HYP A   1      38.545 -24.655 -14.238  0.00  0.00    -0.084 HD
ATOM      7  H2  HYP A   1      37.451 -23.854 -13.312  0.00  0.00    -0.084 HD
ENDROOT
BRANCH   4   8
ATOM      8  OD  HYP A   1      35.128 -22.685 -14.591  0.00  0.00    -0.387 OA
ATOM      9  HD  HYP A   1      34.556 -23.167 -13.974  0.00  0.00    +0.210 HD
ENDBRANCH   4   8
BRANCH   3  11
ATOM     10  OXT HYP A   1      38.514 -27.010 -14.702  0.00  0.00    -0.253 OA
ATOM     11  C   HYP A   1      37.417 -26.578 -15.023  0.00  0.00    +0.294 C 
BRANCH  11  12
ATOM     12  O   HYP A   1      36.710 -27.011 -16.095  0.00  0.00    -0.482 OA
ATOM     13  H   HYP A   1      37.066 -27.671 -16.656  0.00  0.00    +0.295 HD
ENDBRANCH  11  12
ENDBRANCH   3  11
TORSDOF 3
ENDMDL
MODEL 7
REMARK VINA RESULT:      -5.0      2.189      3.375
REMARK  Name = 5810
REMARK  3 active torsions:
REMARK  status: ('A' for Active; 'I' for Inactive)
REMARK    1  A    between atoms: CA_3  and  C_11
REMARK    2  A    between atoms: CG_4  and  OD_8
REMARK    3  A    between atoms: C_11  and  O_12
REMARK                            x       y       z     vdW  Elec       q    Type
REMARK                         _______ _______ _______ _____ _____    ______ ____
ROOT
ATOM      1  N   HYP A   1      38.199 -24.087 -14.557  0.00  0.00    +0.394 N 
ATOM      2  CB  HYP A   1      36.908 -25.819 -13.495  0.00  0.00    +0.017 C 
ATOM      3  CA  HYP A   1      37.187 -24.318 -13.519  0.00  0.00    +0.042 C 
ATOM      4  CG  HYP A   1      37.895 -26.419 -14.487  0.00  0.00    +0.088 C 
ATOM      5  CD  HYP A   1      38.950 -25.346 -14.671  0.00  0.00    -0.051 C 
ATOM      6  H1  HYP A   1      38.820 -23.325 -14.284  0.00  0.00    -0.084 HD
ATOM      7  H2  HYP A   1      37.772 -23.823 -15.445  0.00  0.00    -0.084 HD
ENDROOT
BRANCH   4   8
ATOM      8  OD  HYP A   1      37.255 -26.660 -15.736  0.00  0.00    -0.387 OA
ATOM      9  HD  HYP A   1      37.748 -26.214 -16.443  0.00  0.00    +0.210 HD
ENDBRANCH   4   8
BRANCH   3  11
ATOM     10  OXT HYP A   1      38.194 -22.701 -12.034  0.00  0.00    -0.253 OA
ATOM     11  C   HYP A   1      37.768 -23.829 -12.229  0.00  0.00    +0.294 C 
BRANCH  11  12
ATOM     12  O   HYP A   1      37.761 -24.814 -11.298  0.00  0.00    -0.482 OA
ATOM     13  H   HYP A   1      36.956 -25.068 -10.890  0.00  0.00    +0.295 HD
ENDBRANCH  11  12
ENDBRANCH   3  11
TORSDOF 3
ENDMDL
MODEL 8
REMARK VINA RESULT:      -5.0      7.477      8.911
REMARK  Name = 5810
REMARK  3 active torsions:
REMARK  status: ('A' for Active; 'I' for Inactive)
REMARK    1  A    between atoms: CA_3  and  C_11
REMARK    2  A    between atoms: CG_4  and  OD_8
REMARK    3  A    between atoms: C_11  and  O_12
REMARK                            x       y       z     vdW  Elec       q    Type
REMARK                         _______ _______ _______ _____ _____    ______ ____
ROOT
ATOM      1  N   HYP A   1      30.068 -24.916 -15.796  0.00  0.00    +0.394 N 
ATOM      2  CB  HYP A   1      30.524 -22.661 -15.090  0.00  0.00    +0.017 C 
ATOM      3  CA  HYP A   1      31.078 -24.083 -15.134  0.00  0.00    +0.042 C 
ATOM      4  CG  HYP A   1      29.114 -22.770 -15.655  0.00  0.00    +0.088 C 
ATOM      5  CD  HYP A   1      28.780 -24.246 -15.561  0.00  0.00    -0.051 C 
ATOM      6  H1  HYP A   1      30.060 -25.853 -15.392  0.00  0.00    -0.084 HD
ATOM      7  H2  HYP A   1      30.261 -25.020 -16.792  0.00  0.00    -0.084 HD
ENDROOT
BRANCH   4   8
ATOM      8  OD  HYP A   1      29.097 -22.376 -17.023  0.00  0.00    -0.387 OA
ATOM      9  HD  HYP A   1      28.203 -22.488 -17.381  0.00  0.00    +0.210 HD
ENDBRANCH   4   8
BRANCH   3  11
ATOM     10  OXT HYP A   1      30.648 -24.336 -12.771  0.00  0.00    -0.253 OA
ATOM     11  C   HYP A   1      31.283 -24.653 -13.765  0.00  0.00    +0.294 C 
BRANCH  11  12
ATOM     12  O   HYP A   1      32.278 -25.573 -13.774  0.00  0.00    -0.482 OA
ATOM     13  H   HYP A   1      32.944 -25.550 -13.115  0.00  0.00    +0.295 HD
ENDBRANCH  11  12
ENDBRANCH   3  11
TORSDOF 3
ENDMDL
MODEL 9
REMARK VINA RESULT:      -5.0      2.656      3.306
REMARK  Name = 5810
REMARK  3 active torsions:
REMARK  status: ('A' for Active; 'I' for Inactive)
REMARK    1  A    between atoms: CA_3  and  C_11
REMARK    2  A    between atoms: CG_4  and  OD_8
REMARK    3  A    between atoms: C_11  and  O_12
REMARK                            x       y       z     vdW  Elec       q    Type
REMARK                         _______ _______ _______ _____ _____    ______ ____
ROOT
ATOM      1  N   HYP A   1      38.382 -23.796 -11.750  0.00  0.00    +0.394 N 
ATOM      2  CB  HYP A   1      36.458 -25.206 -12.067  0.00  0.00    +0.017 C 
ATOM      3  CA  HYP A   1      37.936 -25.032 -12.404  0.00  0.00    +0.042 C 
ATOM      4  CG  HYP A   1      36.079 -23.950 -11.293  0.00  0.00    +0.088 C 
ATOM      5  CD  HYP A   1      37.181 -22.959 -11.614  0.00  0.00    -0.051 C 
ATOM      6  H1  HYP A   1      39.082 -23.324 -12.323  0.00  0.00    -0.084 HD
ATOM      7  H2  HYP A   1      38.813 -23.985 -10.845  0.00  0.00    -0.084 HD
ENDROOT
BRANCH   4   8
ATOM      8  OD  HYP A   1      36.084 -24.212  -9.893  0.00  0.00    -0.387 OA
ATOM      9  HD  HYP A   1      35.204 -24.033  -9.529  0.00  0.00    +0.210 HD
ENDBRANCH   4   8
BRANCH   3  11
ATOM     10  OXT HYP A   1      39.199 -24.442 -14.377  0.00  0.00    -0.253 OA
ATOM     11  C   HYP A   1      38.165 -24.854 -13.873  0.00  0.00    +0.294 C 
BRANCH  11  12
ATOM     12  O   HYP A   1      37.063 -25.212 -14.576  0.00  0.00    -0.482 OA
ATOM     13  H   HYP A   1      36.826 -26.116 -14.648  0.00  0.00    +0.295 HD
ENDBRANCH  11  12
ENDBRANCH   3  11
TORSDOF 3
ENDMDL
