MODEL 1
REMARK VINA RESULT:     -11.7      0.000      0.000
REMARK  Name = 6852168
REMARK  5 active torsions:
REMARK  status: ('A' for Active; 'I' for Inactive)
REMARK    1  A    between atoms: N_1  and  C_5
REMARK    2  A    between atoms: N_1  and  S_19
REMARK    3  A    between atoms: N_4  and  C_9
REMARK    4  A    between atoms: C_9  and  C_14
REMARK    5  A    between atoms: S_19  and  C_23
REMARK                            x       y       z     vdW  Elec       q    Type
REMARK                         _______ _______ _______ _____ _____    ______ ____
ROOT
ATOM      1  N   UNL     1      35.383 -16.796 -22.140  0.00  0.00    -0.172 NA
ATOM      2  H   UNL     1      35.885 -16.124 -22.718  0.00  0.00    +0.149 HD
ENDROOT
BRANCH   1   5
ATOM      3  O   UNL     1      33.733 -15.698 -24.438  0.00  0.00    -0.273 OA
ATOM      4  N   UNL     1      33.781 -14.115 -22.697  0.00  0.00    -0.272 N 
ATOM      5  C   UNL     1      33.972 -16.371 -22.122  0.00  0.00    +0.153 C 
ATOM      6  C   UNL     1      33.655 -15.554 -20.875  0.00  0.00    +0.048 C 
ATOM      7  C   UNL     1      33.986 -14.126 -21.267  0.00  0.00    +0.096 C 
ATOM      8  C   UNL     1      33.797 -15.392 -23.256  0.00  0.00    +0.242 C 
BRANCH   4   9
ATOM      9  C   UNL     1      33.732 -12.877 -23.444  0.00  0.00    +0.152 C 
ATOM     10  C   UNL     1      33.516 -13.105 -24.922  0.00  0.00    +0.031 C 
BRANCH   9  14
ATOM     11  O   UNL     1      32.819  -7.956 -22.781  0.00  0.00    -0.350 OA
ATOM     12  O   UNL     1      31.713 -12.742 -22.208  0.00  0.00    -0.273 OA
ATOM     13  N   UNL     1      32.549 -10.747 -23.052  0.00  0.00    -0.273 N 
ATOM     14  C   UNL     1      32.571 -12.124 -22.845  0.00  0.00    +0.244 C 
ATOM     15  C   UNL     1      33.479 -10.001 -23.907  0.00  0.00    +0.126 C 
ATOM     16  C   UNL     1      31.460  -9.940 -22.501  0.00  0.00    +0.126 C 
ATOM     17  C   UNL     1      33.943  -8.734 -23.200  0.00  0.00    +0.164 C 
ATOM     18  C   UNL     1      32.012  -8.680 -21.850  0.00  0.00    +0.164 C 
ENDBRANCH   9  14
ENDBRANCH   4   9
ENDBRANCH   1   5
BRANCH   1  19
ATOM     19  S   UNL     1      35.800 -18.345 -22.712  0.00  0.00    +0.061 S 
ATOM     20  O   UNL     1      37.227 -18.546 -22.549  0.00  0.00    -0.153 OA
ATOM     21  O   UNL     1      35.177 -18.556 -24.005  0.00  0.00    -0.153 OA
BRANCH  19  23
ATOM     22 CL   UNL     1      32.924 -23.663 -16.787  0.00  0.00    -0.082 Cl
ATOM     23  C   UNL     1      34.966 -19.394 -21.560  0.00  0.00    +0.122 C 
ATOM     24  C   UNL     1      35.711 -20.137 -20.661  0.00  0.00    +0.020 C 
ATOM     25  C   UNL     1      33.587 -19.454 -21.581  0.00  0.00    +0.020 C 
ATOM     26  C   UNL     1      35.063 -20.975 -19.739  0.00  0.00    +0.001 C 
ATOM     27  C   UNL     1      33.650 -21.048 -19.744  0.00  0.00    +0.001 C 
ATOM     28  C   UNL     1      32.926 -20.280 -20.672  0.00  0.00    +0.001 C 
ATOM     29  C   UNL     1      35.787 -21.742 -18.811  0.00  0.00    +0.001 C 
ATOM     30  C   UNL     1      33.002 -21.887 -18.823  0.00  0.00    +0.011 C 
ATOM     31  C   UNL     1      35.126 -22.569 -17.902  0.00  0.00    +0.011 C 
ATOM     32  C   UNL     1      33.736 -22.642 -17.909  0.00  0.00    +0.058 C 
ENDBRANCH  19  23
ENDBRANCH   1  19
TORSDOF 5
ENDMDL
MODEL 2
REMARK VINA RESULT:     -11.3      1.268      1.840
REMARK  Name = 6852168
REMARK  5 active torsions:
REMARK  status: ('A' for Active; 'I' for Inactive)
REMARK    1  A    between atoms: N_1  and  C_5
REMARK    2  A    between atoms: N_1  and  S_19
REMARK    3  A    between atoms: N_4  and  C_9
REMARK    4  A    between atoms: C_9  and  C_14
REMARK    5  A    between atoms: S_19  and  C_23
REMARK                            x       y       z     vdW  Elec       q    Type
REMARK                         _______ _______ _______ _____ _____    ______ ____
ROOT
ATOM      1  N   UNL     1      34.608 -17.248 -22.683  0.00  0.00    -0.172 NA
ATOM      2  H   UNL     1      34.523 -17.028 -21.691  0.00  0.00    +0.149 HD
ENDROOT
BRANCH   1   5
ATOM      3  O   UNL     1      34.787 -14.435 -21.558  0.00  0.00    -0.273 OA
ATOM      4  N   UNL     1      33.472 -14.404 -23.509  0.00  0.00    -0.272 N 
ATOM      5  C   UNL     1      35.132 -16.039 -23.343  0.00  0.00    +0.153 C 
ATOM      6  C   UNL     1      34.655 -15.944 -24.788  0.00  0.00    +0.048 C 
ATOM      7  C   UNL     1      33.329 -15.212 -24.698  0.00  0.00    +0.096 C 
ATOM      8  C   UNL     1      34.484 -14.858 -22.665  0.00  0.00    +0.242 C 
BRANCH   4   9
ATOM      9  C   UNL     1      32.535 -13.347 -23.197  0.00  0.00    +0.152 C 
ATOM     10  C   UNL     1      32.190 -13.298 -21.727  0.00  0.00    +0.031 C 
BRANCH   9  14
ATOM     11  O   UNL     1      31.405  -8.453 -22.678  0.00  0.00    -0.350 OA
ATOM     12  O   UNL     1      34.192 -12.155 -24.405  0.00  0.00    -0.273 OA
ATOM     13  N   UNL     1      32.756 -10.891 -23.090  0.00  0.00    -0.273 N 
ATOM     14  C   UNL     1      33.241 -12.083 -23.621  0.00  0.00    +0.244 C 
ATOM     15  C   UNL     1      31.715 -10.779 -22.062  0.00  0.00    +0.126 C 
ATOM     16  C   UNL     1      33.380  -9.619 -23.453  0.00  0.00    +0.126 C 
ATOM     17  C   UNL     1      30.722  -9.685 -22.435  0.00  0.00    +0.164 C 
ATOM     18  C   UNL     1      32.317  -8.578 -23.772  0.00  0.00    +0.164 C 
ENDBRANCH   9  14
ENDBRANCH   4   9
ENDBRANCH   1   5
BRANCH   1  19
ATOM     19  S   UNL     1      35.465 -18.717 -22.788  0.00  0.00    +0.061 S 
ATOM     20  O   UNL     1      36.846 -18.493 -22.405  0.00  0.00    -0.153 OA
ATOM     21  O   UNL     1      35.154 -19.357 -24.052  0.00  0.00    -0.153 OA
BRANCH  19  23
ATOM     22 CL   UNL     1      32.914 -23.636 -16.389  0.00  0.00    -0.082 Cl
ATOM     23  C   UNL     1      34.695 -19.676 -21.520  0.00  0.00    +0.122 C 
ATOM     24  C   UNL     1      35.486 -20.408 -20.651  0.00  0.00    +0.020 C 
ATOM     25  C   UNL     1      33.317 -19.681 -21.422  0.00  0.00    +0.020 C 
ATOM     26  C   UNL     1      34.889 -21.176 -19.638  0.00  0.00    +0.001 C 
ATOM     27  C   UNL     1      33.479 -21.191 -19.521  0.00  0.00    +0.001 C 
ATOM     28  C   UNL     1      32.707 -20.437 -20.422  0.00  0.00    +0.001 C 
ATOM     29  C   UNL     1      35.661 -21.928 -18.738  0.00  0.00    +0.001 C 
ATOM     30  C   UNL     1      32.882 -21.959 -18.509  0.00  0.00    +0.011 C 
ATOM     31  C   UNL     1      35.051 -22.686 -17.738  0.00  0.00    +0.011 C 
ATOM     32  C   UNL     1      33.664 -22.701 -17.624  0.00  0.00    +0.058 C 
ENDBRANCH  19  23
ENDBRANCH   1  19
TORSDOF 5
ENDMDL
MODEL 3
REMARK VINA RESULT:     -11.3      3.722      6.160
REMARK  Name = 6852168
REMARK  5 active torsions:
REMARK  status: ('A' for Active; 'I' for Inactive)
REMARK    1  A    between atoms: N_1  and  C_5
REMARK    2  A    between atoms: N_1  and  S_19
REMARK    3  A    between atoms: N_4  and  C_9
REMARK    4  A    between atoms: C_9  and  C_14
REMARK    5  A    between atoms: S_19  and  C_23
REMARK                            x       y       z     vdW  Elec       q    Type
REMARK                         _______ _______ _______ _____ _____    ______ ____
ROOT
ATOM      1  N   UNL     1      33.717 -21.264 -19.019  0.00  0.00    -0.172 NA
ATOM      2  H   UNL     1      34.644 -21.016 -18.673  0.00  0.00    +0.149 HD
ENDROOT
BRANCH   1   5
ATOM      3  O   UNL     1      36.147 -20.999 -20.818  0.00  0.00    -0.273 OA
ATOM      4  N   UNL     1      34.807 -19.078 -21.044  0.00  0.00    -0.272 N 
ATOM      5  C   UNL     1      33.748 -21.083 -20.481  0.00  0.00    +0.153 C 
ATOM      6  C   UNL     1      32.705 -20.069 -20.937  0.00  0.00    +0.048 C 
ATOM      7  C   UNL     1      33.418 -18.732 -20.848  0.00  0.00    +0.096 C 
ATOM      8  C   UNL     1      35.066 -20.428 -20.812  0.00  0.00    +0.242 C 
BRANCH   4   9
ATOM      9  C   UNL     1      35.809 -18.067 -21.297  0.00  0.00    +0.152 C 
ATOM     10  C   UNL     1      37.153 -18.662 -21.649  0.00  0.00    +0.031 C 
BRANCH   9  14
ATOM     11  O   UNL     1      32.907 -13.942 -21.547  0.00  0.00    -0.350 OA
ATOM     12  O   UNL     1      35.323 -17.740 -23.594  0.00  0.00    -0.273 OA
ATOM     13  N   UNL     1      34.692 -16.037 -22.148  0.00  0.00    -0.273 N 
ATOM     14  C   UNL     1      35.258 -17.273 -22.454  0.00  0.00    +0.244 C 
ATOM     15  C   UNL     1      34.711 -15.397 -20.829  0.00  0.00    +0.126 C 
ATOM     16  C   UNL     1      34.130 -15.205 -23.212  0.00  0.00    +0.126 C 
ATOM     17  C   UNL     1      33.339 -14.820 -20.504  0.00  0.00    +0.164 C 
ATOM     18  C   UNL     1      32.781 -14.642 -22.787  0.00  0.00    +0.164 C 
ENDBRANCH   9  14
ENDBRANCH   4   9
ENDBRANCH   1   5
BRANCH   1  19
ATOM     19  S   UNL     1      33.336 -22.785 -18.355  0.00  0.00    +0.061 S 
ATOM     20  O   UNL     1      33.647 -23.820 -19.322  0.00  0.00    -0.153 OA
ATOM     21  O   UNL     1      32.018 -22.722 -17.752  0.00  0.00    -0.153 OA
BRANCH  19  23
ATOM     22 CL   UNL     1      38.026 -23.920 -11.399  0.00  0.00    -0.082 Cl
ATOM     23  C   UNL     1      34.502 -22.905 -17.033  0.00  0.00    +0.122 C 
ATOM     24  C   UNL     1      34.120 -23.510 -15.848  0.00  0.00    +0.020 C 
ATOM     25  C   UNL     1      35.772 -22.391 -17.206  0.00  0.00    +0.020 C 
ATOM     26  C   UNL     1      35.036 -23.613 -14.788  0.00  0.00    +0.001 C 
ATOM     27  C   UNL     1      36.342 -23.094 -14.948  0.00  0.00    +0.001 C 
ATOM     28  C   UNL     1      36.695 -22.486 -16.165  0.00  0.00    +0.001 C 
ATOM     29  C   UNL     1      34.683 -24.222 -13.572  0.00  0.00    +0.001 C 
ATOM     30  C   UNL     1      37.257 -23.196 -13.888  0.00  0.00    +0.011 C 
ATOM     31  C   UNL     1      35.606 -24.316 -12.529  0.00  0.00    +0.011 C 
ATOM     32  C   UNL     1      36.890 -23.803 -12.687  0.00  0.00    +0.058 C 
ENDBRANCH  19  23
ENDBRANCH   1  19
TORSDOF 5
ENDMDL
MODEL 4
REMARK VINA RESULT:     -11.2      3.916     10.200
REMARK  Name = 6852168
REMARK  5 active torsions:
REMARK  status: ('A' for Active; 'I' for Inactive)
REMARK    1  A    between atoms: N_1  and  C_5
REMARK    2  A    between atoms: N_1  and  S_19
REMARK    3  A    between atoms: N_4  and  C_9
REMARK    4  A    between atoms: C_9  and  C_14
REMARK    5  A    between atoms: S_19  and  C_23
REMARK                            x       y       z     vdW  Elec       q    Type
REMARK                         _______ _______ _______ _____ _____    ______ ____
ROOT
ATOM      1  N   UNL     1      33.267 -14.691 -22.749  0.00  0.00    -0.172 NA
ATOM      2  H   UNL     1      32.732 -15.521 -23.001  0.00  0.00    +0.149 HD
ENDROOT
BRANCH   1   5
ATOM      3  O   UNL     1      35.152 -16.731 -23.972  0.00  0.00    -0.273 OA
ATOM      4  N   UNL     1      34.504 -17.464 -21.832  0.00  0.00    -0.272 N 
ATOM      5  C   UNL     1      34.560 -15.162 -22.222  0.00  0.00    +0.153 C 
ATOM      6  C   UNL     1      34.486 -15.421 -20.722  0.00  0.00    +0.048 C 
ATOM      7  C   UNL     1      34.019 -16.861 -20.612  0.00  0.00    +0.096 C 
ATOM      8  C   UNL     1      34.803 -16.526 -22.818  0.00  0.00    +0.242 C 
BRANCH   4   9
ATOM      9  C   UNL     1      34.507 -18.899 -22.016  0.00  0.00    +0.152 C 
ATOM     10  C   UNL     1      34.567 -19.293 -23.474  0.00  0.00    +0.031 C 
BRANCH   9  14
ATOM     11  O   UNL     1      35.250 -22.382 -18.437  0.00  0.00    -0.350 OA
ATOM     12  O   UNL     1      36.785 -18.717 -21.382  0.00  0.00    -0.273 OA
ATOM     13  N   UNL     1      35.611 -20.530 -20.530  0.00  0.00    -0.273 N 
ATOM     14  C   UNL     1      35.740 -19.368 -21.286  0.00  0.00    +0.244 C 
ATOM     15  C   UNL     1      34.427 -21.395 -20.496  0.00  0.00    +0.126 C 
ATOM     16  C   UNL     1      36.758 -21.053 -19.786  0.00  0.00    +0.126 C 
ATOM     17  C   UNL     1      34.106 -21.792 -19.060  0.00  0.00    +0.164 C 
ATOM     18  C   UNL     1      36.338 -21.457 -18.380  0.00  0.00    +0.164 C 
ENDBRANCH   9  14
ENDBRANCH   4   9
ENDBRANCH   1   5
BRANCH   1  19
ATOM     19  S   UNL     1      33.222 -13.651 -24.098  0.00  0.00    +0.061 S 
ATOM     20  O   UNL     1      32.119 -14.032 -24.959  0.00  0.00    -0.153 OA
ATOM     21  O   UNL     1      34.561 -13.523 -24.641  0.00  0.00    -0.153 OA
BRANCH  19  23
ATOM     22 CL   UNL     1      32.091  -5.742 -21.299  0.00  0.00    -0.082 Cl
ATOM     23  C   UNL     1      32.820 -12.103 -23.348  0.00  0.00    +0.122 C 
ATOM     24  C   UNL     1      33.433 -10.950 -23.807  0.00  0.00    +0.020 C 
ATOM     25  C   UNL     1      31.902 -12.072 -22.316  0.00  0.00    +0.020 C 
ATOM     26  C   UNL     1      33.123  -9.711 -23.222  0.00  0.00    +0.001 C 
ATOM     27  C   UNL     1      32.184  -9.661 -22.164  0.00  0.00    +0.001 C 
ATOM     28  C   UNL     1      31.582 -10.851 -21.724  0.00  0.00    +0.001 C 
ATOM     29  C   UNL     1      33.725  -8.522 -23.663  0.00  0.00    +0.001 C 
ATOM     30  C   UNL     1      31.875  -8.423 -21.578  0.00  0.00    +0.011 C 
ATOM     31  C   UNL     1      33.406  -7.300 -23.070  0.00  0.00    +0.011 C 
ATOM     32  C   UNL     1      32.483  -7.251 -22.029  0.00  0.00    +0.058 C 
ENDBRANCH  19  23
ENDBRANCH   1  19
TORSDOF 5
ENDMDL
MODEL 5
REMARK VINA RESULT:     -11.2      7.075     12.106
REMARK  Name = 6852168
REMARK  5 active torsions:
REMARK  status: ('A' for Active; 'I' for Inactive)
REMARK    1  A    between atoms: N_1  and  C_5
REMARK    2  A    between atoms: N_1  and  S_19
REMARK    3  A    between atoms: N_4  and  C_9
REMARK    4  A    between atoms: C_9  and  C_14
REMARK    5  A    between atoms: S_19  and  C_23
REMARK                            x       y       z     vdW  Elec       q    Type
REMARK                         _______ _______ _______ _____ _____    ______ ____
ROOT
ATOM      1  N   UNL     1      35.241 -22.897 -17.464  0.00  0.00    -0.172 NA
ATOM      2  H   UNL     1      35.716 -22.057 -17.796  0.00  0.00    +0.149 HD
ENDROOT
BRANCH   1   5
ATOM      3  O   UNL     1      37.564 -23.534 -15.617  0.00  0.00    -0.273 OA
ATOM      4  N   UNL     1      35.756 -24.949 -15.101  0.00  0.00    -0.272 N 
ATOM      5  C   UNL     1      35.270 -22.846 -15.992  0.00  0.00    +0.153 C 
ATOM      6  C   UNL     1      34.004 -23.448 -15.391  0.00  0.00    +0.048 C 
ATOM      7  C   UNL     1      34.320 -24.926 -15.256  0.00  0.00    +0.096 C 
ATOM      8  C   UNL     1      36.368 -23.778 -15.544  0.00  0.00    +0.242 C 
BRANCH   4   9
ATOM      9  C   UNL     1      36.451 -26.145 -14.677  0.00  0.00    +0.152 C 
ATOM     10  C   UNL     1      36.835 -27.031 -15.839  0.00  0.00    +0.031 C 
BRANCH   9  14
ATOM     11  O   UNL     1      37.095 -22.977 -10.798  0.00  0.00    -0.350 OA
ATOM     12  O   UNL     1      38.791 -25.828 -14.467  0.00  0.00    -0.273 OA
ATOM     13  N   UNL     1      37.469 -24.956 -12.769  0.00  0.00    -0.273 N 
ATOM     14  C   UNL     1      37.679 -25.634 -13.968  0.00  0.00    +0.244 C 
ATOM     15  C   UNL     1      36.178 -24.819 -12.085  0.00  0.00    +0.126 C 
ATOM     16  C   UNL     1      38.606 -24.423 -12.019  0.00  0.00    +0.126 C 
ATOM     17  C   UNL     1      35.987 -23.386 -11.604  0.00  0.00    +0.164 C 
ATOM     18  C   UNL     1      38.312 -23.006 -11.548  0.00  0.00    +0.164 C 
ENDBRANCH   9  14
ENDBRANCH   4   9
ENDBRANCH   1   5
BRANCH   1  19
ATOM     19  S   UNL     1      33.753 -22.977 -18.287  0.00  0.00    +0.061 S 
ATOM     20  O   UNL     1      32.673 -22.756 -17.345  0.00  0.00    -0.153 OA
ATOM     21  O   UNL     1      33.746 -24.150 -19.141  0.00  0.00    -0.153 OA
BRANCH  19  23
ATOM     22 CL   UNL     1      35.430 -16.370 -23.307  0.00  0.00    -0.082 Cl
ATOM     23  C   UNL     1      33.849 -21.568 -19.348  0.00  0.00    +0.122 C 
ATOM     24  C   UNL     1      35.091 -21.104 -19.744  0.00  0.00    +0.020 C 
ATOM     25  C   UNL     1      32.682 -20.954 -19.761  0.00  0.00    +0.020 C 
ATOM     26  C   UNL     1      35.184 -19.984 -20.588  0.00  0.00    +0.001 C 
ATOM     27  C   UNL     1      34.000 -19.344 -21.022  0.00  0.00    +0.001 C 
ATOM     28  C   UNL     1      32.756 -19.842 -20.599  0.00  0.00    +0.001 C 
ATOM     29  C   UNL     1      36.428 -19.487 -21.010  0.00  0.00    +0.001 C 
ATOM     30  C   UNL     1      34.093 -18.225 -21.864  0.00  0.00    +0.011 C 
ATOM     31  C   UNL     1      36.502 -18.374 -21.848  0.00  0.00    +0.011 C 
ATOM     32  C   UNL     1      35.336 -17.743 -22.274  0.00  0.00    +0.058 C 
ENDBRANCH  19  23
ENDBRANCH   1  19
TORSDOF 5
ENDMDL
MODEL 6
REMARK VINA RESULT:     -10.8      7.225     12.430
REMARK  Name = 6852168
REMARK  5 active torsions:
REMARK  status: ('A' for Active; 'I' for Inactive)
REMARK    1  A    between atoms: N_1  and  C_5
REMARK    2  A    between atoms: N_1  and  S_19
REMARK    3  A    between atoms: N_4  and  C_9
REMARK    4  A    between atoms: C_9  and  C_14
REMARK    5  A    between atoms: S_19  and  C_23
REMARK                            x       y       z     vdW  Elec       q    Type
REMARK                         _______ _______ _______ _____ _____    ______ ____
ROOT
ATOM      1  N   UNL     1      34.724 -23.542 -16.927  0.00  0.00    -0.172 NA
ATOM      2  H   UNL     1      35.640 -23.358 -17.336  0.00  0.00    +0.149 HD
ENDROOT
BRANCH   1   5
ATOM      3  O   UNL     1      36.980 -22.572 -15.143  0.00  0.00    -0.273 OA
ATOM      4  N   UNL     1      35.480 -23.856 -13.862  0.00  0.00    -0.272 N 
ATOM      5  C   UNL     1      34.628 -22.713 -15.712  0.00  0.00    +0.153 C 
ATOM      6  C   UNL     1      33.477 -23.166 -14.821  0.00  0.00    +0.048 C 
ATOM      7  C   UNL     1      34.088 -24.235 -13.934  0.00  0.00    +0.096 C 
ATOM      8  C   UNL     1      35.861 -22.997 -14.892  0.00  0.00    +0.242 C 
BRANCH   4   9
ATOM      9  C   UNL     1      36.379 -24.458 -12.901  0.00  0.00    +0.152 C 
ATOM     10  C   UNL     1      35.659 -24.936 -11.661  0.00  0.00    +0.031 C 
BRANCH   9  14
ATOM     11  O   UNL     1      41.081 -25.398 -14.480  0.00  0.00    -0.350 OA
ATOM     12  O   UNL     1      36.263 -26.465 -14.158  0.00  0.00    -0.273 OA
ATOM     13  N   UNL     1      38.388 -25.652 -13.694  0.00  0.00    -0.273 N 
ATOM     14  C   UNL     1      36.996 -25.618 -13.640  0.00  0.00    +0.244 C 
ATOM     15  C   UNL     1      39.288 -24.736 -12.985  0.00  0.00    +0.126 C 
ATOM     16  C   UNL     1      39.068 -26.740 -14.396  0.00  0.00    +0.126 C 
ATOM     17  C   UNL     1      40.405 -24.273 -13.913  0.00  0.00    +0.164 C 
ATOM     18  C   UNL     1      40.189 -26.190 -15.267  0.00  0.00    +0.164 C 
ENDBRANCH   9  14
ENDBRANCH   4   9
ENDBRANCH   1   5
BRANCH   1  19
ATOM     19  S   UNL     1      33.583 -23.359 -18.177  0.00  0.00    +0.061 S 
ATOM     20  O   UNL     1      32.325 -22.905 -17.614  0.00  0.00    -0.153 OA
ATOM     21  O   UNL     1      33.618 -24.534 -19.027  0.00  0.00    -0.153 OA
BRANCH  19  23
ATOM     22 CL   UNL     1      35.745 -16.672 -22.898  0.00  0.00    -0.082 Cl
ATOM     23  C   UNL     1      34.276 -22.027 -19.109  0.00  0.00    +0.122 C 
ATOM     24  C   UNL     1      33.430 -21.149 -19.765  0.00  0.00    +0.020 C 
ATOM     25  C   UNL     1      35.649 -21.889 -19.167  0.00  0.00    +0.020 C 
ATOM     26  C   UNL     1      33.966 -20.086 -20.509  0.00  0.00    +0.001 C 
ATOM     27  C   UNL     1      35.371 -19.928 -20.579  0.00  0.00    +0.001 C 
ATOM     28  C   UNL     1      36.198 -20.839 -19.901  0.00  0.00    +0.001 C 
ATOM     29  C   UNL     1      33.139 -19.175 -21.186  0.00  0.00    +0.001 C 
ATOM     30  C   UNL     1      35.907 -18.865 -21.324  0.00  0.00    +0.011 C 
ATOM     31  C   UNL     1      33.688 -18.124 -21.921  0.00  0.00    +0.011 C 
ATOM     32  C   UNL     1      35.070 -17.970 -21.990  0.00  0.00    +0.058 C 
ENDBRANCH  19  23
ENDBRANCH   1  19
TORSDOF 5
ENDMDL
MODEL 7
REMARK VINA RESULT:     -10.7      5.604     11.466
REMARK  Name = 6852168
REMARK  5 active torsions:
REMARK  status: ('A' for Active; 'I' for Inactive)
REMARK    1  A    between atoms: N_1  and  C_5
REMARK    2  A    between atoms: N_1  and  S_19
REMARK    3  A    between atoms: N_4  and  C_9
REMARK    4  A    between atoms: C_9  and  C_14
REMARK    5  A    between atoms: S_19  and  C_23
REMARK                            x       y       z     vdW  Elec       q    Type
REMARK                         _______ _______ _______ _____ _____    ______ ____
ROOT
ATOM      1  N   UNL     1      35.141 -20.789 -18.911  0.00  0.00    -0.172 NA
ATOM      2  H   UNL     1      34.742 -20.423 -18.047  0.00  0.00    +0.149 HD
ENDROOT
BRANCH   1   5
ATOM      3  O   UNL     1      33.970 -23.430 -17.979  0.00  0.00    -0.273 OA
ATOM      4  N   UNL     1      35.444 -22.615 -16.335  0.00  0.00    -0.272 N 
ATOM      5  C   UNL     1      35.860 -22.026 -18.556  0.00  0.00    +0.153 C 
ATOM      6  C   UNL     1      37.094 -21.727 -17.712  0.00  0.00    +0.048 C 
ATOM      7  C   UNL     1      36.579 -21.724 -16.284  0.00  0.00    +0.096 C 
ATOM      8  C   UNL     1      34.960 -22.803 -17.628  0.00  0.00    +0.242 C 
BRANCH   4   9
ATOM      9  C   UNL     1      34.815 -23.107 -15.128  0.00  0.00    +0.152 C 
ATOM     10  C   UNL     1      33.343 -23.390 -15.320  0.00  0.00    +0.031 C 
BRANCH   9  14
ATOM     11  O   UNL     1      37.890 -24.393 -11.335  0.00  0.00    -0.350 OA
ATOM     12  O   UNL     1      35.649 -25.262 -15.657  0.00  0.00    -0.273 OA
ATOM     13  N   UNL     1      36.129 -24.457 -13.534  0.00  0.00    -0.273 N 
ATOM     14  C   UNL     1      35.564 -24.375 -14.804  0.00  0.00    +0.244 C 
ATOM     15  C   UNL     1      35.941 -23.480 -12.455  0.00  0.00    +0.126 C 
ATOM     16  C   UNL     1      36.876 -25.651 -13.139  0.00  0.00    +0.126 C 
ATOM     17  C   UNL     1      37.272 -23.182 -11.777  0.00  0.00    +0.164 C 
ATOM     18  C   UNL     1      38.169 -25.259 -12.438  0.00  0.00    +0.164 C 
ENDBRANCH   9  14
ENDBRANCH   4   9
ENDBRANCH   1   5
BRANCH   1  19
ATOM     19  S   UNL     1      33.878 -20.833 -20.053  0.00  0.00    +0.061 S 
ATOM     20  O   UNL     1      32.606 -20.737 -19.364  0.00  0.00    -0.153 OA
ATOM     21  O   UNL     1      34.122 -21.918 -20.986  0.00  0.00    -0.153 OA
BRANCH  19  23
ATOM     22 CL   UNL     1      34.183 -13.162 -23.621  0.00  0.00    -0.082 Cl
ATOM     23  C   UNL     1      34.136 -19.325 -20.936  0.00  0.00    +0.122 C 
ATOM     24  C   UNL     1      33.328 -18.235 -20.663  0.00  0.00    +0.020 C 
ATOM     25  C   UNL     1      35.139 -19.263 -21.885  0.00  0.00    +0.020 C 
ATOM     26  C   UNL     1      33.521 -17.029 -21.356  0.00  0.00    +0.001 C 
ATOM     27  C   UNL     1      34.544 -16.946 -22.330  0.00  0.00    +0.001 C 
ATOM     28  C   UNL     1      35.344 -18.073 -22.582  0.00  0.00    +0.001 C 
ATOM     29  C   UNL     1      32.721 -15.903 -21.103  0.00  0.00    +0.001 C 
ATOM     30  C   UNL     1      34.736 -15.741 -23.024  0.00  0.00    +0.011 C 
ATOM     31  C   UNL     1      32.926 -14.712 -21.802  0.00  0.00    +0.011 C 
ATOM     32  C   UNL     1      33.931 -14.632 -22.761  0.00  0.00    +0.058 C 
ENDBRANCH  19  23
ENDBRANCH   1  19
TORSDOF 5
ENDMDL
MODEL 8
REMARK VINA RESULT:     -10.7      3.424      5.511
REMARK  Name = 6852168
REMARK  5 active torsions:
REMARK  status: ('A' for Active; 'I' for Inactive)
REMARK    1  A    between atoms: N_1  and  C_5
REMARK    2  A    between atoms: N_1  and  S_19
REMARK    3  A    between atoms: N_4  and  C_9
REMARK    4  A    between atoms: C_9  and  C_14
REMARK    5  A    between atoms: S_19  and  C_23
REMARK                            x       y       z     vdW  Elec       q    Type
REMARK                         _______ _______ _______ _____ _____    ______ ____
ROOT
ATOM      1  N   UNL     1      32.967 -11.926 -22.420  0.00  0.00    -0.172 NA
ATOM      2  H   UNL     1      33.578 -11.138 -22.632  0.00  0.00    +0.149 HD
ENDROOT
BRANCH   1   5
ATOM      3  O   UNL     1      31.614  -9.534 -23.707  0.00  0.00    -0.273 OA
ATOM      4  N   UNL     1      31.818  -9.153 -21.393  0.00  0.00    -0.272 N 
ATOM      5  C   UNL     1      31.638 -11.366 -22.120  0.00  0.00    +0.153 C 
ATOM      6  C   UNL     1      31.388 -11.303 -20.617  0.00  0.00    +0.048 C 
ATOM      7  C   UNL     1      31.950  -9.956 -20.200  0.00  0.00    +0.096 C 
ATOM      8  C   UNL     1      31.667  -9.920 -22.548  0.00  0.00    +0.242 C 
BRANCH   4   9
ATOM      9  C   UNL     1      31.992  -7.717 -21.361  0.00  0.00    +0.152 C 
ATOM     10  C   UNL     1      32.458  -7.224 -20.011  0.00  0.00    +0.031 C 
BRANCH   9  14
ATOM     11  O   UNL     1      31.959  -4.889 -25.544  0.00  0.00    -0.350 OA
ATOM     12  O   UNL     1      34.056  -8.130 -22.453  0.00  0.00    -0.273 OA
ATOM     13  N   UNL     1      32.756  -6.408 -23.308  0.00  0.00    -0.273 N 
ATOM     14  C   UNL     1      33.032  -7.442 -22.418  0.00  0.00    +0.244 C 
ATOM     15  C   UNL     1      31.614  -5.491 -23.219  0.00  0.00    +0.126 C 
ATOM     16  C   UNL     1      33.710  -6.077 -24.367  0.00  0.00    +0.126 C 
ATOM     17  C   UNL     1      30.978  -5.306 -24.591  0.00  0.00    +0.164 C 
ATOM     18  C   UNL     1      32.984  -5.875 -25.690  0.00  0.00    +0.164 C 
ENDBRANCH   9  14
ENDBRANCH   4   9
ENDBRANCH   1   5
BRANCH   1  19
ATOM     19  S   UNL     1      33.155 -13.047 -23.688  0.00  0.00    +0.061 S 
ATOM     20  O   UNL     1      34.175 -12.569 -24.602  0.00  0.00    -0.153 OA
ATOM     21  O   UNL     1      31.845 -13.421 -24.188  0.00  0.00    -0.153 OA
BRANCH  19  23
ATOM     22 CL   UNL     1      36.230 -20.345 -20.694  0.00  0.00    -0.082 Cl
ATOM     23  C   UNL     1      33.802 -14.453 -22.835  0.00  0.00    +0.122 C 
ATOM     24  C   UNL     1      34.058 -15.614 -23.544  0.00  0.00    +0.020 C 
ATOM     25  C   UNL     1      34.037 -14.368 -21.477  0.00  0.00    +0.020 C 
ATOM     26  C   UNL     1      34.572 -16.741 -22.881  0.00  0.00    +0.001 C 
ATOM     27  C   UNL     1      34.821 -16.671 -21.489  0.00  0.00    +0.001 C 
ATOM     28  C   UNL     1      34.548 -15.476 -20.802  0.00  0.00    +0.001 C 
ATOM     29  C   UNL     1      34.846 -17.934 -23.568  0.00  0.00    +0.001 C 
ATOM     30  C   UNL     1      35.334 -17.797 -20.826  0.00  0.00    +0.011 C 
ATOM     31  C   UNL     1      35.356 -19.044 -22.893  0.00  0.00    +0.011 C 
ATOM     32  C   UNL     1      35.600 -18.975 -21.525  0.00  0.00    +0.058 C 
ENDBRANCH  19  23
ENDBRANCH   1  19
TORSDOF 5
ENDMDL
MODEL 9
REMARK VINA RESULT:     -10.5      3.244      5.624
REMARK  Name = 6852168
REMARK  5 active torsions:
REMARK  status: ('A' for Active; 'I' for Inactive)
REMARK    1  A    between atoms: N_1  and  C_5
REMARK    2  A    between atoms: N_1  and  S_19
REMARK    3  A    between atoms: N_4  and  C_9
REMARK    4  A    between atoms: C_9  and  C_14
REMARK    5  A    between atoms: S_19  and  C_23
REMARK                            x       y       z     vdW  Elec       q    Type
REMARK                         _______ _______ _______ _____ _____    ______ ____
ROOT
ATOM      1  N   UNL     1      33.734 -21.039 -19.334  0.00  0.00    -0.172 NA
ATOM      2  H   UNL     1      34.269 -20.270 -18.930  0.00  0.00    +0.149 HD
ENDROOT
BRANCH   1   5
ATOM      3  O   UNL     1      35.780 -20.627 -21.538  0.00  0.00    -0.273 OA
ATOM      4  N   UNL     1      34.511 -18.662 -21.285  0.00  0.00    -0.272 N 
ATOM      5  C   UNL     1      33.490 -20.692 -20.745  0.00  0.00    +0.153 C 
ATOM      6  C   UNL     1      32.427 -19.607 -20.873  0.00  0.00    +0.048 C 
ATOM      7  C   UNL     1      33.205 -18.307 -20.782  0.00  0.00    +0.096 C 
ATOM      8  C   UNL     1      34.748 -20.035 -21.256  0.00  0.00    +0.242 C 
BRANCH   4   9
ATOM      9  C   UNL     1      35.492 -17.652 -21.619  0.00  0.00    +0.152 C 
ATOM     10  C   UNL     1      36.816 -18.250 -22.035  0.00  0.00    +0.031 C 
BRANCH   9  14
ATOM     11  O   UNL     1      32.740 -13.423 -21.816  0.00  0.00    -0.350 OA
ATOM     12  O   UNL     1      34.815 -17.410 -23.879  0.00  0.00    -0.273 OA
ATOM     13  N   UNL     1      34.382 -15.618 -22.468  0.00  0.00    -0.273 N 
ATOM     14  C   UNL     1      34.870 -16.889 -22.762  0.00  0.00    +0.244 C 
ATOM     15  C   UNL     1      34.544 -14.919 -21.188  0.00  0.00    +0.126 C 
ATOM     16  C   UNL     1      33.759 -14.811 -23.518  0.00  0.00    +0.126 C 
ATOM     17  C   UNL     1      33.230 -14.270 -20.773  0.00  0.00    +0.164 C 
ATOM     18  C   UNL     1      32.476 -14.173 -23.004  0.00  0.00    +0.164 C 
ENDBRANCH   9  14
ENDBRANCH   4   9
ENDBRANCH   1   5
BRANCH   1  19
ATOM     19  S   UNL     1      34.563 -22.473 -18.938  0.00  0.00    +0.061 S 
ATOM     20  O   UNL     1      35.963 -22.169 -18.710  0.00  0.00    -0.153 OA
ATOM     21  O   UNL     1      34.187 -23.512 -19.878  0.00  0.00    -0.153 OA
BRANCH  19  23
ATOM     22 CL   UNL     1      29.999 -24.368 -12.065  0.00  0.00    -0.082 Cl
ATOM     23  C   UNL     1      33.835 -22.895 -17.385  0.00  0.00    +0.122 C 
ATOM     24  C   UNL     1      32.456 -22.952 -17.277  0.00  0.00    +0.020 C 
ATOM     25  C   UNL     1      34.656 -23.158 -16.305  0.00  0.00    +0.020 C 
ATOM     26  C   UNL     1      31.863 -23.286 -16.049  0.00  0.00    +0.001 C 
ATOM     27  C   UNL     1      32.688 -23.560 -14.933  0.00  0.00    +0.001 C 
ATOM     28  C   UNL     1      34.084 -23.492 -15.078  0.00  0.00    +0.001 C 
ATOM     29  C   UNL     1      30.468 -23.355 -15.905  0.00  0.00    +0.001 C 
ATOM     30  C   UNL     1      32.095 -23.893 -13.705  0.00  0.00    +0.011 C 
ATOM     31  C   UNL     1      29.895 -23.689 -14.676  0.00  0.00    +0.011 C 
ATOM     32  C   UNL     1      30.707 -23.957 -13.579  0.00  0.00    +0.058 C 
ENDBRANCH  19  23
ENDBRANCH   1  19
TORSDOF 5
ENDMDL
