MODEL 1
REMARK VINA RESULT:      -9.7      0.000      0.000
REMARK  Name = 447652
REMARK  1 active torsions:
REMARK  status: ('A' for Active; 'I' for Inactive)
REMARK    1  A    between atoms: C_5  and  C_14
REMARK                            x       y       z     vdW  Elec       q    Type
REMARK                         _______ _______ _______ _____ _____    ______ ____
ROOT
ATOM      1  O   UNL     1      34.825 -15.162 -21.230  0.00  0.00    -0.274 OA
ATOM      2  N   UNL     1      33.930 -14.171 -23.663  0.00  0.00    -0.340 NA
ATOM      3  N   UNL     1      33.658 -15.882 -25.337  0.00  0.00    -0.170 NA
ATOM      4  N   UNL     1      34.401 -16.410 -23.183  0.00  0.00    -0.218 N 
ATOM      5  C   UNL     1      33.520 -13.271 -24.579  0.00  0.00    +0.148 C 
ATOM      6  C   UNL     1      33.167 -13.588 -25.871  0.00  0.00    +0.052 C 
ATOM      7  C   UNL     1      33.975 -15.442 -24.105  0.00  0.00    +0.150 C 
ATOM      8  C   UNL     1      33.256 -14.925 -26.198  0.00  0.00    +0.114 C 
ATOM      9  C   UNL     1      34.784 -16.218 -21.854  0.00  0.00    +0.235 C 
ATOM     10  C   UNL     1      35.170 -17.520 -21.197  0.00  0.00    +0.096 C 
ATOM     11  H   UNL     1      34.433 -17.337 -23.512  0.00  0.00    +0.167 HD
ENDROOT
BRANCH   5  14
ATOM     12  N   UNL     1      32.703 -11.473 -23.055  0.00  0.00    -0.251 N 
ATOM     13  N   UNL     1      33.810  -9.683 -23.812  0.00  0.00    -0.393 NA
ATOM     14  C   UNL     1      33.474 -11.908 -24.102  0.00  0.00    +0.181 C 
ATOM     15  C   UNL     1      32.943 -10.108 -22.917  0.00  0.00    +0.187 C 
ATOM     16  C   UNL     1      34.142 -10.792 -24.549  0.00  0.00    +0.114 C 
ATOM     17  C   UNL     1      31.830 -12.188 -22.241  0.00  0.00    +0.068 C 
ATOM     18  C   UNL     1      32.241  -9.430 -21.877  0.00  0.00    +0.048 C 
ATOM     19  C   UNL     1      35.107 -10.679 -25.655  0.00  0.00    +0.064 C 
ATOM     20  C   UNL     1      31.173 -11.542 -21.264  0.00  0.00    +0.016 C 
ATOM     21  C   UNL     1      31.395 -10.116 -21.086  0.00  0.00    +0.005 C 
ENDBRANCH   5  14
TORSDOF 1
ENDMDL
MODEL 2
REMARK VINA RESULT:      -9.5      3.737      6.471
REMARK  Name = 447652
REMARK  1 active torsions:
REMARK  status: ('A' for Active; 'I' for Inactive)
REMARK    1  A    between atoms: C_5  and  C_14
REMARK                            x       y       z     vdW  Elec       q    Type
REMARK                         _______ _______ _______ _____ _____    ______ ____
ROOT
ATOM      1  O   UNL     1      32.487 -20.576 -20.710  0.00  0.00    -0.274 OA
ATOM      2  N   UNL     1      34.816 -19.369 -21.617  0.00  0.00    -0.340 NA
ATOM      3  N   UNL     1      36.734 -19.871 -20.249  0.00  0.00    -0.170 NA
ATOM      4  N   UNL     1      34.626 -20.745 -19.736  0.00  0.00    -0.218 N 
ATOM      5  C   UNL     1      35.622 -18.620 -22.395  0.00  0.00    +0.148 C 
ATOM      6  C   UNL     1      36.970 -18.448 -22.174  0.00  0.00    +0.052 C 
ATOM      7  C   UNL     1      35.431 -19.958 -20.574  0.00  0.00    +0.150 C 
ATOM      8  C   UNL     1      37.478 -19.105 -21.073  0.00  0.00    +0.114 C 
ATOM      9  C   UNL     1      33.257 -20.995 -19.852  0.00  0.00    +0.235 C 
ATOM     10  C   UNL     1      32.766 -21.900 -18.748  0.00  0.00    +0.096 C 
ATOM     11  H   UNL     1      35.080 -21.172 -18.975  0.00  0.00    +0.167 HD
ENDROOT
BRANCH   5  14
ATOM     12  N   UNL     1      34.588 -16.668 -23.555  0.00  0.00    -0.251 N 
ATOM     13  N   UNL     1      33.966 -17.564 -25.508  0.00  0.00    -0.393 NA
ATOM     14  C   UNL     1      34.960 -17.988 -23.513  0.00  0.00    +0.181 C 
ATOM     15  C   UNL     1      33.987 -16.458 -24.793  0.00  0.00    +0.187 C 
ATOM     16  C   UNL     1      34.567 -18.514 -24.721  0.00  0.00    +0.114 C 
ATOM     17  C   UNL     1      34.747 -15.672 -22.596  0.00  0.00    +0.068 C 
ATOM     18  C   UNL     1      33.513 -15.141 -25.067  0.00  0.00    +0.048 C 
ATOM     19  C   UNL     1      34.717 -19.892 -25.216  0.00  0.00    +0.064 C 
ATOM     20  C   UNL     1      34.299 -14.434 -22.862  0.00  0.00    +0.016 C 
ATOM     21  C   UNL     1      33.663 -14.173 -24.143  0.00  0.00    +0.005 C 
ENDBRANCH   5  14
TORSDOF 1
ENDMDL
MODEL 3
REMARK VINA RESULT:      -9.4      1.935      5.967
REMARK  Name = 447652
REMARK  1 active torsions:
REMARK  status: ('A' for Active; 'I' for Inactive)
REMARK    1  A    between atoms: C_5  and  C_14
REMARK                            x       y       z     vdW  Elec       q    Type
REMARK                         _______ _______ _______ _____ _____    ______ ____
ROOT
ATOM      1  O   UNL     1      35.109 -10.328 -25.169  0.00  0.00    -0.274 OA
ATOM      2  N   UNL     1      33.508 -12.156 -23.827  0.00  0.00    -0.340 NA
ATOM      3  N   UNL     1      32.188 -11.150 -22.081  0.00  0.00    -0.170 NA
ATOM      4  N   UNL     1      33.638  -9.863 -23.388  0.00  0.00    -0.218 N 
ATOM      5  C   UNL     1      32.955 -13.341 -23.503  0.00  0.00    +0.148 C 
ATOM      6  C   UNL     1      32.029 -13.514 -22.499  0.00  0.00    +0.052 C 
ATOM      7  C   UNL     1      33.084 -11.116 -23.085  0.00  0.00    +0.150 C 
ATOM      8  C   UNL     1      31.678 -12.370 -21.813  0.00  0.00    +0.114 C 
ATOM      9  C   UNL     1      34.579  -9.558 -24.374  0.00  0.00    +0.235 C 
ATOM     10  C   UNL     1      34.914  -8.087 -24.382  0.00  0.00    +0.096 C 
ATOM     11  H   UNL     1      33.325  -9.106 -22.841  0.00  0.00    +0.167 HD
ENDROOT
BRANCH   5  14
ATOM     12  N   UNL     1      34.062 -15.556 -23.804  0.00  0.00    -0.251 N 
ATOM     13  N   UNL     1      33.885 -15.869 -26.011  0.00  0.00    -0.393 NA
ATOM     14  C   UNL     1      33.413 -14.455 -24.300  0.00  0.00    +0.181 C 
ATOM     15  C   UNL     1      34.328 -16.390 -24.887  0.00  0.00    +0.187 C 
ATOM     16  C   UNL     1      33.317 -14.671 -25.655  0.00  0.00    +0.114 C 
ATOM     17  C   UNL     1      34.418 -15.858 -22.492  0.00  0.00    +0.068 C 
ATOM     18  C   UNL     1      35.007 -17.613 -24.609  0.00  0.00    +0.048 C 
ATOM     19  C   UNL     1      32.711 -13.809 -26.683  0.00  0.00    +0.064 C 
ATOM     20  C   UNL     1      35.057 -17.012 -22.240  0.00  0.00    +0.016 C 
ATOM     21  C   UNL     1      35.356 -17.911 -23.342  0.00  0.00    +0.005 C 
ENDBRANCH   5  14
TORSDOF 1
ENDMDL
MODEL 4
REMARK VINA RESULT:      -9.3      1.709      3.199
REMARK  Name = 447652
REMARK  1 active torsions:
REMARK  status: ('A' for Active; 'I' for Inactive)
REMARK    1  A    between atoms: C_5  and  C_14
REMARK                            x       y       z     vdW  Elec       q    Type
REMARK                         _______ _______ _______ _____ _____    ______ ____
ROOT
ATOM      1  O   UNL     1      35.425 -17.409 -20.486  0.00  0.00    -0.274 OA
ATOM      2  N   UNL     1      34.435 -16.293 -22.827  0.00  0.00    -0.340 NA
ATOM      3  N   UNL     1      34.966 -17.589 -24.787  0.00  0.00    -0.170 NA
ATOM      4  N   UNL     1      35.666 -18.275 -22.663  0.00  0.00    -0.218 N 
ATOM      5  C   UNL     1      33.798 -15.419 -23.631  0.00  0.00    +0.148 C 
ATOM      6  C   UNL     1      33.700 -15.554 -24.997  0.00  0.00    +0.052 C 
ATOM      7  C   UNL     1      34.989 -17.342 -23.464  0.00  0.00    +0.150 C 
ATOM      8  C   UNL     1      34.310 -16.671 -25.528  0.00  0.00    +0.114 C 
ATOM      9  C   UNL     1      35.835 -18.251 -21.278  0.00  0.00    +0.235 C 
ATOM     10  C   UNL     1      36.622 -19.445 -20.798  0.00  0.00    +0.096 C 
ATOM     11  H   UNL     1      36.070 -19.038 -23.135  0.00  0.00    +0.167 HD
ENDROOT
BRANCH   5  14
ATOM     12  N   UNL     1      33.247 -12.998 -23.389  0.00  0.00    -0.251 N 
ATOM     13  N   UNL     1      32.111 -12.969 -21.463  0.00  0.00    -0.393 NA
ATOM     14  C   UNL     1      33.205 -14.294 -22.944  0.00  0.00    +0.181 C 
ATOM     15  C   UNL     1      32.565 -12.227 -22.451  0.00  0.00    +0.187 C 
ATOM     16  C   UNL     1      32.504 -14.249 -21.762  0.00  0.00    +0.114 C 
ATOM     17  C   UNL     1      33.832 -12.475 -24.539  0.00  0.00    +0.068 C 
ATOM     18  C   UNL     1      32.478 -10.827 -22.706  0.00  0.00    +0.048 C 
ATOM     19  C   UNL     1      32.159 -15.356 -20.855  0.00  0.00    +0.064 C 
ATOM     20  C   UNL     1      33.745 -11.155 -24.772  0.00  0.00    +0.016 C 
ATOM     21  C   UNL     1      33.042 -10.314 -23.816  0.00  0.00    +0.005 C 
ENDBRANCH   5  14
TORSDOF 1
ENDMDL
MODEL 5
REMARK VINA RESULT:      -9.3      3.128      7.439
REMARK  Name = 447652
REMARK  1 active torsions:
REMARK  status: ('A' for Active; 'I' for Inactive)
REMARK    1  A    between atoms: C_5  and  C_14
REMARK                            x       y       z     vdW  Elec       q    Type
REMARK                         _______ _______ _______ _____ _____    ______ ____
ROOT
ATOM      1  O   UNL     1      33.343 -15.130 -20.245  0.00  0.00    -0.274 OA
ATOM      2  N   UNL     1      34.334 -16.810 -22.221  0.00  0.00    -0.340 NA
ATOM      3  N   UNL     1      33.954 -15.973 -24.448  0.00  0.00    -0.170 NA
ATOM      4  N   UNL     1      33.230 -14.778 -22.572  0.00  0.00    -0.218 N 
ATOM      5  C   UNL     1      34.938 -17.880 -22.772  0.00  0.00    +0.148 C 
ATOM      6  C   UNL     1      35.090 -18.070 -24.127  0.00  0.00    +0.052 C 
ATOM      7  C   UNL     1      33.870 -15.907 -23.106  0.00  0.00    +0.150 C 
ATOM      8  C   UNL     1      34.572 -17.073 -24.927  0.00  0.00    +0.114 C 
ATOM      9  C   UNL     1      33.015 -14.471 -21.227  0.00  0.00    +0.235 C 
ATOM     10  C   UNL     1      32.292 -13.157 -21.070  0.00  0.00    +0.096 C 
ATOM     11  H   UNL     1      32.893 -14.123 -23.224  0.00  0.00    +0.167 HD
ENDROOT
BRANCH   5  14
ATOM     12  N   UNL     1      34.643 -19.669 -21.060  0.00  0.00    -0.251 N 
ATOM     13  N   UNL     1      36.759 -20.146 -20.515  0.00  0.00    -0.393 NA
ATOM     14  C   UNL     1      35.434 -18.847 -21.820  0.00  0.00    +0.181 C 
ATOM     15  C   UNL     1      35.498 -20.444 -20.280  0.00  0.00    +0.187 C 
ATOM     16  C   UNL     1      36.726 -19.159 -21.467  0.00  0.00    +0.114 C 
ATOM     17  C   UNL     1      33.255 -19.772 -21.017  0.00  0.00    +0.068 C 
ATOM     18  C   UNL     1      34.892 -21.385 -19.396  0.00  0.00    +0.048 C 
ATOM     19  C   UNL     1      37.982 -18.582 -21.974  0.00  0.00    +0.064 C 
ATOM     20  C   UNL     1      32.693 -20.662 -20.183  0.00  0.00    +0.016 C 
ATOM     21  C   UNL     1      33.550 -21.490 -19.350  0.00  0.00    +0.005 C 
ENDBRANCH   5  14
TORSDOF 1
ENDMDL
MODEL 6
REMARK VINA RESULT:      -9.1      2.715      4.807
REMARK  Name = 447652
REMARK  1 active torsions:
REMARK  status: ('A' for Active; 'I' for Inactive)
REMARK    1  A    between atoms: C_5  and  C_14
REMARK                            x       y       z     vdW  Elec       q    Type
REMARK                         _______ _______ _______ _____ _____    ______ ____
ROOT
ATOM      1  O   UNL     1      35.192 -19.589 -22.596  0.00  0.00    -0.274 OA
ATOM      2  N   UNL     1      34.679 -16.869 -22.375  0.00  0.00    -0.340 NA
ATOM      3  N   UNL     1      34.924 -16.043 -20.125  0.00  0.00    -0.170 NA
ATOM      4  N   UNL     1      35.289 -18.299 -20.627  0.00  0.00    -0.218 N 
ATOM      5  C   UNL     1      34.353 -15.618 -22.752  0.00  0.00    +0.148 C 
ATOM      6  C   UNL     1      34.291 -14.542 -21.895  0.00  0.00    +0.052 C 
ATOM      7  C   UNL     1      34.949 -17.009 -21.063  0.00  0.00    +0.150 C 
ATOM      8  C   UNL     1      34.590 -14.817 -20.577  0.00  0.00    +0.114 C 
ATOM      9  C   UNL     1      35.386 -19.463 -21.391  0.00  0.00    +0.235 C 
ATOM     10  C   UNL     1      35.786 -20.646 -20.545  0.00  0.00    +0.096 C 
ATOM     11  H   UNL     1      35.484 -18.394 -19.667  0.00  0.00    +0.167 HD
ENDROOT
BRANCH   5  14
ATOM     12  N   UNL     1      33.834 -14.275 -24.790  0.00  0.00    -0.251 N 
ATOM     13  N   UNL     1      33.665 -15.859 -26.360  0.00  0.00    -0.393 NA
ATOM     14  C   UNL     1      34.064 -15.472 -24.160  0.00  0.00    +0.181 C 
ATOM     15  C   UNL     1      33.597 -14.564 -26.131  0.00  0.00    +0.187 C 
ATOM     16  C   UNL     1      33.954 -16.426 -25.144  0.00  0.00    +0.114 C 
ATOM     17  C   UNL     1      33.825 -12.986 -24.265  0.00  0.00    +0.068 C 
ATOM     18  C   UNL     1      33.330 -13.459 -26.992  0.00  0.00    +0.048 C 
ATOM     19  C   UNL     1      34.105 -17.886 -25.030  0.00  0.00    +0.064 C 
ATOM     20  C   UNL     1      33.573 -11.951 -25.083  0.00  0.00    +0.016 C 
ATOM     21  C   UNL     1      33.319 -12.209 -26.491  0.00  0.00    +0.005 C 
ENDBRANCH   5  14
TORSDOF 1
ENDMDL
MODEL 7
REMARK VINA RESULT:      -9.0     12.815     14.590
REMARK  Name = 447652
REMARK  1 active torsions:
REMARK  status: ('A' for Active; 'I' for Inactive)
REMARK    1  A    between atoms: C_5  and  C_14
REMARK                            x       y       z     vdW  Elec       q    Type
REMARK                         _______ _______ _______ _____ _____    ______ ____
ROOT
ATOM      1  O   UNL     1      38.278 -26.319 -13.723  0.00  0.00    -0.274 OA
ATOM      2  N   UNL     1      36.893 -24.171 -14.807  0.00  0.00    -0.340 NA
ATOM      3  N   UNL     1      38.274 -22.755 -16.182  0.00  0.00    -0.170 NA
ATOM      4  N   UNL     1      39.160 -24.646 -15.128  0.00  0.00    -0.218 N 
ATOM      5  C   UNL     1      35.859 -23.350 -15.076  0.00  0.00    +0.148 C 
ATOM      6  C   UNL     1      35.946 -22.231 -15.872  0.00  0.00    +0.052 C 
ATOM      7  C   UNL     1      38.056 -23.818 -15.385  0.00  0.00    +0.150 C 
ATOM      8  C   UNL     1      37.193 -21.979 -16.405  0.00  0.00    +0.114 C 
ATOM      9  C   UNL     1      39.201 -25.800 -14.344  0.00  0.00    +0.235 C 
ATOM     10  C   UNL     1      40.582 -26.407 -14.325  0.00  0.00    +0.096 C 
ATOM     11  H   UNL     1      40.008 -24.382 -15.553  0.00  0.00    +0.167 HD
ENDROOT
BRANCH   5  14
ATOM     12  N   UNL     1      33.385 -23.667 -15.061  0.00  0.00    -0.251 N 
ATOM     13  N   UNL     1      33.028 -24.454 -12.998  0.00  0.00    -0.393 NA
ATOM     14  C   UNL     1      34.612 -23.731 -14.453  0.00  0.00    +0.181 C 
ATOM     15  C   UNL     1      32.451 -24.120 -14.133  0.00  0.00    +0.187 C 
ATOM     16  C   UNL     1      34.366 -24.216 -13.190  0.00  0.00    +0.114 C 
ATOM     17  C   UNL     1      33.054 -23.248 -16.347  0.00  0.00    +0.068 C 
ATOM     18  C   UNL     1      31.086 -24.142 -14.547  0.00  0.00    +0.048 C 
ATOM     19  C   UNL     1      35.325 -24.485 -12.105  0.00  0.00    +0.064 C 
ATOM     20  C   UNL     1      31.767 -23.274 -16.729  0.00  0.00    +0.016 C 
ATOM     21  C   UNL     1      30.759 -23.738 -15.790  0.00  0.00    +0.005 C 
ENDBRANCH   5  14
TORSDOF 1
ENDMDL
MODEL 8
REMARK VINA RESULT:      -8.9      1.018      2.631
REMARK  Name = 447652
REMARK  1 active torsions:
REMARK  status: ('A' for Active; 'I' for Inactive)
REMARK    1  A    between atoms: C_5  and  C_14
REMARK                            x       y       z     vdW  Elec       q    Type
REMARK                         _______ _______ _______ _____ _____    ______ ____
ROOT
ATOM      1  O   UNL     1      34.915 -15.609 -21.107  0.00  0.00    -0.274 OA
ATOM      2  N   UNL     1      33.907 -14.537 -23.461  0.00  0.00    -0.340 NA
ATOM      3  N   UNL     1      33.769 -16.148 -25.248  0.00  0.00    -0.170 NA
ATOM      4  N   UNL     1      34.581 -16.753 -23.139  0.00  0.00    -0.218 N 
ATOM      5  C   UNL     1      33.408 -13.618 -24.310  0.00  0.00    +0.148 C 
ATOM      6  C   UNL     1      33.070 -13.876 -25.619  0.00  0.00    +0.052 C 
ATOM      7  C   UNL     1      34.060 -15.766 -23.990  0.00  0.00    +0.150 C 
ATOM      8  C   UNL     1      33.274 -15.174 -26.039  0.00  0.00    +0.114 C 
ATOM      9  C   UNL     1      34.961 -16.619 -21.802  0.00  0.00    +0.235 C 
ATOM     10  C   UNL     1      35.469 -17.923 -21.239  0.00  0.00    +0.096 C 
ATOM     11  H   UNL     1      34.692 -17.649 -23.532  0.00  0.00    +0.167 HD
ENDROOT
BRANCH   5  14
ATOM     12  N   UNL     1      33.883 -11.172 -24.189  0.00  0.00    -0.251 N 
ATOM     13  N   UNL     1      32.606 -10.534 -22.467  0.00  0.00    -0.393 NA
ATOM     14  C   UNL     1      33.246 -12.300 -23.740  0.00  0.00    +0.181 C 
ATOM     15  C   UNL     1      33.459 -10.120 -23.380  0.00  0.00    +0.187 C 
ATOM     16  C   UNL     1      32.470 -11.882 -22.684  0.00  0.00    +0.114 C 
ATOM     17  C   UNL     1      34.785 -11.022 -25.238  0.00  0.00    +0.068 C 
ATOM     18  C   UNL     1      33.997  -8.830 -23.663  0.00  0.00    +0.048 C 
ATOM     19  C   UNL     1      31.575 -12.679 -21.830  0.00  0.00    +0.064 C 
ATOM     20  C   UNL     1      35.287  -9.804 -25.498  0.00  0.00    +0.016 C 
ATOM     21  C   UNL     1      34.871  -8.678 -24.677  0.00  0.00    +0.005 C 
ENDBRANCH   5  14
TORSDOF 1
ENDMDL
MODEL 9
REMARK VINA RESULT:      -8.9     11.772     14.896
REMARK  Name = 447652
REMARK  1 active torsions:
REMARK  status: ('A' for Active; 'I' for Inactive)
REMARK    1  A    between atoms: C_5  and  C_14
REMARK                            x       y       z     vdW  Elec       q    Type
REMARK                         _______ _______ _______ _____ _____    ______ ____
ROOT
ATOM      1  O   UNL     1      38.999 -25.778 -15.374  0.00  0.00    -0.274 OA
ATOM      2  N   UNL     1      37.041 -24.539 -13.846  0.00  0.00    -0.340 NA
ATOM      3  N   UNL     1      37.605 -24.421 -11.506  0.00  0.00    -0.170 NA
ATOM      4  N   UNL     1      39.059 -25.411 -13.048  0.00  0.00    -0.218 N 
ATOM      5  C   UNL     1      35.884 -23.914 -13.554  0.00  0.00    +0.148 C 
ATOM      6  C   UNL     1      35.517 -23.516 -12.288  0.00  0.00    +0.052 C 
ATOM      7  C   UNL     1      37.844 -24.759 -12.788  0.00  0.00    +0.150 C 
ATOM      8  C   UNL     1      36.427 -23.798 -11.291  0.00  0.00    +0.114 C 
ATOM      9  C   UNL     1      39.542 -25.862 -14.278  0.00  0.00    +0.235 C 
ATOM     10  C   UNL     1      40.897 -26.510 -14.134  0.00  0.00    +0.096 C 
ATOM     11  H   UNL     1      39.641 -25.569 -12.270  0.00  0.00    +0.167 HD
ENDROOT
BRANCH   5  14
ATOM     12  N   UNL     1      35.414 -23.066 -15.853  0.00  0.00    -0.251 N 
ATOM     13  N   UNL     1      33.257 -23.595 -16.113  0.00  0.00    -0.393 NA
ATOM     14  C   UNL     1      35.023 -23.681 -14.691  0.00  0.00    +0.181 C 
ATOM     15  C   UNL     1      34.301 -23.038 -16.689  0.00  0.00    +0.187 C 
ATOM     16  C   UNL     1      33.697 -23.995 -14.876  0.00  0.00    +0.114 C 
ATOM     17  C   UNL     1      36.657 -22.547 -16.205  0.00  0.00    +0.068 C 
ATOM     18  C   UNL     1      34.471 -22.437 -17.971  0.00  0.00    +0.048 C 
ATOM     19  C   UNL     1      32.774 -24.669 -13.948  0.00  0.00    +0.064 C 
ATOM     20  C   UNL     1      36.808 -21.983 -17.414  0.00  0.00    +0.016 C 
ATOM     21  C   UNL     1      35.670 -21.932 -18.318  0.00  0.00    +0.005 C 
ENDBRANCH   5  14
TORSDOF 1
ENDMDL
