MODEL 1
REMARK VINA RESULT:     -10.7      0.000      0.000
REMARK  Name = 38081
REMARK  4 active torsions:
REMARK  status: ('A' for Active; 'I' for Inactive)
REMARK    1  A    between atoms: N_1  and  C_4
REMARK    2  A    between atoms: C_5  and  C_13
REMARK    3  A    between atoms: C_16  and  C_21
REMARK    4  A    between atoms: C_21  and  O_22
REMARK                            x       y       z     vdW  Elec       q    Type
REMARK                         _______ _______ _______ _____ _____    ______ ____
ROOT
ATOM      1  N   UNL     1      34.595 -18.532 -22.136  0.00  0.00    -0.298 N 
ATOM      2  H   UNL     1      34.154 -18.984 -22.891  0.00  0.00    +0.154 HD
ATOM      3  N   UNL     1      34.533 -16.427 -21.046  0.00  0.00    -0.229 NA
ATOM      4  C   UNL     1      34.546 -17.128 -22.209  0.00  0.00    +0.138 C 
ATOM      5  C   UNL     1      34.512 -16.525 -23.462  0.00  0.00    +0.107 C 
ATOM      6  C   UNL     1      34.462 -15.137 -23.525  0.00  0.00    +0.011 C 
ATOM      7  C   UNL     1      34.449 -14.393 -22.350  0.00  0.00    +0.021 C 
ATOM      8  C   UNL     1      34.486 -15.081 -21.147  0.00  0.00    +0.100 C 
ENDROOT
BRANCH   1  10
ATOM      9  C   UNL     1      34.358 -20.340 -20.513  0.00  0.00    -0.005 C 
ATOM     10  C   UNL     1      35.157 -19.420 -21.192  0.00  0.00    +0.045 C 
ATOM     11  C   UNL     1      34.930 -21.210 -19.585  0.00  0.00    +0.069 C 
ATOM     12  C   UNL     1      36.528 -19.370 -20.942  0.00  0.00    +0.014 C 
ATOM     13  C   UNL     1      36.302 -21.161 -19.336  0.00  0.00    +0.004 C 
ATOM     14  C   UNL     1      32.886 -20.398 -20.779  0.00  0.00    +0.032 C 
ATOM     15  C   UNL     1      37.101 -20.241 -20.015  0.00  0.00    +0.001 C 
BRANCH  11  19
ATOM     16  F   UNL     1      34.654 -22.616 -17.668  0.00  0.00    -0.166 F 
ATOM     17  F   UNL     1      32.859 -21.739 -18.513  0.00  0.00    -0.166 F 
ATOM     18  F   UNL     1      33.880 -23.344 -19.566  0.00  0.00    -0.166 F 
ATOM     19  C   UNL     1      34.098 -22.206 -18.846  0.00  0.00    +0.418 C 
ENDBRANCH  11  19
ENDBRANCH   1  10
BRANCH   5  21
ATOM     20  O   UNL     1      34.254 -18.496 -24.793  0.00  0.00    -0.245 OA
ATOM     21  C   UNL     1      34.524 -17.296 -24.698  0.00  0.00    +0.341 C 
BRANCH  21  22
ATOM     22  O   UNL     1      34.874 -16.542 -25.775  0.00  0.00    -0.477 OA
ATOM     23  H   UNL     1      35.685 -16.701 -26.215  0.00  0.00    +0.295 HD
ENDBRANCH  21  22
ENDBRANCH   5  21
TORSDOF 4
ENDMDL
MODEL 2
REMARK VINA RESULT:      -9.8      4.035      5.724
REMARK  Name = 38081
REMARK  4 active torsions:
REMARK  status: ('A' for Active; 'I' for Inactive)
REMARK    1  A    between atoms: N_1  and  C_4
REMARK    2  A    between atoms: C_5  and  C_13
REMARK    3  A    between atoms: C_16  and  C_21
REMARK    4  A    between atoms: C_21  and  O_22
REMARK                            x       y       z     vdW  Elec       q    Type
REMARK                         _______ _______ _______ _____ _____    ______ ____
ROOT
ATOM      1  N   UNL     1      33.751 -13.493 -23.394  0.00  0.00    -0.298 N 
ATOM      2  H   UNL     1      34.109 -13.463 -24.311  0.00  0.00    +0.154 HD
ATOM      3  N   UNL     1      31.978 -12.528 -22.149  0.00  0.00    -0.229 NA
ATOM      4  C   UNL     1      32.982 -12.366 -23.049  0.00  0.00    +0.138 C 
ATOM      5  C   UNL     1      33.284 -11.146 -23.643  0.00  0.00    +0.107 C 
ATOM      6  C   UNL     1      32.519 -10.037 -23.298  0.00  0.00    +0.011 C 
ATOM      7  C   UNL     1      31.485 -10.172 -22.378  0.00  0.00    +0.021 C 
ATOM      8  C   UNL     1      31.258 -11.428 -21.837  0.00  0.00    +0.100 C 
ENDROOT
BRANCH   1  10
ATOM      9  C   UNL     1      34.287 -15.874 -23.341  0.00  0.00    -0.005 C 
ATOM     10  C   UNL     1      34.110 -14.658 -22.681  0.00  0.00    +0.045 C 
ATOM     11  C   UNL     1      34.644 -17.014 -22.620  0.00  0.00    +0.069 C 
ATOM     12  C   UNL     1      34.290 -14.582 -21.300  0.00  0.00    +0.014 C 
ATOM     13  C   UNL     1      34.824 -16.937 -21.239  0.00  0.00    +0.004 C 
ATOM     14  C   UNL     1      34.097 -15.960 -24.823  0.00  0.00    +0.032 C 
ATOM     15  C   UNL     1      34.648 -15.722 -20.579  0.00  0.00    +0.001 C 
BRANCH  11  19
ATOM     16  F   UNL     1      33.962 -18.549 -24.324  0.00  0.00    -0.166 F 
ATOM     17  F   UNL     1      36.080 -18.470 -23.861  0.00  0.00    -0.166 F 
ATOM     18  F   UNL     1      34.696 -19.386 -22.456  0.00  0.00    -0.166 F 
ATOM     19  C   UNL     1      34.842 -18.327 -23.303  0.00  0.00    +0.418 C 
ENDBRANCH  11  19
ENDBRANCH   1  10
BRANCH   5  21
ATOM     20  O   UNL     1      34.389 -11.494 -25.737  0.00  0.00    -0.245 OA
ATOM     21  C   UNL     1      34.364 -10.995 -24.608  0.00  0.00    +0.341 C 
BRANCH  21  22
ATOM     22  O   UNL     1      35.380 -10.223 -24.133  0.00  0.00    -0.477 OA
ATOM     23  H   UNL     1      36.217 -10.240 -24.552  0.00  0.00    +0.295 HD
ENDBRANCH  21  22
ENDBRANCH   5  21
TORSDOF 4
ENDMDL
MODEL 3
REMARK VINA RESULT:      -9.7      4.255      6.784
REMARK  Name = 38081
REMARK  4 active torsions:
REMARK  status: ('A' for Active; 'I' for Inactive)
REMARK    1  A    between atoms: N_1  and  C_4
REMARK    2  A    between atoms: C_5  and  C_13
REMARK    3  A    between atoms: C_16  and  C_21
REMARK    4  A    between atoms: C_21  and  O_22
REMARK                            x       y       z     vdW  Elec       q    Type
REMARK                         _______ _______ _______ _____ _____    ______ ____
ROOT
ATOM      1  N   UNL     1      35.099 -18.148 -21.635  0.00  0.00    -0.298 N 
ATOM      2  H   UNL     1      35.891 -17.792 -21.172  0.00  0.00    +0.154 HD
ATOM      3  N   UNL     1      33.191 -19.463 -21.130  0.00  0.00    -0.229 NA
ATOM      4  C   UNL     1      34.528 -19.267 -21.000  0.00  0.00    +0.138 C 
ATOM      5  C   UNL     1      35.355 -20.116 -20.273  0.00  0.00    +0.107 C 
ATOM      6  C   UNL     1      34.784 -21.219 -19.648  0.00  0.00    +0.011 C 
ATOM      7  C   UNL     1      33.416 -21.445 -19.764  0.00  0.00    +0.021 C 
ATOM      8  C   UNL     1      32.671 -20.545 -20.510  0.00  0.00    +0.100 C 
ENDROOT
BRANCH   1  10
ATOM      9  C   UNL     1      34.267 -16.135 -22.737  0.00  0.00    -0.005 C 
ATOM     10  C   UNL     1      34.758 -17.439 -22.808  0.00  0.00    +0.045 C 
ATOM     11  C   UNL     1      33.938 -15.449 -23.907  0.00  0.00    +0.069 C 
ATOM     12  C   UNL     1      34.917 -18.057 -24.048  0.00  0.00    +0.014 C 
ATOM     13  C   UNL     1      34.098 -16.068 -25.146  0.00  0.00    +0.004 C 
ATOM     14  C   UNL     1      34.097 -15.467 -21.409  0.00  0.00    +0.032 C 
ATOM     15  C   UNL     1      34.588 -17.371 -25.217  0.00  0.00    +0.001 C 
BRANCH  11  19
ATOM     16  F   UNL     1      32.268 -13.924 -23.126  0.00  0.00    -0.166 F 
ATOM     17  F   UNL     1      34.290 -13.161 -23.309  0.00  0.00    -0.166 F 
ATOM     18  F   UNL     1      33.116 -13.560 -25.095  0.00  0.00    -0.166 F 
ATOM     19  C   UNL     1      33.414 -14.052 -23.859  0.00  0.00    +0.418 C 
ENDBRANCH  11  19
ENDBRANCH   1  10
BRANCH   5  21
ATOM     20  O   UNL     1      37.523 -19.448 -21.034  0.00  0.00    -0.245 OA
ATOM     21  C   UNL     1      36.788 -19.887 -20.146  0.00  0.00    +0.341 C 
BRANCH  21  22
ATOM     22  O   UNL     1      37.257 -20.213 -18.910  0.00  0.00    -0.477 OA
ATOM     23  H   UNL     1      36.659 -20.443 -18.228  0.00  0.00    +0.295 HD
ENDBRANCH  21  22
ENDBRANCH   5  21
TORSDOF 4
ENDMDL
MODEL 4
REMARK VINA RESULT:      -9.7      1.391      2.352
REMARK  Name = 38081
REMARK  4 active torsions:
REMARK  status: ('A' for Active; 'I' for Inactive)
REMARK    1  A    between atoms: N_1  and  C_4
REMARK    2  A    between atoms: C_5  and  C_13
REMARK    3  A    between atoms: C_16  and  C_21
REMARK    4  A    between atoms: C_21  and  O_22
REMARK                            x       y       z     vdW  Elec       q    Type
REMARK                         _______ _______ _______ _____ _____    ______ ____
ROOT
ATOM      1  N   UNL     1      33.887 -18.426 -22.235  0.00  0.00    -0.298 N 
ATOM      2  H   UNL     1      33.693 -18.755 -23.142  0.00  0.00    +0.154 HD
ATOM      3  N   UNL     1      33.686 -16.414 -20.997  0.00  0.00    -0.229 NA
ATOM      4  C   UNL     1      34.029 -17.028 -22.158  0.00  0.00    +0.138 C 
ATOM      5  C   UNL     1      34.512 -16.345 -23.268  0.00  0.00    +0.107 C 
ATOM      6  C   UNL     1      34.649 -14.963 -23.184  0.00  0.00    +0.011 C 
ATOM      7  C   UNL     1      34.306 -14.307 -22.007  0.00  0.00    +0.021 C 
ATOM      8  C   UNL     1      33.834 -15.071 -20.952  0.00  0.00    +0.100 C 
ENDROOT
BRANCH   1  10
ATOM      9  C   UNL     1      35.200 -19.822 -20.722  0.00  0.00    -0.005 C 
ATOM     10  C   UNL     1      33.969 -19.449 -21.265  0.00  0.00    +0.045 C 
ATOM     11  C   UNL     1      35.261 -20.834 -19.763  0.00  0.00    +0.069 C 
ATOM     12  C   UNL     1      32.802 -20.088 -20.847  0.00  0.00    +0.014 C 
ATOM     13  C   UNL     1      34.094 -21.471 -19.346  0.00  0.00    +0.004 C 
ATOM     14  C   UNL     1      36.455 -19.138 -21.165  0.00  0.00    +0.032 C 
ATOM     15  C   UNL     1      32.864 -21.098 -19.888  0.00  0.00    +0.001 C 
BRANCH  11  19
ATOM     16  F   UNL     1      37.238 -20.228 -18.558  0.00  0.00    -0.166 F 
ATOM     17  F   UNL     1      36.441 -22.215 -18.208  0.00  0.00    -0.166 F 
ATOM     18  F   UNL     1      37.428 -21.759 -20.091  0.00  0.00    -0.166 F 
ATOM     19  C   UNL     1      36.565 -21.250 -19.166  0.00  0.00    +0.418 C 
ENDBRANCH  11  19
ENDBRANCH   1  10
BRANCH   5  21
ATOM     20  O   UNL     1      34.543 -16.666 -25.639  0.00  0.00    -0.245 OA
ATOM     21  C   UNL     1      34.873 -17.024 -24.505  0.00  0.00    +0.341 C 
BRANCH  21  22
ATOM     22  O   UNL     1      35.637 -18.129 -24.286  0.00  0.00    -0.477 OA
ATOM     23  H   UNL     1      35.271 -18.871 -23.846  0.00  0.00    +0.295 HD
ENDBRANCH  21  22
ENDBRANCH   5  21
TORSDOF 4
ENDMDL
MODEL 5
REMARK VINA RESULT:      -9.7      8.456     10.615
REMARK  Name = 38081
REMARK  4 active torsions:
REMARK  status: ('A' for Active; 'I' for Inactive)
REMARK    1  A    between atoms: N_1  and  C_4
REMARK    2  A    between atoms: C_5  and  C_13
REMARK    3  A    between atoms: C_16  and  C_21
REMARK    4  A    between atoms: C_21  and  O_22
REMARK                            x       y       z     vdW  Elec       q    Type
REMARK                         _______ _______ _______ _____ _____    ______ ____
ROOT
ATOM      1  N   UNL     1      34.775 -24.706 -13.849  0.00  0.00    -0.298 N 
ATOM      2  H   UNL     1      34.267 -24.891 -13.026  0.00  0.00    +0.154 HD
ATOM      3  N   UNL     1      36.772 -25.434 -14.901  0.00  0.00    -0.229 NA
ATOM      4  C   UNL     1      36.136 -25.054 -13.763  0.00  0.00    +0.138 C 
ATOM      5  C   UNL     1      36.764 -24.992 -12.524  0.00  0.00    +0.107 C 
ATOM      6  C   UNL     1      38.108 -25.338 -12.447  0.00  0.00    +0.011 C 
ATOM      7  C   UNL     1      38.786 -25.730 -13.597  0.00  0.00    +0.021 C 
ATOM      8  C   UNL     1      38.078 -25.760 -14.788  0.00  0.00    +0.100 C 
ENDROOT
BRANCH   1  10
ATOM      9  C   UNL     1      32.605 -24.108 -14.794  0.00  0.00    -0.005 C 
ATOM     10  C   UNL     1      33.997 -24.143 -14.884  0.00  0.00    +0.045 C 
ATOM     11  C   UNL     1      31.853 -23.546 -15.826  0.00  0.00    +0.069 C 
ATOM     12  C   UNL     1      34.636 -23.615 -16.006  0.00  0.00    +0.014 C 
ATOM     13  C   UNL     1      32.493 -23.018 -16.947  0.00  0.00    +0.004 C 
ATOM     14  C   UNL     1      31.915 -24.671 -13.592  0.00  0.00    +0.032 C 
ATOM     15  C   UNL     1      33.884 -23.052 -17.037  0.00  0.00    +0.001 C 
BRANCH  11  19
ATOM     16  F   UNL     1      29.779 -24.724 -15.636  0.00  0.00    -0.166 F 
ATOM     17  F   UNL     1      29.894 -22.774 -14.693  0.00  0.00    -0.166 F 
ATOM     18  F   UNL     1      29.803 -22.927 -16.860  0.00  0.00    -0.166 F 
ATOM     19  C   UNL     1      30.363 -23.494 -15.754  0.00  0.00    +0.418 C 
ENDBRANCH  11  19
ENDBRANCH   1  10
BRANCH   5  21
ATOM     20  O   UNL     1      34.917 -24.924 -11.003  0.00  0.00    -0.245 OA
ATOM     21  C   UNL     1      36.062 -24.584 -11.314  0.00  0.00    +0.341 C 
BRANCH  21  22
ATOM     22  O   UNL     1      36.814 -23.763 -10.531  0.00  0.00    -0.477 OA
ATOM     23  H   UNL     1      36.515 -23.529  -9.675  0.00  0.00    +0.295 HD
ENDBRANCH  21  22
ENDBRANCH   5  21
TORSDOF 4
ENDMDL
MODEL 6
REMARK VINA RESULT:      -9.6      6.520      9.540
REMARK  Name = 38081
REMARK  4 active torsions:
REMARK  status: ('A' for Active; 'I' for Inactive)
REMARK    1  A    between atoms: N_1  and  C_4
REMARK    2  A    between atoms: C_5  and  C_13
REMARK    3  A    between atoms: C_16  and  C_21
REMARK    4  A    between atoms: C_21  and  O_22
REMARK                            x       y       z     vdW  Elec       q    Type
REMARK                         _______ _______ _______ _____ _____    ______ ____
ROOT
ATOM      1  N   UNL     1      35.331 -23.537 -15.238  0.00  0.00    -0.298 N 
ATOM      2  H   UNL     1      35.022 -22.989 -14.481  0.00  0.00    +0.154 HD
ATOM      3  N   UNL     1      36.033 -25.765 -15.645  0.00  0.00    -0.229 NA
ATOM      4  C   UNL     1      36.080 -24.664 -14.852  0.00  0.00    +0.138 C 
ATOM      5  C   UNL     1      36.830 -24.598 -13.683  0.00  0.00    +0.107 C 
ATOM      6  C   UNL     1      37.567 -25.717 -13.309  0.00  0.00    +0.011 C 
ATOM      7  C   UNL     1      37.539 -26.858 -14.102  0.00  0.00    +0.021 C 
ATOM      8  C   UNL     1      36.763 -26.831 -15.250  0.00  0.00    +0.100 C 
ENDROOT
BRANCH   1  10
ATOM      9  C   UNL     1      35.834 -22.328 -17.298  0.00  0.00    -0.005 C 
ATOM     10  C   UNL     1      34.938 -23.038 -16.499  0.00  0.00    +0.045 C 
ATOM     11  C   UNL     1      35.429 -21.844 -18.542  0.00  0.00    +0.069 C 
ATOM     12  C   UNL     1      33.635 -23.264 -16.945  0.00  0.00    +0.014 C 
ATOM     13  C   UNL     1      34.127 -22.071 -18.987  0.00  0.00    +0.004 C 
ATOM     14  C   UNL     1      37.233 -22.085 -16.824  0.00  0.00    +0.032 C 
ATOM     15  C   UNL     1      33.230 -22.781 -18.189  0.00  0.00    +0.001 C 
BRANCH  11  19
ATOM     16  F   UNL     1      37.099 -20.144 -18.746  0.00  0.00    -0.166 F 
ATOM     17  F   UNL     1      37.292 -21.873 -20.041  0.00  0.00    -0.166 F 
ATOM     18  F   UNL     1      35.729 -20.408 -20.414  0.00  0.00    -0.166 F 
ATOM     19  C   UNL     1      36.370 -21.083 -19.417  0.00  0.00    +0.418 C 
ENDBRANCH  11  19
ENDBRANCH   1  10
BRANCH   5  21
ATOM     20  O   UNL     1      37.860 -22.704 -12.645  0.00  0.00    -0.245 OA
ATOM     21  C   UNL     1      36.866 -23.407 -12.845  0.00  0.00    +0.341 C 
BRANCH  21  22
ATOM     22  O   UNL     1      35.656 -23.132 -12.284  0.00  0.00    -0.477 OA
ATOM     23  H   UNL     1      34.891 -23.587 -12.575  0.00  0.00    +0.295 HD
ENDBRANCH  21  22
ENDBRANCH   5  21
TORSDOF 4
ENDMDL
MODEL 7
REMARK VINA RESULT:      -9.6      1.858      2.505
REMARK  Name = 38081
REMARK  4 active torsions:
REMARK  status: ('A' for Active; 'I' for Inactive)
REMARK    1  A    between atoms: N_1  and  C_4
REMARK    2  A    between atoms: C_5  and  C_13
REMARK    3  A    between atoms: C_16  and  C_21
REMARK    4  A    between atoms: C_21  and  O_22
REMARK                            x       y       z     vdW  Elec       q    Type
REMARK                         _______ _______ _______ _____ _____    ______ ____
ROOT
ATOM      1  N   UNL     1      35.268 -17.530 -21.513  0.00  0.00    -0.298 N 
ATOM      2  H   UNL     1      35.432 -16.787 -20.888  0.00  0.00    +0.154 HD
ATOM      3  N   UNL     1      35.191 -17.893 -23.855  0.00  0.00    -0.229 NA
ATOM      4  C   UNL     1      34.862 -17.112 -22.794  0.00  0.00    +0.138 C 
ATOM      5  C   UNL     1      34.147 -15.925 -22.914  0.00  0.00    +0.107 C 
ATOM      6  C   UNL     1      33.751 -15.519 -24.184  0.00  0.00    +0.011 C 
ATOM      7  C   UNL     1      34.073 -16.299 -25.289  0.00  0.00    +0.021 C 
ATOM      8  C   UNL     1      34.788 -17.466 -25.073  0.00  0.00    +0.100 C 
ENDROOT
BRANCH   1  10
ATOM      9  C   UNL     1      34.409 -19.628 -20.609  0.00  0.00    -0.005 C 
ATOM     10  C   UNL     1      35.484 -18.806 -20.949  0.00  0.00    +0.045 C 
ATOM     11  C   UNL     1      34.642 -20.887 -20.055  0.00  0.00    +0.069 C 
ATOM     12  C   UNL     1      36.791 -19.243 -20.735  0.00  0.00    +0.014 C 
ATOM     13  C   UNL     1      35.949 -21.324 -19.841  0.00  0.00    +0.004 C 
ATOM     14  C   UNL     1      33.005 -19.164 -20.840  0.00  0.00    +0.032 C 
ATOM     15  C   UNL     1      37.023 -20.502 -20.181  0.00  0.00    +0.001 C 
BRANCH  11  19
ATOM     16  F   UNL     1      32.890 -21.434 -18.520  0.00  0.00    -0.166 F 
ATOM     17  F   UNL     1      32.516 -21.825 -20.620  0.00  0.00    -0.166 F 
ATOM     18  F   UNL     1      33.903 -23.082 -19.513  0.00  0.00    -0.166 F 
ATOM     19  C   UNL     1      33.510 -21.788 -19.685  0.00  0.00    +0.418 C 
ENDBRANCH  11  19
ENDBRANCH   1  10
BRANCH   5  21
ATOM     20  O   UNL     1      34.600 -14.711 -20.902  0.00  0.00    -0.245 OA
ATOM     21  C   UNL     1      33.806 -15.101 -21.762  0.00  0.00    +0.341 C 
BRANCH  21  22
ATOM     22  O   UNL     1      32.481 -14.790 -21.722  0.00  0.00    -0.477 OA
ATOM     23  H   UNL     1      31.921 -15.209 -21.099  0.00  0.00    +0.295 HD
ENDBRANCH  21  22
ENDBRANCH   5  21
TORSDOF 4
ENDMDL
MODEL 8
REMARK VINA RESULT:      -9.5      7.057      9.831
REMARK  Name = 38081
REMARK  4 active torsions:
REMARK  status: ('A' for Active; 'I' for Inactive)
REMARK    1  A    between atoms: N_1  and  C_4
REMARK    2  A    between atoms: C_5  and  C_13
REMARK    3  A    between atoms: C_16  and  C_21
REMARK    4  A    between atoms: C_21  and  O_22
REMARK                            x       y       z     vdW  Elec       q    Type
REMARK                         _______ _______ _______ _____ _____    ______ ____
ROOT
ATOM      1  N   UNL     1      33.587 -12.439 -24.305  0.00  0.00    -0.298 N 
ATOM      2  H   UNL     1      33.709 -12.276 -25.268  0.00  0.00    +0.154 HD
ATOM      3  N   UNL     1      34.347 -13.962 -22.654  0.00  0.00    -0.229 NA
ATOM      4  C   UNL     1      33.882 -13.758 -23.913  0.00  0.00    +0.138 C 
ATOM      5  C   UNL     1      33.685 -14.786 -24.829  0.00  0.00    +0.107 C 
ATOM      6  C   UNL     1      33.979 -16.087 -24.434  0.00  0.00    +0.011 C 
ATOM      7  C   UNL     1      34.457 -16.326 -23.150  0.00  0.00    +0.021 C 
ATOM      8  C   UNL     1      34.621 -15.239 -22.306  0.00  0.00    +0.100 C 
ENDROOT
BRANCH   1  10
ATOM      9  C   UNL     1      33.740 -10.058 -23.788  0.00  0.00    -0.005 C 
ATOM     10  C   UNL     1      33.148 -11.306 -23.587  0.00  0.00    +0.045 C 
ATOM     11  C   UNL     1      33.292  -8.949 -23.071  0.00  0.00    +0.069 C 
ATOM     12  C   UNL     1      32.108 -11.443 -22.667  0.00  0.00    +0.014 C 
ATOM     13  C   UNL     1      32.252  -9.087 -22.152  0.00  0.00    +0.004 C 
ATOM     14  C   UNL     1      34.855  -9.906 -24.776  0.00  0.00    +0.032 C 
ATOM     15  C   UNL     1      31.660 -10.333 -21.951  0.00  0.00    +0.001 C 
BRANCH  11  19
ATOM     16  F   UNL     1      33.773  -7.125 -24.542  0.00  0.00    -0.166 F 
ATOM     17  F   UNL     1      33.372  -6.636 -22.467  0.00  0.00    -0.166 F 
ATOM     18  F   UNL     1      35.246  -7.595 -23.013  0.00  0.00    -0.166 F 
ATOM     19  C   UNL     1      33.907  -7.603 -23.270  0.00  0.00    +0.418 C 
ENDBRANCH  11  19
ENDBRANCH   1  10
BRANCH   5  21
ATOM     20  O   UNL     1      33.407 -13.535 -26.849  0.00  0.00    -0.245 OA
ATOM     21  C   UNL     1      33.186 -14.545 -26.176  0.00  0.00    +0.341 C 
BRANCH  21  22
ATOM     22  O   UNL     1      32.428 -15.576 -26.640  0.00  0.00    -0.477 OA
ATOM     23  H   UNL     1      31.504 -15.582 -26.488  0.00  0.00    +0.295 HD
ENDBRANCH  21  22
ENDBRANCH   5  21
TORSDOF 4
ENDMDL
MODEL 9
REMARK VINA RESULT:      -9.5      4.587      7.441
REMARK  Name = 38081
REMARK  4 active torsions:
REMARK  status: ('A' for Active; 'I' for Inactive)
REMARK    1  A    between atoms: N_1  and  C_4
REMARK    2  A    between atoms: C_5  and  C_13
REMARK    3  A    between atoms: C_16  and  C_21
REMARK    4  A    between atoms: C_21  and  O_22
REMARK                            x       y       z     vdW  Elec       q    Type
REMARK                         _______ _______ _______ _____ _____    ______ ____
ROOT
ATOM      1  N   UNL     1      34.083 -22.546 -18.261  0.00  0.00    -0.298 N 
ATOM      2  H   UNL     1      33.258 -22.846 -18.705  0.00  0.00    +0.154 HD
ATOM      3  N   UNL     1      35.514 -23.256 -16.508  0.00  0.00    -0.229 NA
ATOM      4  C   UNL     1      34.249 -23.066 -16.964  0.00  0.00    +0.138 C 
ATOM      5  C   UNL     1      33.117 -23.358 -16.212  0.00  0.00    +0.107 C 
ATOM      6  C   UNL     1      33.289 -23.872 -14.932  0.00  0.00    +0.011 C 
ATOM      7  C   UNL     1      34.573 -24.077 -14.438  0.00  0.00    +0.021 C 
ATOM      8  C   UNL     1      35.642 -23.756 -15.259  0.00  0.00    +0.100 C 
ENDROOT
BRANCH   1  10
ATOM      9  C   UNL     1      34.272 -20.766 -19.921  0.00  0.00    -0.005 C 
ATOM     10  C   UNL     1      34.869 -21.676 -19.049  0.00  0.00    +0.045 C 
ATOM     11  C   UNL     1      35.065 -19.913 -20.690  0.00  0.00    +0.069 C 
ATOM     12  C   UNL     1      36.259 -21.733 -18.946  0.00  0.00    +0.014 C 
ATOM     13  C   UNL     1      36.454 -19.970 -20.586  0.00  0.00    +0.004 C 
ATOM     14  C   UNL     1      32.781 -20.699 -20.033  0.00  0.00    +0.032 C 
ATOM     15  C   UNL     1      37.051 -20.880 -19.714  0.00  0.00    +0.001 C 
BRANCH  11  19
ATOM     16  F   UNL     1      33.479 -18.158 -21.053  0.00  0.00    -0.166 F 
ATOM     17  F   UNL     1      35.347 -18.040 -22.151  0.00  0.00    -0.166 F 
ATOM     18  F   UNL     1      33.857 -19.525 -22.701  0.00  0.00    -0.166 F 
ATOM     19  C   UNL     1      34.450 -18.928 -21.629  0.00  0.00    +0.418 C 
ENDBRANCH  11  19
ENDBRANCH   1  10
BRANCH   5  21
ATOM     20  O   UNL     1      31.434 -22.262 -17.513  0.00  0.00    -0.245 OA
ATOM     21  C   UNL     1      31.768 -23.147 -16.721  0.00  0.00    +0.341 C 
BRANCH  21  22
ATOM     22  O   UNL     1      30.879 -24.050 -16.223  0.00  0.00    -0.477 OA
ATOM     23  H   UNL     1      30.011 -23.779 -16.002  0.00  0.00    +0.295 HD
ENDBRANCH  21  22
ENDBRANCH   5  21
TORSDOF 4
ENDMDL
