MODEL 1
REMARK VINA RESULT:     -12.6      0.000      0.000
REMARK  Name = 5288641
REMARK  1 active torsions:
REMARK  status: ('A' for Active; 'I' for Inactive)
REMARK    1  A    between atoms: C_14  and  S_23
REMARK                            x       y       z     vdW  Elec       q    Type
REMARK                         _______ _______ _______ _____ _____    ______ ____
ROOT
ATOM      1  O   UNL     1      35.427 -24.367 -14.573  0.00  0.00    -0.270 OA
ATOM      2  O   UNL     1      32.011 -22.307 -18.013  0.00  0.00    -0.285 OA
ATOM      3  N   UNL     1      35.347 -22.782 -17.083  0.00  0.00    -0.310 N 
ATOM      4  N   UNL     1      33.230 -24.886 -13.874  0.00  0.00    -0.280 N 
ATOM      5  C   UNL     1      33.444 -23.662 -15.796  0.00  0.00    +0.071 C 
ATOM      6  C   UNL     1      32.021 -23.869 -15.545  0.00  0.00    +0.020 C 
ATOM      7  C   UNL     1      34.023 -23.005 -16.802  0.00  0.00    +0.092 C 
ATOM      8  C   UNL     1      31.949 -24.618 -14.367  0.00  0.00    +0.051 C 
ATOM      9  C   UNL     1      34.217 -24.331 -14.697  0.00  0.00    +0.251 C 
ATOM     10  C   UNL     1      34.215 -21.741 -18.790  0.00  0.00    +0.054 C 
ATOM     11  C   UNL     1      35.474 -22.039 -18.250  0.00  0.00    +0.051 C 
ATOM     12  C   UNL     1      33.217 -22.345 -17.889  0.00  0.00    +0.210 C 
ATOM     13  C   UNL     1      30.872 -23.488 -16.211  0.00  0.00    +0.020 C 
ATOM     14  C   UNL     1      29.642 -23.875 -15.667  0.00  0.00    +0.112 C 
ATOM     15  C   UNL     1      30.746 -25.010 -13.813  0.00  0.00    +0.016 C 
ATOM     16  C   UNL     1      29.580 -24.628 -14.481  0.00  0.00    +0.020 C 
ATOM     17  C   UNL     1      34.041 -21.014 -19.948  0.00  0.00    +0.004 C 
ATOM     18  C   UNL     1      36.618 -21.598 -18.882  0.00  0.00    +0.015 C 
ATOM     19  C   UNL     1      35.198 -20.568 -20.588  0.00  0.00    +0.000 C 
ATOM     20  C   UNL     1      36.473 -20.857 -20.061  0.00  0.00    +0.001 C 
ATOM     21  H   UNL     1      36.101 -23.101 -16.536  0.00  0.00    +0.152 HD
ATOM     22  H   UNL     1      33.415 -25.399 -13.053  0.00  0.00    +0.155 HD
ENDROOT
BRANCH  14  23
ATOM     23  S   UNL     1      28.160 -23.415 -16.473  0.00  0.00    +0.042 S 
ATOM     24  O   UNL     1      28.511 -22.022 -17.252  0.00  0.00    -0.065 OA
ATOM     25  O   UNL     1      27.877 -24.413 -17.492  0.00  0.00    -0.065 OA
ATOM     26  O   UNL     1      27.188 -23.120 -15.432  0.00  0.00    -0.065 OA
ENDBRANCH  14  23
TORSDOF 1
ENDMDL
MODEL 2
REMARK VINA RESULT:     -11.4      1.275      1.574
REMARK  Name = 5288641
REMARK  1 active torsions:
REMARK  status: ('A' for Active; 'I' for Inactive)
REMARK    1  A    between atoms: C_14  and  S_23
REMARK                            x       y       z     vdW  Elec       q    Type
REMARK                         _______ _______ _______ _____ _____    ______ ____
ROOT
ATOM      1  O   UNL     1      36.736 -23.475 -16.044  0.00  0.00    -0.270 OA
ATOM      2  O   UNL     1      32.196 -22.020 -18.285  0.00  0.00    -0.285 OA
ATOM      3  N   UNL     1      35.690 -21.942 -18.363  0.00  0.00    -0.310 N 
ATOM      4  N   UNL     1      34.943 -24.337 -14.770  0.00  0.00    -0.280 N 
ATOM      5  C   UNL     1      34.400 -23.109 -16.623  0.00  0.00    +0.071 C 
ATOM      6  C   UNL     1      33.161 -23.542 -15.986  0.00  0.00    +0.020 C 
ATOM      7  C   UNL     1      34.555 -22.375 -17.726  0.00  0.00    +0.092 C 
ATOM      8  C   UNL     1      33.549 -24.284 -14.866  0.00  0.00    +0.051 C 
ATOM      9  C   UNL     1      35.551 -23.636 -15.817  0.00  0.00    +0.251 C 
ATOM     10  C   UNL     1      33.966 -21.112 -19.634  0.00  0.00    +0.054 C 
ATOM     11  C   UNL     1      35.357 -21.198 -19.488  0.00  0.00    +0.051 C 
ATOM     12  C   UNL     1      33.377 -21.862 -18.510  0.00  0.00    +0.210 C 
ATOM     13  C   UNL     1      31.824 -23.357 -16.281  0.00  0.00    +0.020 C 
ATOM     14  C   UNL     1      30.879 -23.934 -15.425  0.00  0.00    +0.112 C 
ATOM     15  C   UNL     1      32.633 -24.861 -14.009  0.00  0.00    +0.016 C 
ATOM     16  C   UNL     1      31.280 -24.678 -14.300  0.00  0.00    +0.020 C 
ATOM     17  C   UNL     1      33.355 -20.430 -20.665  0.00  0.00    +0.004 C 
ATOM     18  C   UNL     1      36.187 -20.582 -20.402  0.00  0.00    +0.015 C 
ATOM     19  C   UNL     1      34.194 -19.808 -21.590  0.00  0.00    +0.000 C 
ATOM     20  C   UNL     1      35.595 -19.883 -21.460  0.00  0.00    +0.001 C 
ATOM     21  H   UNL     1      36.609 -22.131 -18.067  0.00  0.00    +0.152 HD
ATOM     22  H   UNL     1      35.434 -24.808 -14.057  0.00  0.00    +0.155 HD
ENDROOT
BRANCH  14  23
ATOM     23  S   UNL     1      29.175 -23.726 -15.756  0.00  0.00    +0.042 S 
ATOM     24  O   UNL     1      28.804 -22.243 -15.176  0.00  0.00    -0.065 OA
ATOM     25  O   UNL     1      29.003 -23.673 -17.200  0.00  0.00    -0.065 OA
ATOM     26  O   UNL     1      28.466 -24.714 -14.959  0.00  0.00    -0.065 OA
ENDBRANCH  14  23
TORSDOF 1
ENDMDL
MODEL 3
REMARK VINA RESULT:     -10.8      3.501      6.977
REMARK  Name = 5288641
REMARK  1 active torsions:
REMARK  status: ('A' for Active; 'I' for Inactive)
REMARK    1  A    between atoms: C_14  and  S_23
REMARK                            x       y       z     vdW  Elec       q    Type
REMARK                         _______ _______ _______ _____ _____    ______ ____
ROOT
ATOM      1  O   UNL     1      34.230 -22.019 -18.378  0.00  0.00    -0.270 OA
ATOM      2  O   UNL     1      33.130 -24.540 -13.885  0.00  0.00    -0.285 OA
ATOM      3  N   UNL     1      31.932 -23.092 -16.832  0.00  0.00    -0.310 N 
ATOM      4  N   UNL     1      36.247 -22.427 -17.216  0.00  0.00    -0.280 N 
ATOM      5  C   UNL     1      34.316 -23.160 -16.230  0.00  0.00    +0.071 C 
ATOM      6  C   UNL     1      35.433 -23.508 -15.356  0.00  0.00    +0.020 C 
ATOM      7  C   UNL     1      33.016 -23.396 -16.048  0.00  0.00    +0.092 C 
ATOM      8  C   UNL     1      36.580 -23.040 -16.004  0.00  0.00    +0.051 C 
ATOM      9  C   UNL     1      34.865 -22.456 -17.436  0.00  0.00    +0.251 C 
ATOM     10  C   UNL     1      31.038 -24.164 -15.008  0.00  0.00    +0.054 C 
ATOM     11  C   UNL     1      30.762 -23.538 -16.231  0.00  0.00    +0.051 C 
ATOM     12  C   UNL     1      32.500 -24.105 -14.825  0.00  0.00    +0.210 C 
ATOM     13  C   UNL     1      35.524 -24.151 -14.137  0.00  0.00    +0.020 C 
ATOM     14  C   UNL     1      36.795 -24.316 -13.577  0.00  0.00    +0.112 C 
ATOM     15  C   UNL     1      37.844 -23.192 -15.469  0.00  0.00    +0.016 C 
ATOM     16  C   UNL     1      37.944 -23.841 -14.236  0.00  0.00    +0.020 C 
ATOM     17  C   UNL     1      30.062 -24.702 -14.196  0.00  0.00    +0.004 C 
ATOM     18  C   UNL     1      29.461 -23.438 -16.676  0.00  0.00    +0.015 C 
ATOM     19  C   UNL     1      28.746 -24.600 -14.646  0.00  0.00    +0.000 C 
ATOM     20  C   UNL     1      28.447 -23.975 -15.874  0.00  0.00    +0.001 C 
ATOM     21  H   UNL     1      31.976 -22.623 -17.697  0.00  0.00    +0.152 HD
ATOM     22  H   UNL     1      36.900 -22.026 -17.836  0.00  0.00    +0.155 HD
ENDROOT
BRANCH  14  23
ATOM     23  S   UNL     1      36.960 -25.123 -12.035  0.00  0.00    +0.042 S 
ATOM     24  O   UNL     1      35.491 -25.001 -11.329  0.00  0.00    -0.065 OA
ATOM     25  O   UNL     1      37.194 -26.535 -12.292  0.00  0.00    -0.065 OA
ATOM     26  O   UNL     1      37.906 -24.344 -11.250  0.00  0.00    -0.065 OA
ENDBRANCH  14  23
TORSDOF 1
ENDMDL
MODEL 4
REMARK VINA RESULT:     -10.8      8.903     11.633
REMARK  Name = 5288641
REMARK  1 active torsions:
REMARK  status: ('A' for Active; 'I' for Inactive)
REMARK    1  A    between atoms: C_14  and  S_23
REMARK                            x       y       z     vdW  Elec       q    Type
REMARK                         _______ _______ _______ _____ _____    ______ ____
ROOT
ATOM      1  O   UNL     1      32.911 -13.303 -26.098  0.00  0.00    -0.270 OA
ATOM      2  O   UNL     1      33.205 -14.914 -21.091  0.00  0.00    -0.285 OA
ATOM      3  N   UNL     1      32.300 -12.393 -23.337  0.00  0.00    -0.310 N 
ATOM      4  N   UNL     1      33.840 -15.475 -26.046  0.00  0.00    -0.280 N 
ATOM      5  C   UNL     1      33.278 -14.541 -24.034  0.00  0.00    +0.071 C 
ATOM      6  C   UNL     1      33.829 -15.868 -23.780  0.00  0.00    +0.020 C 
ATOM      7  C   UNL     1      32.824 -13.648 -23.153  0.00  0.00    +0.092 C 
ATOM      8  C   UNL     1      34.153 -16.390 -25.036  0.00  0.00    +0.051 C 
ATOM      9  C   UNL     1      33.293 -14.301 -25.515  0.00  0.00    +0.251 C 
ATOM     10  C   UNL     1      32.253 -12.707 -21.062  0.00  0.00    +0.054 C 
ATOM     11  C   UNL     1      31.959 -11.829 -22.114  0.00  0.00    +0.051 C 
ATOM     12  C   UNL     1      32.824 -13.921 -21.672  0.00  0.00    +0.210 C 
ATOM     13  C   UNL     1      34.052 -16.603 -22.632  0.00  0.00    +0.020 C 
ATOM     14  C   UNL     1      34.611 -17.878 -22.769  0.00  0.00    +0.112 C 
ATOM     15  C   UNL     1      34.705 -17.647 -25.194  0.00  0.00    +0.016 C 
ATOM     16  C   UNL     1      34.934 -18.395 -24.037  0.00  0.00    +0.020 C 
ATOM     17  C   UNL     1      32.018 -12.406 -19.737  0.00  0.00    +0.004 C 
ATOM     18  C   UNL     1      31.408 -10.593 -21.849  0.00  0.00    +0.015 C 
ATOM     19  C   UNL     1      31.460 -11.155 -19.468  0.00  0.00    +0.000 C 
ATOM     20  C   UNL     1      31.158 -10.258 -20.513  0.00  0.00    +0.001 C 
ATOM     21  H   UNL     1      32.182 -11.955 -24.210  0.00  0.00    +0.152 HD
ATOM     22  H   UNL     1      33.985 -15.636 -27.007  0.00  0.00    +0.155 HD
ENDROOT
BRANCH  14  23
ATOM     23  S   UNL     1      34.914 -18.845 -21.343  0.00  0.00    +0.042 S 
ATOM     24  O   UNL     1      33.442 -19.104 -20.682  0.00  0.00    -0.065 OA
ATOM     25  O   UNL     1      35.419 -20.138 -21.779  0.00  0.00    -0.065 OA
ATOM     26  O   UNL     1      35.682 -18.017 -20.428  0.00  0.00    -0.065 OA
ENDBRANCH  14  23
TORSDOF 1
ENDMDL
