MODEL 1
REMARK VINA RESULT:      -9.8      0.000      0.000
REMARK  Name = 10379137
REMARK  6 active torsions:
REMARK  status: ('A' for Active; 'I' for Inactive)
REMARK    1  A    between atoms: C_2  and  C_8
REMARK    2  A    between atoms: C_3  and  C_16
REMARK    3  A    between atoms: C_8  and  C_9
REMARK    4  A    between atoms: C_9  and  C_10
REMARK    5  A    between atoms: C_17  and  C_20
REMARK    6  A    between atoms: N_19  and  O_22
REMARK                            x       y       z     vdW  Elec       q    Type
REMARK                         _______ _______ _______ _____ _____    ______ ____
ROOT
ATOM      1  N   UNL     1      33.766 -15.571 -24.956  0.00  0.00    -0.284 N 
ATOM      2  C   UNL     1      34.646 -17.136 -23.716  0.00  0.00    +0.051 C 
ATOM      3  C   UNL     1      33.926 -15.045 -23.700  0.00  0.00    +0.052 C 
ATOM      4  C   UNL     1      34.211 -16.867 -24.970  0.00  0.00    +0.068 C 
ATOM      5  C   UNL     1      34.481 -16.019 -22.902  0.00  0.00    +0.019 C 
ATOM      6  C   UNL     1      33.217 -14.897 -26.114  0.00  0.00    +0.117 C 
ENDROOT
BRANCH   2   8
ATOM      7  O   UNL     1      35.227 -19.383 -24.112  0.00  0.00    -0.291 OA
ATOM      8  C   UNL     1      35.208 -18.441 -23.318  0.00  0.00    +0.179 C 
BRANCH   8   9
ATOM      9  C   UNL     1      35.770 -18.621 -21.905  0.00  0.00    +0.095 C 
BRANCH   9  10
ATOM     10  C   UNL     1      35.004 -19.588 -21.068  0.00  0.00    -0.014 C 
ATOM     11  C   UNL     1      33.614 -19.496 -20.990  0.00  0.00    -0.004 C 
ATOM     12  C   UNL     1      35.678 -20.584 -20.360  0.00  0.00    -0.004 C 
ATOM     13  C   UNL     1      32.898 -20.401 -20.206  0.00  0.00    -0.000 C 
ATOM     14  C   UNL     1      34.960 -21.489 -19.576  0.00  0.00    -0.000 C 
ATOM     15  C   UNL     1      33.571 -21.397 -19.500  0.00  0.00    -0.000 C 
ENDBRANCH   9  10
ENDBRANCH   8   9
ENDBRANCH   2   8
BRANCH   3  16
ATOM     16  C   UNL     1      33.534 -13.718 -23.447  0.00  0.00    +0.020 C 
ATOM     17  C   UNL     1      32.416 -13.364 -22.766  0.00  0.00    +0.061 C 
BRANCH  17  20
ATOM     18  O   UNL     1      31.193 -11.568 -21.773  0.00  0.00    -0.268 OA
ATOM     19  N   UNL     1      32.910 -11.096 -23.247  0.00  0.00    -0.193 N 
ATOM     20  C   UNL     1      32.089 -11.929 -22.529  0.00  0.00    +0.268 C 
ATOM     21  H   UNL     1      33.615 -11.442 -23.840  0.00  0.00    +0.183 HD
BRANCH  19  22
ATOM     22  O   UNL     1      32.681  -9.724 -23.082  0.00  0.00    -0.295 OA
ATOM     23  H   UNL     1      31.738  -9.535 -23.214  0.00  0.00    +0.241 HD
ENDBRANCH  19  22
ENDBRANCH  17  20
ENDBRANCH   3  16
TORSDOF 6
ENDMDL
MODEL 2
REMARK VINA RESULT:      -9.7      7.416     11.471
REMARK  Name = 10379137
REMARK  6 active torsions:
REMARK  status: ('A' for Active; 'I' for Inactive)
REMARK    1  A    between atoms: C_2  and  C_8
REMARK    2  A    between atoms: C_3  and  C_16
REMARK    3  A    between atoms: C_8  and  C_9
REMARK    4  A    between atoms: C_9  and  C_10
REMARK    5  A    between atoms: C_17  and  C_20
REMARK    6  A    between atoms: N_19  and  O_22
REMARK                            x       y       z     vdW  Elec       q    Type
REMARK                         _______ _______ _______ _____ _____    ______ ____
ROOT
ATOM      1  N   UNL     1      32.530 -23.530 -15.131  0.00  0.00    -0.284 N 
ATOM      2  C   UNL     1      33.430 -23.285 -17.104  0.00  0.00    +0.051 C 
ATOM      3  C   UNL     1      33.876 -23.747 -14.987  0.00  0.00    +0.052 C 
ATOM      4  C   UNL     1      32.249 -23.243 -16.442  0.00  0.00    +0.068 C 
ATOM      5  C   UNL     1      34.462 -23.597 -16.223  0.00  0.00    +0.019 C 
ATOM      6  C   UNL     1      31.527 -23.585 -14.088  0.00  0.00    +0.117 C 
ENDROOT
BRANCH   2   8
ATOM      7  O   UNL     1      33.983 -23.901 -19.308  0.00  0.00    -0.291 OA
ATOM      8  C   UNL     1      33.554 -23.028 -18.551  0.00  0.00    +0.179 C 
BRANCH   8   9
ATOM      9  C   UNL     1      33.146 -21.664 -19.114  0.00  0.00    +0.095 C 
BRANCH   9  10
ATOM     10  C   UNL     1      34.263 -20.916 -19.759  0.00  0.00    -0.014 C 
ATOM     11  C   UNL     1      35.586 -21.214 -19.428  0.00  0.00    -0.004 C 
ATOM     12  C   UNL     1      33.986 -19.918 -20.693  0.00  0.00    -0.004 C 
ATOM     13  C   UNL     1      36.630 -20.514 -20.032  0.00  0.00    -0.000 C 
ATOM     14  C   UNL     1      35.032 -19.218 -21.296  0.00  0.00    -0.000 C 
ATOM     15  C   UNL     1      36.353 -19.516 -20.966  0.00  0.00    -0.000 C 
ENDBRANCH   9  10
ENDBRANCH   8   9
ENDBRANCH   2   8
BRANCH   3  16
ATOM     16  C   UNL     1      34.397 -24.060 -13.720  0.00  0.00    +0.020 C 
ATOM     17  C   UNL     1      35.616 -24.619 -13.507  0.00  0.00    +0.061 C 
BRANCH  17  20
ATOM     18  O   UNL     1      36.637 -25.956 -11.811  0.00  0.00    -0.268 OA
ATOM     19  N   UNL     1      35.860 -23.844 -11.281  0.00  0.00    -0.193 N 
ATOM     20  C   UNL     1      36.096 -24.901 -12.124  0.00  0.00    +0.268 C 
ATOM     21  H   UNL     1      35.420 -23.019 -11.587  0.00  0.00    +0.183 HD
BRANCH  19  22
ATOM     22  O   UNL     1      36.285 -24.015  -9.957  0.00  0.00    -0.295 OA
ATOM     23  H   UNL     1      36.474 -23.148  -9.563  0.00  0.00    +0.241 HD
ENDBRANCH  19  22
ENDBRANCH  17  20
ENDBRANCH   3  16
TORSDOF 6
ENDMDL
MODEL 3
REMARK VINA RESULT:      -9.4      7.339     10.072
REMARK  Name = 10379137
REMARK  6 active torsions:
REMARK  status: ('A' for Active; 'I' for Inactive)
REMARK    1  A    between atoms: C_2  and  C_8
REMARK    2  A    between atoms: C_3  and  C_16
REMARK    3  A    between atoms: C_8  and  C_9
REMARK    4  A    between atoms: C_9  and  C_10
REMARK    5  A    between atoms: C_17  and  C_20
REMARK    6  A    between atoms: N_19  and  O_22
REMARK                            x       y       z     vdW  Elec       q    Type
REMARK                         _______ _______ _______ _____ _____    ______ ____
ROOT
ATOM      1  N   UNL     1      31.641 -23.462 -14.936  0.00  0.00    -0.284 N 
ATOM      2  C   UNL     1      33.088 -23.131 -16.536  0.00  0.00    +0.051 C 
ATOM      3  C   UNL     1      30.941 -22.997 -16.019  0.00  0.00    +0.052 C 
ATOM      4  C   UNL     1      32.972 -23.547 -15.252  0.00  0.00    +0.068 C 
ATOM      5  C   UNL     1      31.838 -22.782 -17.041  0.00  0.00    +0.019 C 
ATOM      6  C   UNL     1      31.098 -23.820 -13.643  0.00  0.00    +0.117 C 
ENDROOT
BRANCH   2   8
ATOM      7  O   UNL     1      35.430 -22.926 -16.637  0.00  0.00    -0.291 OA
ATOM      8  C   UNL     1      34.375 -23.075 -17.254  0.00  0.00    +0.179 C 
BRANCH   8   9
ATOM      9  C   UNL     1      34.394 -23.203 -18.780  0.00  0.00    +0.095 C 
BRANCH   9  10
ATOM     10  C   UNL     1      34.478 -21.898 -19.496  0.00  0.00    -0.014 C 
ATOM     11  C   UNL     1      33.311 -21.216 -19.845  0.00  0.00    -0.004 C 
ATOM     12  C   UNL     1      35.723 -21.358 -19.819  0.00  0.00    -0.004 C 
ATOM     13  C   UNL     1      33.389 -19.995 -20.515  0.00  0.00    -0.000 C 
ATOM     14  C   UNL     1      35.801 -20.136 -20.489  0.00  0.00    -0.000 C 
ATOM     15  C   UNL     1      34.635 -19.455 -20.836  0.00  0.00    -0.000 C 
ENDBRANCH   9  10
ENDBRANCH   8   9
ENDBRANCH   2   8
BRANCH   3  16
ATOM     16  C   UNL     1      29.548 -22.828 -15.926  0.00  0.00    +0.020 C 
ATOM     17  C   UNL     1      28.750 -22.453 -16.957  0.00  0.00    +0.061 C 
BRANCH  17  20
ATOM     18  O   UNL     1      26.490 -22.276 -17.711  0.00  0.00    -0.268 OA
ATOM     19  N   UNL     1      26.938 -22.249 -15.444  0.00  0.00    -0.193 N 
ATOM     20  C   UNL     1      27.277 -22.316 -16.771  0.00  0.00    +0.268 C 
ATOM     21  H   UNL     1      27.613 -22.286 -14.729  0.00  0.00    +0.183 HD
BRANCH  19  22
ATOM     22  O   UNL     1      25.569 -22.126 -15.170  0.00  0.00    -0.295 OA
ATOM     23  H   UNL     1      25.104 -21.833 -15.970  0.00  0.00    +0.241 HD
ENDBRANCH  19  22
ENDBRANCH  17  20
ENDBRANCH   3  16
TORSDOF 6
ENDMDL
MODEL 4
REMARK VINA RESULT:      -9.4      7.290     11.710
REMARK  Name = 10379137
REMARK  6 active torsions:
REMARK  status: ('A' for Active; 'I' for Inactive)
REMARK    1  A    between atoms: C_2  and  C_8
REMARK    2  A    between atoms: C_3  and  C_16
REMARK    3  A    between atoms: C_8  and  C_9
REMARK    4  A    between atoms: C_9  and  C_10
REMARK    5  A    between atoms: C_17  and  C_20
REMARK    6  A    between atoms: N_19  and  O_22
REMARK                            x       y       z     vdW  Elec       q    Type
REMARK                         _______ _______ _______ _____ _____    ______ ____
ROOT
ATOM      1  N   UNL     1      34.521 -23.830 -14.546  0.00  0.00    -0.284 N 
ATOM      2  C   UNL     1      33.997 -23.206 -16.571  0.00  0.00    +0.051 C 
ATOM      3  C   UNL     1      35.696 -23.658 -15.229  0.00  0.00    +0.052 C 
ATOM      4  C   UNL     1      33.464 -23.550 -15.374  0.00  0.00    +0.068 C 
ATOM      5  C   UNL     1      35.386 -23.264 -16.511  0.00  0.00    +0.019 C 
ATOM      6  C   UNL     1      34.373 -24.240 -13.165  0.00  0.00    +0.117 C 
ENDROOT
BRANCH   2   8
ATOM      7  O   UNL     1      32.023 -22.434 -17.595  0.00  0.00    -0.291 OA
ATOM      8  C   UNL     1      33.180 -22.831 -17.740  0.00  0.00    +0.179 C 
BRANCH   8   9
ATOM      9  C   UNL     1      33.780 -22.937 -19.145  0.00  0.00    +0.095 C 
BRANCH   9  10
ATOM     10  C   UNL     1      34.104 -21.621 -19.767  0.00  0.00    -0.014 C 
ATOM     11  C   UNL     1      33.076 -20.777 -20.189  0.00  0.00    -0.004 C 
ATOM     12  C   UNL     1      35.435 -21.235 -19.927  0.00  0.00    -0.004 C 
ATOM     13  C   UNL     1      33.380 -19.546 -20.771  0.00  0.00    -0.000 C 
ATOM     14  C   UNL     1      35.737 -20.003 -20.509  0.00  0.00    -0.000 C 
ATOM     15  C   UNL     1      34.711 -19.159 -20.930  0.00  0.00    -0.000 C 
ENDBRANCH   9  10
ENDBRANCH   8   9
ENDBRANCH   2   8
BRANCH   3  16
ATOM     16  C   UNL     1      36.920 -23.890 -14.576  0.00  0.00    +0.020 C 
ATOM     17  C   UNL     1      37.662 -25.018 -14.711  0.00  0.00    +0.061 C 
BRANCH  17  20
ATOM     18  O   UNL     1      39.292 -24.443 -13.063  0.00  0.00    -0.268 OA
ATOM     19  N   UNL     1      39.699 -26.209 -14.498  0.00  0.00    -0.193 N 
ATOM     20  C   UNL     1      38.959 -25.170 -13.993  0.00  0.00    +0.268 C 
ATOM     21  H   UNL     1      39.382 -26.761 -15.248  0.00  0.00    +0.183 HD
BRANCH  19  22
ATOM     22  O   UNL     1      40.936 -26.433 -13.879  0.00  0.00    -0.295 OA
ATOM     23  H   UNL     1      40.804 -26.551 -12.925  0.00  0.00    +0.241 HD
ENDBRANCH  19  22
ENDBRANCH  17  20
ENDBRANCH   3  16
TORSDOF 6
ENDMDL
MODEL 5
REMARK VINA RESULT:      -9.3      6.818     10.050
REMARK  Name = 10379137
REMARK  6 active torsions:
REMARK  status: ('A' for Active; 'I' for Inactive)
REMARK    1  A    between atoms: C_2  and  C_8
REMARK    2  A    between atoms: C_3  and  C_16
REMARK    3  A    between atoms: C_8  and  C_9
REMARK    4  A    between atoms: C_9  and  C_10
REMARK    5  A    between atoms: C_17  and  C_20
REMARK    6  A    between atoms: N_19  and  O_22
REMARK                            x       y       z     vdW  Elec       q    Type
REMARK                         _______ _______ _______ _____ _____    ______ ____
ROOT
ATOM      1  N   UNL     1      33.231 -23.690 -15.319  0.00  0.00    -0.284 N 
ATOM      2  C   UNL     1      34.147 -22.902 -17.137  0.00  0.00    +0.051 C 
ATOM      3  C   UNL     1      32.210 -23.351 -16.168  0.00  0.00    +0.052 C 
ATOM      4  C   UNL     1      34.435 -23.414 -15.916  0.00  0.00    +0.068 C 
ATOM      5  C   UNL     1      32.768 -22.851 -17.322  0.00  0.00    +0.019 C 
ATOM      6  C   UNL     1      33.104 -24.256 -13.992  0.00  0.00    +0.117 C 
ENDROOT
BRANCH   2   8
ATOM      7  O   UNL     1      36.298 -22.132 -17.705  0.00  0.00    -0.291 OA
ATOM      8  C   UNL     1      35.182 -22.475 -18.097  0.00  0.00    +0.179 C 
BRANCH   8   9
ATOM      9  C   UNL     1      34.861 -22.460 -19.595  0.00  0.00    +0.095 C 
BRANCH   9  10
ATOM     10  C   UNL     1      34.546 -21.105 -20.133  0.00  0.00    -0.014 C 
ATOM     11  C   UNL     1      35.577 -20.260 -20.544  0.00  0.00    -0.004 C 
ATOM     12  C   UNL     1      33.219 -20.683 -20.224  0.00  0.00    -0.004 C 
ATOM     13  C   UNL     1      35.281 -18.993 -21.047  0.00  0.00    -0.000 C 
ATOM     14  C   UNL     1      32.925 -19.415 -20.727  0.00  0.00    -0.000 C 
ATOM     15  C   UNL     1      33.955 -18.571 -21.139  0.00  0.00    -0.000 C 
ENDBRANCH   9  10
ENDBRANCH   8   9
ENDBRANCH   2   8
BRANCH   3  16
ATOM     16  C   UNL     1      30.877 -23.548 -15.765  0.00  0.00    +0.020 C 
ATOM     17  C   UNL     1      29.805 -22.946 -16.338  0.00  0.00    +0.061 C 
BRANCH  17  20
ATOM     18  O   UNL     1      28.105 -24.294 -15.338  0.00  0.00    -0.268 OA
ATOM     19  N   UNL     1      27.586 -22.162 -16.063  0.00  0.00    -0.193 N 
ATOM     20  C   UNL     1      28.422 -23.229 -15.857  0.00  0.00    +0.268 C 
ATOM     21  H   UNL     1      27.895 -21.328 -16.485  0.00  0.00    +0.183 HD
BRANCH  19  22
ATOM     22  O   UNL     1      26.263 -22.333 -15.635  0.00  0.00    -0.295 OA
ATOM     23  H   UNL     1      26.165 -23.209 -15.228  0.00  0.00    +0.241 HD
ENDBRANCH  19  22
ENDBRANCH  17  20
ENDBRANCH   3  16
TORSDOF 6
ENDMDL
MODEL 6
REMARK VINA RESULT:      -9.3      1.402      1.568
REMARK  Name = 10379137
REMARK  6 active torsions:
REMARK  status: ('A' for Active; 'I' for Inactive)
REMARK    1  A    between atoms: C_2  and  C_8
REMARK    2  A    between atoms: C_3  and  C_16
REMARK    3  A    between atoms: C_8  and  C_9
REMARK    4  A    between atoms: C_9  and  C_10
REMARK    5  A    between atoms: C_17  and  C_20
REMARK    6  A    between atoms: N_19  and  O_22
REMARK                            x       y       z     vdW  Elec       q    Type
REMARK                         _______ _______ _______ _____ _____    ______ ____
ROOT
ATOM      1  N   UNL     1      33.620 -14.832 -24.135  0.00  0.00    -0.284 N 
ATOM      2  C   UNL     1      34.413 -15.899 -22.404  0.00  0.00    +0.051 C 
ATOM      3  C   UNL     1      33.704 -13.926 -23.110  0.00  0.00    +0.052 C 
ATOM      4  C   UNL     1      34.058 -16.057 -23.702  0.00  0.00    +0.068 C 
ATOM      5  C   UNL     1      34.203 -14.581 -22.007  0.00  0.00    +0.019 C 
ATOM      6  C   UNL     1      33.148 -14.577 -25.480  0.00  0.00    +0.117 C 
ENDROOT
BRANCH   2   8
ATOM      7  O   UNL     1      35.314 -16.783 -20.418  0.00  0.00    -0.291 OA
ATOM      8  C   UNL     1      34.941 -16.996 -21.572  0.00  0.00    +0.179 C 
BRANCH   8   9
ATOM      9  C   UNL     1      35.024 -18.411 -22.153  0.00  0.00    +0.095 C 
BRANCH   9  10
ATOM     10  C   UNL     1      34.634 -19.483 -21.193  0.00  0.00    -0.014 C 
ATOM     11  C   UNL     1      33.287 -19.695 -20.893  0.00  0.00    -0.004 C 
ATOM     12  C   UNL     1      35.615 -20.274 -20.595  0.00  0.00    -0.004 C 
ATOM     13  C   UNL     1      32.923 -20.699 -19.995  0.00  0.00    -0.000 C 
ATOM     14  C   UNL     1      35.249 -21.278 -19.697  0.00  0.00    -0.000 C 
ATOM     15  C   UNL     1      33.904 -21.490 -19.397  0.00  0.00    -0.000 C 
ENDBRANCH   9  10
ENDBRANCH   8   9
ENDBRANCH   2   8
BRANCH   3  16
ATOM     16  C   UNL     1      33.305 -12.595 -23.325  0.00  0.00    +0.020 C 
ATOM     17  C   UNL     1      32.475 -11.900 -22.507  0.00  0.00    +0.061 C 
BRANCH  17  20
ATOM     18  O   UNL     1      31.028  -9.999 -22.523  0.00  0.00    -0.268 OA
ATOM     19  N   UNL     1      33.155  -9.817 -23.409  0.00  0.00    -0.193 N 
ATOM     20  C   UNL     1      32.120 -10.483 -22.803  0.00  0.00    +0.268 C 
ATOM     21  H   UNL     1      34.012 -10.257 -23.611  0.00  0.00    +0.183 HD
BRANCH  19  22
ATOM     22  O   UNL     1      32.916  -8.473 -23.720  0.00  0.00    -0.295 OA
ATOM     23  H   UNL     1      33.639  -7.926 -23.374  0.00  0.00    +0.241 HD
ENDBRANCH  19  22
ENDBRANCH  17  20
ENDBRANCH   3  16
TORSDOF 6
ENDMDL
MODEL 7
REMARK VINA RESULT:      -9.1      1.622      2.223
REMARK  Name = 10379137
REMARK  6 active torsions:
REMARK  status: ('A' for Active; 'I' for Inactive)
REMARK    1  A    between atoms: C_2  and  C_8
REMARK    2  A    between atoms: C_3  and  C_16
REMARK    3  A    between atoms: C_8  and  C_9
REMARK    4  A    between atoms: C_9  and  C_10
REMARK    5  A    between atoms: C_17  and  C_20
REMARK    6  A    between atoms: N_19  and  O_22
REMARK                            x       y       z     vdW  Elec       q    Type
REMARK                         _______ _______ _______ _____ _____    ______ ____
ROOT
ATOM      1  N   UNL     1      33.618 -15.359 -21.450  0.00  0.00    -0.284 N 
ATOM      2  C   UNL     1      34.654 -17.099 -22.264  0.00  0.00    +0.051 C 
ATOM      3  C   UNL     1      34.269 -14.944 -22.583  0.00  0.00    +0.052 C 
ATOM      4  C   UNL     1      33.854 -16.694 -21.249  0.00  0.00    +0.068 C 
ATOM      5  C   UNL     1      34.930 -16.029 -23.112  0.00  0.00    +0.019 C 
ATOM      6  C   UNL     1      32.799 -14.546 -20.576  0.00  0.00    +0.117 C 
ENDROOT
BRANCH   2   8
ATOM      7  O   UNL     1      34.885 -19.134 -23.424  0.00  0.00    -0.291 OA
ATOM      8  C   UNL     1      35.138 -18.485 -22.408  0.00  0.00    +0.179 C 
BRANCH   8   9
ATOM      9  C   UNL     1      35.961 -19.118 -21.283  0.00  0.00    +0.095 C 
BRANCH   9  10
ATOM     10  C   UNL     1      35.224 -20.153 -20.502  0.00  0.00    -0.014 C 
ATOM     11  C   UNL     1      33.828 -20.176 -20.518  0.00  0.00    -0.004 C 
ATOM     12  C   UNL     1      35.929 -21.096 -19.755  0.00  0.00    -0.004 C 
ATOM     13  C   UNL     1      33.139 -21.144 -19.787  0.00  0.00    -0.000 C 
ATOM     14  C   UNL     1      35.239 -22.064 -19.025  0.00  0.00    -0.000 C 
ATOM     15  C   UNL     1      33.844 -22.089 -19.041  0.00  0.00    -0.000 C 
ENDBRANCH   9  10
ENDBRANCH   8   9
ENDBRANCH   2   8
BRANCH   3  16
ATOM     16  C   UNL     1      34.170 -13.601 -22.990  0.00  0.00    +0.020 C 
ATOM     17  C   UNL     1      33.822 -13.200 -24.238  0.00  0.00    +0.061 C 
BRANCH  17  20
ATOM     18  O   UNL     1      34.153 -11.284 -25.625  0.00  0.00    -0.268 OA
ATOM     19  N   UNL     1      33.101 -11.040 -23.581  0.00  0.00    -0.193 N 
ATOM     20  C   UNL     1      33.724 -11.751 -24.576  0.00  0.00    +0.268 C 
ATOM     21  H   UNL     1      32.776 -11.469 -22.757  0.00  0.00    +0.183 HD
BRANCH  19  22
ATOM     22  O   UNL     1      32.958  -9.666 -23.813  0.00  0.00    -0.295 OA
ATOM     23  H   UNL     1      32.417  -9.274 -23.109  0.00  0.00    +0.241 HD
ENDBRANCH  19  22
ENDBRANCH  17  20
ENDBRANCH   3  16
TORSDOF 6
ENDMDL
MODEL 8
REMARK VINA RESULT:      -9.0      4.691      8.780
REMARK  Name = 10379137
REMARK  6 active torsions:
REMARK  status: ('A' for Active; 'I' for Inactive)
REMARK    1  A    between atoms: C_2  and  C_8
REMARK    2  A    between atoms: C_3  and  C_16
REMARK    3  A    between atoms: C_8  and  C_9
REMARK    4  A    between atoms: C_9  and  C_10
REMARK    5  A    between atoms: C_17  and  C_20
REMARK    6  A    between atoms: N_19  and  O_22
REMARK                            x       y       z     vdW  Elec       q    Type
REMARK                         _______ _______ _______ _____ _____    ______ ____
ROOT
ATOM      1  N   UNL     1      34.118 -21.271 -19.517  0.00  0.00    -0.284 N 
ATOM      2  C   UNL     1      35.010 -19.947 -21.004  0.00  0.00    +0.051 C 
ATOM      3  C   UNL     1      35.472 -21.284 -19.303  0.00  0.00    +0.052 C 
ATOM      4  C   UNL     1      33.827 -20.443 -20.570  0.00  0.00    +0.068 C 
ATOM      5  C   UNL     1      36.053 -20.452 -20.234  0.00  0.00    +0.019 C 
ATOM      6  C   UNL     1      33.116 -22.003 -18.769  0.00  0.00    +0.117 C 
ENDROOT
BRANCH   2   8
ATOM      7  O   UNL     1      34.756 -19.335 -23.263  0.00  0.00    -0.291 OA
ATOM      8  C   UNL     1      35.125 -19.006 -22.135  0.00  0.00    +0.179 C 
BRANCH   8   9
ATOM      9  C   UNL     1      35.710 -17.611 -21.899  0.00  0.00    +0.095 C 
BRANCH   9  10
ATOM     10  C   UNL     1      34.716 -16.507 -22.027  0.00  0.00    -0.014 C 
ATOM     11  C   UNL     1      33.808 -16.264 -20.995  0.00  0.00    -0.004 C 
ATOM     12  C   UNL     1      34.692 -15.719 -23.177  0.00  0.00    -0.004 C 
ATOM     13  C   UNL     1      32.877 -15.231 -21.115  0.00  0.00    -0.000 C 
ATOM     14  C   UNL     1      33.761 -14.687 -23.296  0.00  0.00    -0.000 C 
ATOM     15  C   UNL     1      32.854 -14.443 -22.265  0.00  0.00    -0.000 C 
ENDBRANCH   9  10
ENDBRANCH   8   9
ENDBRANCH   2   8
BRANCH   3  16
ATOM     16  C   UNL     1      36.005 -22.070 -18.267  0.00  0.00    +0.020 C 
ATOM     17  C   UNL     1      36.701 -21.578 -17.210  0.00  0.00    +0.061 C 
BRANCH  17  20
ATOM     18  O   UNL     1      36.594 -22.717 -15.113  0.00  0.00    -0.268 OA
ATOM     19  N   UNL     1      38.436 -23.015 -16.477  0.00  0.00    -0.193 N 
ATOM     20  C   UNL     1      37.215 -22.486 -16.145  0.00  0.00    +0.268 C 
ATOM     21  H   UNL     1      38.890 -22.795 -17.322  0.00  0.00    +0.183 HD
BRANCH  19  22
ATOM     22  O   UNL     1      38.998 -23.888 -15.536  0.00  0.00    -0.295 OA
ATOM     23  H   UNL     1      39.604 -23.397 -14.959  0.00  0.00    +0.241 HD
ENDBRANCH  19  22
ENDBRANCH  17  20
ENDBRANCH   3  16
TORSDOF 6
ENDMDL
MODEL 9
REMARK VINA RESULT:      -9.0     10.191     11.436
REMARK  Name = 10379137
REMARK  6 active torsions:
REMARK  status: ('A' for Active; 'I' for Inactive)
REMARK    1  A    between atoms: C_2  and  C_8
REMARK    2  A    between atoms: C_3  and  C_16
REMARK    3  A    between atoms: C_8  and  C_9
REMARK    4  A    between atoms: C_9  and  C_10
REMARK    5  A    between atoms: C_17  and  C_20
REMARK    6  A    between atoms: N_19  and  O_22
REMARK                            x       y       z     vdW  Elec       q    Type
REMARK                         _______ _______ _______ _____ _____    ______ ____
ROOT
ATOM      1  N   UNL     1      31.783 -24.329 -14.518  0.00  0.00    -0.284 N 
ATOM      2  C   UNL     1      33.539 -23.520 -15.532  0.00  0.00    +0.051 C 
ATOM      3  C   UNL     1      31.338 -23.714 -15.660  0.00  0.00    +0.052 C 
ATOM      4  C   UNL     1      33.146 -24.212 -14.435  0.00  0.00    +0.068 C 
ATOM      5  C   UNL     1      32.434 -23.197 -16.314  0.00  0.00    +0.019 C 
ATOM      6  C   UNL     1      30.973 -25.008 -13.529  0.00  0.00    +0.117 C 
ENDROOT
BRANCH   2   8
ATOM      7  O   UNL     1      35.376 -23.202 -16.968  0.00  0.00    -0.291 OA
ATOM      8  C   UNL     1      34.947 -23.184 -15.814  0.00  0.00    +0.179 C 
BRANCH   8   9
ATOM      9  C   UNL     1      35.879 -22.810 -14.658  0.00  0.00    +0.095 C 
BRANCH   9  10
ATOM     10  C   UNL     1      36.823 -23.895 -14.265  0.00  0.00    -0.014 C 
ATOM     11  C   UNL     1      36.541 -24.698 -13.159  0.00  0.00    -0.004 C 
ATOM     12  C   UNL     1      37.987 -24.108 -15.002  0.00  0.00    -0.004 C 
ATOM     13  C   UNL     1      37.424 -25.714 -12.791  0.00  0.00    -0.000 C 
ATOM     14  C   UNL     1      38.870 -25.124 -14.634  0.00  0.00    -0.000 C 
ATOM     15  C   UNL     1      38.588 -25.927 -13.529  0.00  0.00    -0.000 C 
ENDBRANCH   9  10
ENDBRANCH   8   9
ENDBRANCH   2   8
BRANCH   3  16
ATOM     16  C   UNL     1      29.964 -23.708 -15.956  0.00  0.00    +0.020 C 
ATOM     17  C   UNL     1      29.285 -22.632 -16.427  0.00  0.00    +0.061 C 
BRANCH  17  20
ATOM     18  O   UNL     1      27.392 -23.286 -17.730  0.00  0.00    -0.268 OA
ATOM     19  N   UNL     1      27.070 -22.110 -15.767  0.00  0.00    -0.193 N 
ATOM     20  C   UNL     1      27.828 -22.722 -16.732  0.00  0.00    +0.268 C 
ATOM     21  H   UNL     1      27.474 -21.670 -14.984  0.00  0.00    +0.183 HD
BRANCH  19  22
ATOM     22  O   UNL     1      25.683 -22.149 -15.965  0.00  0.00    -0.295 OA
ATOM     23  H   UNL     1      25.281 -22.752 -15.319  0.00  0.00    +0.241 HD
ENDBRANCH  19  22
ENDBRANCH  17  20
ENDBRANCH   3  16
TORSDOF 6
ENDMDL
