MODEL 1
REMARK VINA RESULT:      -5.1      0.000      0.000
REMARK  Name = 25246035
REMARK  6 active torsions:
REMARK  status: ('A' for Active; 'I' for Inactive)
REMARK    1  A    between atoms: CA_1  and  N_2
REMARK    2  A    between atoms: CA_1  and  C_8
REMARK    3  A    between atoms: CA_1  and  C_9
REMARK    4  A    between atoms: C_9  and  C_10
REMARK    5  A    between atoms: C_10  and  O_11
REMARK    6  A    between atoms: O_11  and  N_12
REMARK                            x       y       z     vdW  Elec       q    Type
REMARK                         _______ _______ _______ _____ _____    ______ ____
ROOT
ATOM      1  CA  UNL     1      38.747 -25.658 -14.519  0.00  0.00    +0.043 C 
ENDROOT
BRANCH   1   2
ATOM      2  N   UNL     1      38.555 -26.092 -13.099  0.00  0.00    +0.389 N 
ATOM      3  H1  UNL     1      37.568 -26.015 -12.851  0.00  0.00    -0.088 HD
ATOM      4  H2  UNL     1      39.107 -25.495 -12.483  0.00  0.00    -0.088 HD
ATOM      5  H3  UNL     1      38.856 -27.060 -12.996  0.00  0.00    -0.088 HD
ENDBRANCH   1   2
BRANCH   1   8
ATOM      6  O   UNL     1      40.633 -26.088 -15.904  0.00  0.00    -0.248 OA
ATOM      7  OXT UNL     1      40.856 -24.635 -14.161  0.00  0.00    -0.248 OA
ATOM      8  C   UNL     1      40.220 -25.433 -14.906  0.00  0.00    +0.345 C 
ENDBRANCH   1   8
BRANCH   1   9
ATOM      9  C   UNL     1      37.812 -24.479 -14.803  0.00  0.00    +0.023 C 
BRANCH   9  10
ATOM     10  C   UNL     1      37.112 -23.907 -13.572  0.00  0.00    +0.164 C 
BRANCH  10  11
ATOM     11  O   UNL     1      37.937 -22.891 -13.015  0.00  0.00    -0.289 OA
BRANCH  11  12
ATOM     12  N   UNL     1      38.360 -23.347 -11.701  0.00  0.00    -0.214 NA
ATOM     13  H   UNL     1      37.538 -23.535 -11.126  0.00  0.00    +0.150 HD
ATOM     14  H   UNL     1      38.928 -22.626 -11.256  0.00  0.00    +0.150 HD
ENDBRANCH  11  12
ENDBRANCH  10  11
ENDBRANCH   9  10
ENDBRANCH   1   9
TORSDOF 6
ENDMDL
MODEL 2
REMARK VINA RESULT:      -5.1      2.368      3.099
REMARK  Name = 25246035
REMARK  6 active torsions:
REMARK  status: ('A' for Active; 'I' for Inactive)
REMARK    1  A    between atoms: CA_1  and  N_2
REMARK    2  A    between atoms: CA_1  and  C_8
REMARK    3  A    between atoms: CA_1  and  C_9
REMARK    4  A    between atoms: C_9  and  C_10
REMARK    5  A    between atoms: C_10  and  O_11
REMARK    6  A    between atoms: O_11  and  N_12
REMARK                            x       y       z     vdW  Elec       q    Type
REMARK                         _______ _______ _______ _____ _____    ______ ____
ROOT
ATOM      1  CA  UNL     1      39.061 -24.961 -13.957  0.00  0.00    +0.043 C 
ENDROOT
BRANCH   1   2
ATOM      2  N   UNL     1      38.264 -24.594 -15.169  0.00  0.00    +0.389 N 
ATOM      3  H1  UNL     1      38.236 -23.578 -15.263  0.00  0.00    -0.088 HD
ATOM      4  H2  UNL     1      37.314 -24.953 -15.072  0.00  0.00    -0.088 HD
ATOM      5  H3  UNL     1      38.699 -25.000 -15.997  0.00  0.00    -0.088 HD
ENDBRANCH   1   2
BRANCH   1   8
ATOM      6  O   UNL     1      40.801 -26.583 -13.931  0.00  0.00    -0.248 OA
ATOM      7  OXT UNL     1      41.230 -24.522 -14.810  0.00  0.00    -0.248 OA
ATOM      8  C   UNL     1      40.502 -25.404 -14.270  0.00  0.00    +0.345 C 
ENDBRANCH   1   8
BRANCH   1   9
ATOM      9  C   UNL     1      38.247 -25.945 -13.111  0.00  0.00    +0.023 C 
BRANCH   9  10
ATOM     10  C   UNL     1      37.153 -26.688 -13.874  0.00  0.00    +0.164 C 
BRANCH  10  11
ATOM     11  O   UNL     1      37.752 -27.379 -14.964  0.00  0.00    -0.289 OA
BRANCH  11  12
ATOM     12  N   UNL     1      36.876 -27.218 -16.114  0.00  0.00    -0.214 NA
ATOM     13  H   UNL     1      36.286 -26.396 -15.979  0.00  0.00    +0.150 HD
ATOM     14  H   UNL     1      36.287 -28.046 -16.212  0.00  0.00    +0.150 HD
ENDBRANCH  11  12
ENDBRANCH  10  11
ENDBRANCH   9  10
ENDBRANCH   1   9
TORSDOF 6
ENDMDL
MODEL 3
REMARK VINA RESULT:      -5.1      2.170      2.524
REMARK  Name = 25246035
REMARK  6 active torsions:
REMARK  status: ('A' for Active; 'I' for Inactive)
REMARK    1  A    between atoms: CA_1  and  N_2
REMARK    2  A    between atoms: CA_1  and  C_8
REMARK    3  A    between atoms: CA_1  and  C_9
REMARK    4  A    between atoms: C_9  and  C_10
REMARK    5  A    between atoms: C_10  and  O_11
REMARK    6  A    between atoms: O_11  and  N_12
REMARK                            x       y       z     vdW  Elec       q    Type
REMARK                         _______ _______ _______ _____ _____    ______ ____
ROOT
ATOM      1  CA  UNL     1      37.861 -25.091 -13.256  0.00  0.00    +0.043 C 
ENDROOT
BRANCH   1   2
ATOM      2  N   UNL     1      36.955 -26.181 -12.775  0.00  0.00    +0.389 N 
ATOM      3  H1  UNL     1      36.054 -25.781 -12.512  0.00  0.00    -0.088 HD
ATOM      4  H2  UNL     1      37.373 -26.639 -11.966  0.00  0.00    -0.088 HD
ATOM      5  H3  UNL     1      36.819 -26.863 -13.521  0.00  0.00    -0.088 HD
ENDBRANCH   1   2
BRANCH   1   8
ATOM      6  O   UNL     1      40.154 -24.858 -13.847  0.00  0.00    -0.248 OA
ATOM      7  OXT UNL     1      39.016 -26.703 -14.555  0.00  0.00    -0.248 OA
ATOM      8  C   UNL     1      39.139 -25.603 -13.945  0.00  0.00    +0.345 C 
ENDBRANCH   1   8
BRANCH   1   9
ATOM      9  C   UNL     1      38.092 -24.102 -12.110  0.00  0.00    +0.023 C 
BRANCH   9  10
ATOM     10  C   UNL     1      36.818 -23.497 -11.523  0.00  0.00    +0.164 C 
BRANCH  10  11
ATOM     11  O   UNL     1      36.540 -24.142 -10.286  0.00  0.00    -0.289 OA
BRANCH  11  12
ATOM     12  N   UNL     1      35.345 -24.949 -10.477  0.00  0.00    -0.214 NA
ATOM     13  H   UNL     1      35.477 -25.566 -11.280  0.00  0.00    +0.150 HD
ATOM     14  H   UNL     1      34.545 -24.340 -10.645  0.00  0.00    +0.150 HD
ENDBRANCH  11  12
ENDBRANCH  10  11
ENDBRANCH   9  10
ENDBRANCH   1   9
TORSDOF 6
ENDMDL
MODEL 4
REMARK VINA RESULT:      -5.0      3.030      3.401
REMARK  Name = 25246035
REMARK  6 active torsions:
REMARK  status: ('A' for Active; 'I' for Inactive)
REMARK    1  A    between atoms: CA_1  and  N_2
REMARK    2  A    between atoms: CA_1  and  C_8
REMARK    3  A    between atoms: CA_1  and  C_9
REMARK    4  A    between atoms: C_9  and  C_10
REMARK    5  A    between atoms: C_10  and  O_11
REMARK    6  A    between atoms: O_11  and  N_12
REMARK                            x       y       z     vdW  Elec       q    Type
REMARK                         _______ _______ _______ _____ _____    ______ ____
ROOT
ATOM      1  CA  UNL     1      36.630 -25.548 -14.277  0.00  0.00    +0.043 C 
ENDROOT
BRANCH   1   2
ATOM      2  N   UNL     1      35.189 -25.341 -14.625  0.00  0.00    +0.389 N 
ATOM      3  H1  UNL     1      34.915 -24.388 -14.383  0.00  0.00    -0.088 HD
ATOM      4  H2  UNL     1      34.614 -26.003 -14.105  0.00  0.00    -0.088 HD
ATOM      5  H3  UNL     1      35.057 -25.488 -15.626  0.00  0.00    -0.088 HD
ENDBRANCH   1   2
BRANCH   1   8
ATOM      6  O   UNL     1      38.435 -27.057 -14.631  0.00  0.00    -0.248 OA
ATOM      7  OXT UNL     1      36.636 -27.142 -16.032  0.00  0.00    -0.248 OA
ATOM      8  C   UNL     1      37.296 -26.701 -15.048  0.00  0.00    +0.345 C 
ENDBRANCH   1   8
BRANCH   1   9
ATOM      9  C   UNL     1      36.761 -25.623 -12.753  0.00  0.00    +0.023 C 
BRANCH   9  10
ATOM     10  C   UNL     1      35.930 -24.594 -11.990  0.00  0.00    +0.164 C 
BRANCH  10  11
ATOM     11  O   UNL     1      35.362 -25.227 -10.849  0.00  0.00    -0.289 OA
BRANCH  11  12
ATOM     12  N   UNL     1      35.656 -24.390  -9.697  0.00  0.00    -0.214 NA
ATOM     13  H   UNL     1      34.806 -24.258  -9.147  0.00  0.00    +0.150 HD
ATOM     14  H   UNL     1      36.001 -23.484 -10.013  0.00  0.00    +0.150 HD
ENDBRANCH  11  12
ENDBRANCH  10  11
ENDBRANCH   9  10
ENDBRANCH   1   9
TORSDOF 6
ENDMDL
MODEL 5
REMARK VINA RESULT:      -4.9      2.290      4.116
REMARK  Name = 25246035
REMARK  6 active torsions:
REMARK  status: ('A' for Active; 'I' for Inactive)
REMARK    1  A    between atoms: CA_1  and  N_2
REMARK    2  A    between atoms: CA_1  and  C_8
REMARK    3  A    between atoms: CA_1  and  C_9
REMARK    4  A    between atoms: C_9  and  C_10
REMARK    5  A    between atoms: C_10  and  O_11
REMARK    6  A    between atoms: O_11  and  N_12
REMARK                            x       y       z     vdW  Elec       q    Type
REMARK                         _______ _______ _______ _____ _____    ______ ____
ROOT
ATOM      1  CA  UNL     1      37.619 -25.126 -12.331  0.00  0.00    +0.043 C 
ENDROOT
BRANCH   1   2
ATOM      2  N   UNL     1      36.396 -25.635 -13.028  0.00  0.00    +0.389 N 
ATOM      3  H1  UNL     1      36.140 -26.545 -12.643  0.00  0.00    -0.088 HD
ATOM      4  H2  UNL     1      36.588 -25.731 -14.025  0.00  0.00    -0.088 HD
ATOM      5  H3  UNL     1      35.628 -24.979 -12.890  0.00  0.00    -0.088 HD
ENDBRANCH   1   2
BRANCH   1   8
ATOM      6  O   UNL     1      38.647 -23.092 -11.648  0.00  0.00    -0.248 OA
ATOM      7  OXT UNL     1      36.395 -23.121 -12.008  0.00  0.00    -0.248 OA
ATOM      8  C   UNL     1      37.550 -23.631 -11.968  0.00  0.00    +0.345 C 
ENDBRANCH   1   8
BRANCH   1   9
ATOM      9  C   UNL     1      38.853 -25.545 -13.134  0.00  0.00    +0.023 C 
BRANCH   9  10
ATOM     10  C   UNL     1      38.615 -25.706 -14.633  0.00  0.00    +0.164 C 
BRANCH  10  11
ATOM     11  O   UNL     1      38.199 -27.043 -14.885  0.00  0.00    -0.289 OA
BRANCH  11  12
ATOM     12  N   UNL     1      37.109 -26.985 -15.846  0.00  0.00    -0.214 NA
ATOM     13  H   UNL     1      36.860 -26.010 -16.019  0.00  0.00    +0.150 HD
ATOM     14  H   UNL     1      36.300 -27.482 -15.475  0.00  0.00    +0.150 HD
ENDBRANCH  11  12
ENDBRANCH  10  11
ENDBRANCH   9  10
ENDBRANCH   1   9
TORSDOF 6
ENDMDL
MODEL 6
REMARK VINA RESULT:      -4.8      2.375      3.477
REMARK  Name = 25246035
REMARK  6 active torsions:
REMARK  status: ('A' for Active; 'I' for Inactive)
REMARK    1  A    between atoms: CA_1  and  N_2
REMARK    2  A    between atoms: CA_1  and  C_8
REMARK    3  A    between atoms: CA_1  and  C_9
REMARK    4  A    between atoms: C_9  and  C_10
REMARK    5  A    between atoms: C_10  and  O_11
REMARK    6  A    between atoms: O_11  and  N_12
REMARK                            x       y       z     vdW  Elec       q    Type
REMARK                         _______ _______ _______ _____ _____    ______ ____
ROOT
ATOM      1  CA  UNL     1      37.246 -25.484 -14.126  0.00  0.00    +0.043 C 
ENDROOT
BRANCH   1   2
ATOM      2  N   UNL     1      36.430 -25.574 -12.874  0.00  0.00    +0.389 N 
ATOM      3  H1  UNL     1      35.466 -25.307 -13.077  0.00  0.00    -0.088 HD
ATOM      4  H2  UNL     1      36.816 -24.944 -12.171  0.00  0.00    -0.088 HD
ATOM      5  H3  UNL     1      36.451 -26.531 -12.522  0.00  0.00    -0.088 HD
ENDBRANCH   1   2
BRANCH   1   8
ATOM      6  O   UNL     1      38.067 -27.610 -14.810  0.00  0.00    -0.248 OA
ATOM      7  OXT UNL     1      36.229 -26.751 -15.853  0.00  0.00    -0.248 OA
ATOM      8  C   UNL     1      37.170 -26.743 -15.009  0.00  0.00    +0.345 C 
ENDBRANCH   1   8
BRANCH   1   9
ATOM      9  C   UNL     1      38.662 -25.032 -13.758  0.00  0.00    +0.023 C 
BRANCH   9  10
ATOM     10  C   UNL     1      39.554 -24.696 -14.951  0.00  0.00    +0.164 C 
BRANCH  10  11
ATOM     11  O   UNL     1      40.888 -25.084 -14.642  0.00  0.00    -0.289 OA
BRANCH  11  12
ATOM     12  N   UNL     1      40.910 -26.536 -14.566  0.00  0.00    -0.214 NA
ATOM     13  H   UNL     1      40.128 -26.916 -15.100  0.00  0.00    +0.150 HD
ATOM     14  H   UNL     1      40.829 -26.827 -13.592  0.00  0.00    +0.150 HD
ENDBRANCH  11  12
ENDBRANCH  10  11
ENDBRANCH   9  10
ENDBRANCH   1   9
TORSDOF 6
ENDMDL
MODEL 7
REMARK VINA RESULT:      -4.8      2.043      3.889
REMARK  Name = 25246035
REMARK  6 active torsions:
REMARK  status: ('A' for Active; 'I' for Inactive)
REMARK    1  A    between atoms: CA_1  and  N_2
REMARK    2  A    between atoms: CA_1  and  C_8
REMARK    3  A    between atoms: CA_1  and  C_9
REMARK    4  A    between atoms: C_9  and  C_10
REMARK    5  A    between atoms: C_10  and  O_11
REMARK    6  A    between atoms: O_11  and  N_12
REMARK                            x       y       z     vdW  Elec       q    Type
REMARK                         _______ _______ _______ _____ _____    ______ ____
ROOT
ATOM      1  CA  UNL     1      37.870 -25.767 -13.131  0.00  0.00    +0.043 C 
ENDROOT
BRANCH   1   2
ATOM      2  N   UNL     1      36.943 -26.815 -13.664  0.00  0.00    +0.389 N 
ATOM      3  H1  UNL     1      37.483 -27.522 -14.164  0.00  0.00    -0.088 HD
ATOM      4  H2  UNL     1      36.274 -26.385 -14.301  0.00  0.00    -0.088 HD
ATOM      5  H3  UNL     1      36.445 -27.254 -12.890  0.00  0.00    -0.088 HD
ENDBRANCH   1   2
BRANCH   1   8
ATOM      6  O   UNL     1      36.211 -25.427 -11.459  0.00  0.00    -0.248 OA
ATOM      7  OXT UNL     1      38.023 -24.042 -11.512  0.00  0.00    -0.248 OA
ATOM      8  C   UNL     1      37.317 -25.012 -11.909  0.00  0.00    +0.345 C 
ENDBRANCH   1   8
BRANCH   1   9
ATOM      9  C   UNL     1      38.329 -24.880 -14.292  0.00  0.00    +0.023 C 
BRANCH   9  10
ATOM     10  C   UNL     1      39.674 -25.271 -14.900  0.00  0.00    +0.164 C 
BRANCH  10  11
ATOM     11  O   UNL     1      39.893 -26.656 -14.663  0.00  0.00    -0.289 OA
BRANCH  11  12
ATOM     12  N   UNL     1      41.216 -26.792 -14.075  0.00  0.00    -0.214 NA
ATOM     13  H   UNL     1      41.146 -26.723 -13.059  0.00  0.00    +0.150 HD
ATOM     14  H   UNL     1      41.822 -26.050 -14.425  0.00  0.00    +0.150 HD
ENDBRANCH  11  12
ENDBRANCH  10  11
ENDBRANCH   9  10
ENDBRANCH   1   9
TORSDOF 6
ENDMDL
MODEL 8
REMARK VINA RESULT:      -4.8     12.650     13.408
REMARK  Name = 25246035
REMARK  6 active torsions:
REMARK  status: ('A' for Active; 'I' for Inactive)
REMARK    1  A    between atoms: CA_1  and  N_2
REMARK    2  A    between atoms: CA_1  and  C_8
REMARK    3  A    between atoms: CA_1  and  C_9
REMARK    4  A    between atoms: C_9  and  C_10
REMARK    5  A    between atoms: C_10  and  O_11
REMARK    6  A    between atoms: O_11  and  N_12
REMARK                            x       y       z     vdW  Elec       q    Type
REMARK                         _______ _______ _______ _____ _____    ______ ____
ROOT
ATOM      1  CA  UNL     1      34.524 -16.582 -22.562  0.00  0.00    +0.043 C 
ENDROOT
BRANCH   1   2
ATOM      2  N   UNL     1      34.659 -15.205 -23.132  0.00  0.00    +0.389 N 
ATOM      3  H1  UNL     1      35.600 -15.084 -23.508  0.00  0.00    -0.088 HD
ATOM      4  H2  UNL     1      34.495 -14.516 -22.399  0.00  0.00    -0.088 HD
ATOM      5  H3  UNL     1      33.976 -15.078 -23.879  0.00  0.00    -0.088 HD
ENDBRANCH   1   2
BRANCH   1   8
ATOM      6  O   UNL     1      34.908 -15.622 -20.420  0.00  0.00    -0.248 OA
ATOM      7  OXT UNL     1      35.345 -17.839 -20.727  0.00  0.00    -0.248 OA
ATOM      8  C   UNL     1      34.959 -16.691 -21.090  0.00  0.00    +0.345 C 
ENDBRANCH   1   8
BRANCH   1   9
ATOM      9  C   UNL     1      35.196 -17.576 -23.515  0.00  0.00    +0.023 C 
BRANCH   9  10
ATOM     10  C   UNL     1      34.474 -17.771 -24.846  0.00  0.00    +0.164 C 
BRANCH  10  11
ATOM     11  O   UNL     1      34.917 -16.766 -25.751  0.00  0.00    -0.289 OA
BRANCH  11  12
ATOM     12  N   UNL     1      33.761 -15.953 -26.096  0.00  0.00    -0.214 NA
ATOM     13  H   UNL     1      33.906 -15.528 -27.013  0.00  0.00    +0.150 HD
ATOM     14  H   UNL     1      33.640 -15.221 -25.397  0.00  0.00    +0.150 HD
ENDBRANCH  11  12
ENDBRANCH  10  11
ENDBRANCH   9  10
ENDBRANCH   1   9
TORSDOF 6
ENDMDL
MODEL 9
REMARK VINA RESULT:      -4.7      8.431      9.707
REMARK  Name = 25246035
REMARK  6 active torsions:
REMARK  status: ('A' for Active; 'I' for Inactive)
REMARK    1  A    between atoms: CA_1  and  N_2
REMARK    2  A    between atoms: CA_1  and  C_8
REMARK    3  A    between atoms: CA_1  and  C_9
REMARK    4  A    between atoms: C_9  and  C_10
REMARK    5  A    between atoms: C_10  and  O_11
REMARK    6  A    between atoms: O_11  and  N_12
REMARK                            x       y       z     vdW  Elec       q    Type
REMARK                         _______ _______ _______ _____ _____    ______ ____
ROOT
ATOM      1  CA  UNL     1      29.274 -23.620 -15.420  0.00  0.00    +0.043 C 
ENDROOT
BRANCH   1   2
ATOM      2  N   UNL     1      28.960 -24.991 -14.908  0.00  0.00    +0.389 N 
ATOM      3  H1  UNL     1      28.192 -24.936 -14.238  0.00  0.00    -0.088 HD
ATOM      4  H2  UNL     1      29.784 -25.380 -14.450  0.00  0.00    -0.088 HD
ATOM      5  H3  UNL     1      28.688 -25.591 -15.687  0.00  0.00    -0.088 HD
ENDBRANCH   1   2
BRANCH   1   8
ATOM      6  O   UNL     1      27.921 -24.193 -17.291  0.00  0.00    -0.248 OA
ATOM      7  OXT UNL     1      28.566 -22.022 -17.022  0.00  0.00    -0.248 OA
ATOM      8  C   UNL     1      28.504 -23.242 -16.698  0.00  0.00    +0.345 C 
ENDBRANCH   1   8
BRANCH   1   9
ATOM      9  C   UNL     1      30.795 -23.465 -15.507  0.00  0.00    +0.023 C 
BRANCH   9  10
ATOM     10  C   UNL     1      31.465 -23.009 -14.213  0.00  0.00    +0.164 C 
BRANCH  10  11
ATOM     11  O   UNL     1      31.140 -23.937 -13.184  0.00  0.00    -0.289 OA
BRANCH  11  12
ATOM     12  N   UNL     1      31.943 -25.130 -13.406  0.00  0.00    -0.214 NA
ATOM     13  H   UNL     1      31.768 -25.487 -14.346  0.00  0.00    +0.150 HD
ATOM     14  H   UNL     1      31.692 -25.841 -12.720  0.00  0.00    +0.150 HD
ENDBRANCH  11  12
ENDBRANCH  10  11
ENDBRANCH   9  10
ENDBRANCH   1   9
TORSDOF 6
ENDMDL
