MODEL 1
REMARK VINA RESULT:      -7.0      0.000      0.000
REMARK  Name = 439236
REMARK  8 active torsions:
REMARK  status: ('A' for Active; 'I' for Inactive)
REMARK    1  A    between atoms: C_2  and  O_6
REMARK    2  A    between atoms: C_3  and  O_8
REMARK    3  A    between atoms: C_4  and  C_17
REMARK    4  A    between atoms: C_5  and  O_10
REMARK    5  A    between atoms: O_10  and  P_11
REMARK    6  A    between atoms: P_11  and  O_13
REMARK    7  A    between atoms: P_11  and  O_15
REMARK    8  A    between atoms: C_17  and  O_18
REMARK                            x       y       z     vdW  Elec       q    Type
REMARK                         _______ _______ _______ _____ _____    ______ ____
ROOT
ATOM      1  O   UNL     1      38.149 -24.029 -14.534  0.00  0.00    -0.326 OA
ATOM      2  C   UNL     1      36.138 -25.279 -14.225  0.00  0.00    +0.172 C 
ATOM      3  C   UNL     1      36.931 -25.227 -12.935  0.00  0.00    +0.197 C 
ATOM      4  C   UNL     1      36.803 -24.175 -15.044  0.00  0.00    +0.176 C 
ATOM      5  C   UNL     1      38.336 -24.929 -13.430  0.00  0.00    +0.274 C 
ENDROOT
BRANCH   2   6
ATOM      6  O   UNL     1      36.339 -26.534 -14.870  0.00  0.00    -0.379 OA
ATOM      7  H   UNL     1      35.540 -27.076 -14.780  0.00  0.00    +0.211 HD
ENDBRANCH   2   6
BRANCH   3   8
ATOM      8  O   UNL     1      36.850 -26.402 -12.161  0.00  0.00    -0.378 OA
ATOM      9  H   UNL     1      35.968 -26.794 -12.259  0.00  0.00    +0.211 HD
ENDBRANCH   3   8
BRANCH   5  10
ATOM     10  O   UNL     1      38.986 -26.121 -13.858  0.00  0.00    -0.245 OA
BRANCH  10  11
ATOM     11  P   UNL     1      40.482 -26.009 -14.468  0.00  0.00    +0.475 P 
ATOM     12  O   UNL     1      41.417 -27.109 -14.059  0.00  0.00    -0.227 OA
BRANCH  11  13
ATOM     13  O   UNL     1      40.951 -24.516 -14.062  0.00  0.00    -0.303 OA
ATOM     14  H   UNL     1      41.626 -24.566 -13.368  0.00  0.00    +0.222 HD
ENDBRANCH  11  13
BRANCH  11  15
ATOM     15  O   UNL     1      40.216 -25.896 -16.059  0.00  0.00    -0.303 OA
ATOM     16  H   UNL     1      40.835 -25.256 -16.445  0.00  0.00    +0.222 HD
ENDBRANCH  11  15
ENDBRANCH  10  11
ENDBRANCH   5  10
BRANCH   4  17
ATOM     17  C   UNL     1      36.106 -22.829 -14.899  0.00  0.00    +0.169 C 
BRANCH  17  18
ATOM     18  O   UNL     1      34.742 -23.053 -14.577  0.00  0.00    -0.379 OA
ATOM     19  H   UNL     1      34.284 -22.201 -14.504  0.00  0.00    +0.211 HD
ENDBRANCH  17  18
ENDBRANCH   4  17
TORSDOF 8
ENDMDL
MODEL 2
REMARK VINA RESULT:      -6.9      1.772      3.154
REMARK  Name = 439236
REMARK  8 active torsions:
REMARK  status: ('A' for Active; 'I' for Inactive)
REMARK    1  A    between atoms: C_2  and  O_6
REMARK    2  A    between atoms: C_3  and  O_8
REMARK    3  A    between atoms: C_4  and  C_17
REMARK    4  A    between atoms: C_5  and  O_10
REMARK    5  A    between atoms: O_10  and  P_11
REMARK    6  A    between atoms: P_11  and  O_13
REMARK    7  A    between atoms: P_11  and  O_15
REMARK    8  A    between atoms: C_17  and  O_18
REMARK                            x       y       z     vdW  Elec       q    Type
REMARK                         _______ _______ _______ _____ _____    ______ ____
ROOT
ATOM      1  O   UNL     1      37.267 -25.465 -12.569  0.00  0.00    -0.326 OA
ATOM      2  C   UNL     1      37.165 -23.099 -12.259  0.00  0.00    +0.172 C 
ATOM      3  C   UNL     1      37.027 -23.445 -13.727  0.00  0.00    +0.197 C 
ATOM      4  C   UNL     1      36.920 -24.453 -11.594  0.00  0.00    +0.176 C 
ATOM      5  C   UNL     1      37.657 -24.826 -13.795  0.00  0.00    +0.274 C 
ENDROOT
BRANCH   2   6
ATOM      6  O   UNL     1      38.497 -22.671 -11.982  0.00  0.00    -0.379 OA
ATOM      7  H   UNL     1      38.511 -21.708 -11.874  0.00  0.00    +0.211 HD
ENDBRANCH   2   6
BRANCH   3   8
ATOM      8  O   UNL     1      37.629 -22.515 -14.598  0.00  0.00    -0.378 OA
ATOM      9  H   UNL     1      37.266 -21.631 -14.427  0.00  0.00    +0.211 HD
ENDBRANCH   3   8
BRANCH   5  10
ATOM     10  O   UNL     1      39.074 -24.733 -13.884  0.00  0.00    -0.245 OA
BRANCH  10  11
ATOM     11  P   UNL     1      39.893 -25.977 -14.520  0.00  0.00    +0.475 P 
ATOM     12  O   UNL     1      41.095 -26.413 -13.735  0.00  0.00    -0.227 OA
BRANCH  11  13
ATOM     13  O   UNL     1      40.191 -25.504 -16.037  0.00  0.00    -0.303 OA
ATOM     14  H   UNL     1      40.132 -26.268 -16.632  0.00  0.00    +0.222 HD
ENDBRANCH  11  13
BRANCH  11  15
ATOM     15  O   UNL     1      38.749 -27.106 -14.701  0.00  0.00    -0.303 OA
ATOM     16  H   UNL     1      37.884 -26.727 -14.482  0.00  0.00    +0.222 HD
ENDBRANCH  11  15
ENDBRANCH  10  11
ENDBRANCH   5  10
BRANCH   4  17
ATOM     17  C   UNL     1      35.464 -24.665 -11.206  0.00  0.00    +0.169 C 
BRANCH  17  18
ATOM     18  O   UNL     1      35.351 -24.585  -9.794  0.00  0.00    -0.379 OA
ATOM     19  H   UNL     1      34.890 -25.371  -9.461  0.00  0.00    +0.211 HD
ENDBRANCH  17  18
ENDBRANCH   4  17
TORSDOF 8
ENDMDL
MODEL 3
REMARK VINA RESULT:      -6.9      2.503      4.557
REMARK  Name = 439236
REMARK  8 active torsions:
REMARK  status: ('A' for Active; 'I' for Inactive)
REMARK    1  A    between atoms: C_2  and  O_6
REMARK    2  A    between atoms: C_3  and  O_8
REMARK    3  A    between atoms: C_4  and  C_17
REMARK    4  A    between atoms: C_5  and  O_10
REMARK    5  A    between atoms: O_10  and  P_11
REMARK    6  A    between atoms: P_11  and  O_13
REMARK    7  A    between atoms: P_11  and  O_15
REMARK    8  A    between atoms: C_17  and  O_18
REMARK                            x       y       z     vdW  Elec       q    Type
REMARK                         _______ _______ _______ _____ _____    ______ ____
ROOT
ATOM      1  O   UNL     1      38.953 -24.590 -13.087  0.00  0.00    -0.326 OA
ATOM      2  C   UNL     1      38.047 -26.133 -14.669  0.00  0.00    +0.172 C 
ATOM      3  C   UNL     1      37.168 -24.904 -14.568  0.00  0.00    +0.197 C 
ATOM      4  C   UNL     1      39.330 -25.656 -13.990  0.00  0.00    +0.176 C 
ATOM      5  C   UNL     1      37.542 -24.349 -13.204  0.00  0.00    +0.274 C 
ENDROOT
BRANCH   2   6
ATOM      6  O   UNL     1      37.481 -27.201 -13.912  0.00  0.00    -0.379 OA
ATOM      7  H   UNL     1      37.908 -28.035 -14.160  0.00  0.00    +0.211 HD
ENDBRANCH   2   6
BRANCH   3   8
ATOM      8  O   UNL     1      35.790 -25.167 -14.705  0.00  0.00    -0.378 OA
ATOM      9  H   UNL     1      35.598 -26.060 -14.379  0.00  0.00    +0.211 HD
ENDBRANCH   3   8
BRANCH   5  10
ATOM     10  O   UNL     1      36.830 -25.022 -12.171  0.00  0.00    -0.245 OA
BRANCH  10  11
ATOM     11  P   UNL     1      35.918 -24.143 -11.162  0.00  0.00    +0.475 P 
ATOM     12  O   UNL     1      35.371 -24.896  -9.984  0.00  0.00    -0.227 OA
BRANCH  11  13
ATOM     13  O   UNL     1      34.810 -23.474 -12.130  0.00  0.00    -0.303 OA
ATOM     14  H   UNL     1      34.016 -23.261 -11.615  0.00  0.00    +0.222 HD
ENDBRANCH  11  13
BRANCH  11  15
ATOM     15  O   UNL     1      36.885 -22.901 -10.790  0.00  0.00    -0.303 OA
ATOM     16  H   UNL     1      36.465 -22.360 -10.103  0.00  0.00    +0.222 HD
ENDBRANCH  11  15
ENDBRANCH  10  11
ENDBRANCH   5  10
BRANCH   4  17
ATOM     17  C   UNL     1      40.344 -25.091 -14.975  0.00  0.00    +0.169 C 
BRANCH  17  18
ATOM     18  O   UNL     1      40.373 -25.918 -16.127  0.00  0.00    -0.379 OA
ATOM     19  H   UNL     1      39.556 -25.794 -16.634  0.00  0.00    +0.211 HD
ENDBRANCH  17  18
ENDBRANCH   4  17
TORSDOF 8
ENDMDL
MODEL 4
REMARK VINA RESULT:      -6.7      1.796      2.270
REMARK  Name = 439236
REMARK  8 active torsions:
REMARK  status: ('A' for Active; 'I' for Inactive)
REMARK    1  A    between atoms: C_2  and  O_6
REMARK    2  A    between atoms: C_3  and  O_8
REMARK    3  A    between atoms: C_4  and  C_17
REMARK    4  A    between atoms: C_5  and  O_10
REMARK    5  A    between atoms: O_10  and  P_11
REMARK    6  A    between atoms: P_11  and  O_13
REMARK    7  A    between atoms: P_11  and  O_15
REMARK    8  A    between atoms: C_17  and  O_18
REMARK                            x       y       z     vdW  Elec       q    Type
REMARK                         _______ _______ _______ _____ _____    ______ ____
ROOT
ATOM      1  O   UNL     1      36.577 -24.264 -14.415  0.00  0.00    -0.326 OA
ATOM      2  C   UNL     1      35.993 -24.715 -12.143  0.00  0.00    +0.172 C 
ATOM      3  C   UNL     1      36.856 -23.473 -12.230  0.00  0.00    +0.197 C 
ATOM      4  C   UNL     1      35.565 -24.900 -13.598  0.00  0.00    +0.176 C 
ATOM      5  C   UNL     1      37.563 -23.662 -13.562  0.00  0.00    +0.274 C 
ENDROOT
BRANCH   2   6
ATOM      6  O   UNL     1      36.783 -25.830 -11.737  0.00  0.00    -0.379 OA
ATOM      7  H   UNL     1      36.202 -26.557 -11.467  0.00  0.00    +0.211 HD
ENDBRANCH   2   6
BRANCH   3   8
ATOM      8  O   UNL     1      37.743 -23.310 -11.147  0.00  0.00    -0.378 OA
ATOM      9  H   UNL     1      38.164 -24.159 -10.942  0.00  0.00    +0.211 HD
ENDBRANCH   3   8
BRANCH   5  10
ATOM     10  O   UNL     1      38.693 -24.516 -13.419  0.00  0.00    -0.245 OA
BRANCH  10  11
ATOM     11  P   UNL     1      39.431 -25.051 -14.757  0.00  0.00    +0.475 P 
ATOM     12  O   UNL     1      40.875 -25.418 -14.581  0.00  0.00    -0.227 OA
BRANCH  11  13
ATOM     13  O   UNL     1      39.140 -23.892 -15.846  0.00  0.00    -0.303 OA
ATOM     14  H   UNL     1      38.371 -24.139 -16.383  0.00  0.00    +0.222 HD
ENDBRANCH  11  13
BRANCH  11  15
ATOM     15  O   UNL     1      38.473 -26.263 -15.239  0.00  0.00    -0.303 OA
ATOM     16  H   UNL     1      37.606 -26.177 -14.813  0.00  0.00    +0.222 HD
ENDBRANCH  11  15
ENDBRANCH  10  11
ENDBRANCH   5  10
BRANCH   4  17
ATOM     17  C   UNL     1      34.233 -24.234 -13.911  0.00  0.00    +0.169 C 
BRANCH  17  18
ATOM     18  O   UNL     1      33.232 -24.798 -13.078  0.00  0.00    -0.379 OA
ATOM     19  H   UNL     1      33.605 -24.975 -12.200  0.00  0.00    +0.211 HD
ENDBRANCH  17  18
ENDBRANCH   4  17
TORSDOF 8
ENDMDL
MODEL 5
REMARK VINA RESULT:      -6.2      2.521      4.317
REMARK  Name = 439236
REMARK  8 active torsions:
REMARK  status: ('A' for Active; 'I' for Inactive)
REMARK    1  A    between atoms: C_2  and  O_6
REMARK    2  A    between atoms: C_3  and  O_8
REMARK    3  A    between atoms: C_4  and  C_17
REMARK    4  A    between atoms: C_5  and  O_10
REMARK    5  A    between atoms: O_10  and  P_11
REMARK    6  A    between atoms: P_11  and  O_13
REMARK    7  A    between atoms: P_11  and  O_15
REMARK    8  A    between atoms: C_17  and  O_18
REMARK                            x       y       z     vdW  Elec       q    Type
REMARK                         _______ _______ _______ _____ _____    ______ ____
ROOT
ATOM      1  O   UNL     1      37.536 -23.268 -13.868  0.00  0.00    -0.326 OA
ATOM      2  C   UNL     1      37.230 -25.593 -13.413  0.00  0.00    +0.172 C 
ATOM      3  C   UNL     1      38.167 -25.403 -14.589  0.00  0.00    +0.197 C 
ATOM      4  C   UNL     1      37.207 -24.192 -12.803  0.00  0.00    +0.176 C 
ATOM      5  C   UNL     1      37.806 -24.007 -15.069  0.00  0.00    +0.274 C 
ENDROOT
BRANCH   2   6
ATOM      6  O   UNL     1      35.925 -25.927 -13.879  0.00  0.00    -0.379 OA
ATOM      7  H   UNL     1      35.832 -26.891 -13.916  0.00  0.00    +0.211 HD
ENDBRANCH   2   6
BRANCH   3   8
ATOM      8  O   UNL     1      38.042 -26.387 -15.590  0.00  0.00    -0.378 OA
ATOM      9  H   UNL     1      37.337 -26.134 -16.206  0.00  0.00    +0.211 HD
ENDBRANCH   3   8
BRANCH   5  10
ATOM     10  O   UNL     1      36.655 -24.042 -15.907  0.00  0.00    -0.245 OA
BRANCH  10  11
ATOM     11  P   UNL     1      35.903 -22.648 -16.245  0.00  0.00    +0.475 P 
ATOM     12  O   UNL     1      35.156 -22.630 -17.546  0.00  0.00    -0.227 OA
BRANCH  11  13
ATOM     13  O   UNL     1      37.069 -21.538 -16.101  0.00  0.00    -0.303 OA
ATOM     14  H   UNL     1      36.703 -20.734 -15.701  0.00  0.00    +0.222 HD
ENDBRANCH  11  13
BRANCH  11  15
ATOM     15  O   UNL     1      34.992 -22.402 -14.931  0.00  0.00    -0.303 OA
ATOM     16  H   UNL     1      35.478 -22.690 -14.142  0.00  0.00    +0.222 HD
ENDBRANCH  11  15
ENDBRANCH  10  11
ENDBRANCH   5  10
BRANCH   4  17
ATOM     17  C   UNL     1      38.240 -24.011 -11.700  0.00  0.00    +0.169 C 
BRANCH  17  18
ATOM     18  O   UNL     1      38.606 -22.642 -11.636  0.00  0.00    -0.379 OA
ATOM     19  H   UNL     1      37.864 -22.125 -11.285  0.00  0.00    +0.211 HD
ENDBRANCH  17  18
ENDBRANCH   4  17
TORSDOF 8
ENDMDL
MODEL 6
REMARK VINA RESULT:      -6.1      6.177      8.974
REMARK  Name = 439236
REMARK  8 active torsions:
REMARK  status: ('A' for Active; 'I' for Inactive)
REMARK    1  A    between atoms: C_2  and  O_6
REMARK    2  A    between atoms: C_3  and  O_8
REMARK    3  A    between atoms: C_4  and  C_17
REMARK    4  A    between atoms: C_5  and  O_10
REMARK    5  A    between atoms: O_10  and  P_11
REMARK    6  A    between atoms: P_11  and  O_13
REMARK    7  A    between atoms: P_11  and  O_15
REMARK    8  A    between atoms: C_17  and  O_18
REMARK                            x       y       z     vdW  Elec       q    Type
REMARK                         _______ _______ _______ _____ _____    ______ ____
ROOT
ATOM      1  O   UNL     1      31.540 -23.278 -15.231  0.00  0.00    -0.326 OA
ATOM      2  C   UNL     1      31.348 -24.906 -13.494  0.00  0.00    +0.172 C 
ATOM      3  C   UNL     1      30.779 -25.446 -14.789  0.00  0.00    +0.197 C 
ATOM      4  C   UNL     1      32.143 -23.696 -13.983  0.00  0.00    +0.176 C 
ATOM      5  C   UNL     1      30.469 -24.176 -15.562  0.00  0.00    +0.274 C 
ENDROOT
BRANCH   2   6
ATOM      6  O   UNL     1      30.293 -24.466 -12.643  0.00  0.00    -0.379 OA
ATOM      7  H   UNL     1      30.150 -25.119 -11.941  0.00  0.00    +0.211 HD
ENDBRANCH   2   6
BRANCH   3   8
ATOM      8  O   UNL     1      29.658 -26.284 -14.621  0.00  0.00    -0.378 OA
ATOM      9  H   UNL     1      29.111 -26.258 -15.422  0.00  0.00    +0.211 HD
ENDBRANCH   3   8
BRANCH   5  10
ATOM     10  O   UNL     1      29.216 -23.632 -15.162  0.00  0.00    -0.245 OA
BRANCH  10  11
ATOM     11  P   UNL     1      28.299 -22.899 -16.278  0.00  0.00    +0.475 P 
ATOM     12  O   UNL     1      27.205 -22.032 -15.729  0.00  0.00    -0.227 OA
BRANCH  11  13
ATOM     13  O   UNL     1      27.810 -24.111 -17.230  0.00  0.00    -0.303 OA
ATOM     14  H   UNL     1      27.728 -24.922 -16.704  0.00  0.00    +0.222 HD
ENDBRANCH  11  13
BRANCH  11  15
ATOM     15  O   UNL     1      29.390 -22.127 -17.190  0.00  0.00    -0.303 OA
ATOM     16  H   UNL     1      29.908 -21.525 -16.633  0.00  0.00    +0.222 HD
ENDBRANCH  11  15
ENDBRANCH  10  11
ENDBRANCH   5  10
BRANCH   4  17
ATOM     17  C   UNL     1      33.603 -24.021 -14.262  0.00  0.00    +0.169 C 
BRANCH  17  18
ATOM     18  O   UNL     1      34.127 -24.752 -13.165  0.00  0.00    -0.379 OA
ATOM     19  H   UNL     1      34.068 -25.702 -13.351  0.00  0.00    +0.211 HD
ENDBRANCH  17  18
ENDBRANCH   4  17
TORSDOF 8
ENDMDL
MODEL 7
REMARK VINA RESULT:      -6.1      2.198      4.442
REMARK  Name = 439236
REMARK  8 active torsions:
REMARK  status: ('A' for Active; 'I' for Inactive)
REMARK    1  A    between atoms: C_2  and  O_6
REMARK    2  A    between atoms: C_3  and  O_8
REMARK    3  A    between atoms: C_4  and  C_17
REMARK    4  A    between atoms: C_5  and  O_10
REMARK    5  A    between atoms: O_10  and  P_11
REMARK    6  A    between atoms: P_11  and  O_13
REMARK    7  A    between atoms: P_11  and  O_15
REMARK    8  A    between atoms: C_17  and  O_18
REMARK                            x       y       z     vdW  Elec       q    Type
REMARK                         _______ _______ _______ _____ _____    ______ ____
ROOT
ATOM      1  O   UNL     1      37.851 -25.301 -15.002  0.00  0.00    -0.326 OA
ATOM      2  C   UNL     1      38.690 -25.036 -12.781  0.00  0.00    +0.172 C 
ATOM      3  C   UNL     1      37.498 -25.971 -12.787  0.00  0.00    +0.197 C 
ATOM      4  C   UNL     1      39.056 -24.987 -14.264  0.00  0.00    +0.176 C 
ATOM      5  C   UNL     1      36.791 -25.586 -14.075  0.00  0.00    +0.274 C 
ENDROOT
BRANCH   2   6
ATOM      6  O   UNL     1      38.289 -23.738 -12.350  0.00  0.00    -0.379 OA
ATOM      7  H   UNL     1      39.019 -23.317 -11.870  0.00  0.00    +0.211 HD
ENDBRANCH   2   6
BRANCH   3   8
ATOM      8  O   UNL     1      36.677 -25.865 -11.647  0.00  0.00    -0.378 OA
ATOM      9  H   UNL     1      35.931 -25.276 -11.839  0.00  0.00    +0.211 HD
ENDBRANCH   3   8
BRANCH   5  10
ATOM     10  O   UNL     1      35.972 -24.438 -13.880  0.00  0.00    -0.245 OA
BRANCH  10  11
ATOM     11  P   UNL     1      35.451 -23.630 -15.183  0.00  0.00    +0.475 P 
ATOM     12  O   UNL     1      34.920 -24.490 -16.292  0.00  0.00    -0.227 OA
BRANCH  11  13
ATOM     13  O   UNL     1      36.704 -22.688 -15.577  0.00  0.00    -0.303 OA
ATOM     14  H   UNL     1      36.402 -21.772 -15.675  0.00  0.00    +0.222 HD
ENDBRANCH  11  13
BRANCH  11  15
ATOM     15  O   UNL     1      34.384 -22.586 -14.558  0.00  0.00    -0.303 OA
ATOM     16  H   UNL     1      33.842 -23.039 -13.893  0.00  0.00    +0.222 HD
ENDBRANCH  11  15
ENDBRANCH  10  11
ENDBRANCH   5  10
BRANCH   4  17
ATOM     17  C   UNL     1      40.112 -26.015 -14.646  0.00  0.00    +0.169 C 
BRANCH  17  18
ATOM     18  O   UNL     1      40.392 -25.889 -16.031  0.00  0.00    -0.379 OA
ATOM     19  H   UNL     1      41.016 -26.582 -16.299  0.00  0.00    +0.211 HD
ENDBRANCH  17  18
ENDBRANCH   4  17
TORSDOF 8
ENDMDL
MODEL 8
REMARK VINA RESULT:      -6.0      2.899      4.927
REMARK  Name = 439236
REMARK  8 active torsions:
REMARK  status: ('A' for Active; 'I' for Inactive)
REMARK    1  A    between atoms: C_2  and  O_6
REMARK    2  A    between atoms: C_3  and  O_8
REMARK    3  A    between atoms: C_4  and  C_17
REMARK    4  A    between atoms: C_5  and  O_10
REMARK    5  A    between atoms: O_10  and  P_11
REMARK    6  A    between atoms: P_11  and  O_13
REMARK    7  A    between atoms: P_11  and  O_15
REMARK    8  A    between atoms: C_17  and  O_18
REMARK                            x       y       z     vdW  Elec       q    Type
REMARK                         _______ _______ _______ _____ _____    ______ ____
ROOT
ATOM      1  O   UNL     1      36.571 -23.836 -13.172  0.00  0.00    -0.326 OA
ATOM      2  C   UNL     1      37.702 -25.933 -13.334  0.00  0.00    +0.172 C 
ATOM      3  C   UNL     1      37.470 -25.351 -14.712  0.00  0.00    +0.197 C 
ATOM      4  C   UNL     1      37.448 -24.723 -12.437  0.00  0.00    +0.176 C 
ATOM      5  C   UNL     1      36.315 -24.395 -14.470  0.00  0.00    +0.274 C 
ENDROOT
BRANCH   2   6
ATOM      6  O   UNL     1      36.730 -26.939 -13.058  0.00  0.00    -0.379 OA
ATOM      7  H   UNL     1      36.033 -26.908 -13.732  0.00  0.00    +0.211 HD
ENDBRANCH   2   6
BRANCH   3   8
ATOM      8  O   UNL     1      37.197 -26.313 -15.706  0.00  0.00    -0.378 OA
ATOM      9  H   UNL     1      36.822 -27.107 -15.294  0.00  0.00    +0.211 HD
ENDBRANCH   3   8
BRANCH   5  10
ATOM     10  O   UNL     1      35.071 -25.088 -14.481  0.00  0.00    -0.245 OA
BRANCH  10  11
ATOM     11  P   UNL     1      33.717 -24.251 -14.187  0.00  0.00    +0.475 P 
ATOM     12  O   UNL     1      33.381 -23.207 -15.211  0.00  0.00    -0.227 OA
BRANCH  11  13
ATOM     13  O   UNL     1      33.926 -23.700 -12.681  0.00  0.00    -0.303 OA
ATOM     14  H   UNL     1      33.778 -22.742 -12.664  0.00  0.00    +0.222 HD
ENDBRANCH  11  13
BRANCH  11  15
ATOM     15  O   UNL     1      32.606 -25.413 -14.006  0.00  0.00    -0.303 OA
ATOM     16  H   UNL     1      31.724 -25.043 -14.165  0.00  0.00    +0.222 HD
ENDBRANCH  11  15
ENDBRANCH  10  11
ENDBRANCH   5  10
BRANCH   4  17
ATOM     17  C   UNL     1      38.718 -23.951 -12.111  0.00  0.00    +0.169 C 
BRANCH  17  18
ATOM     18  O   UNL     1      38.362 -22.673 -11.609  0.00  0.00    -0.379 OA
ATOM     19  H   UNL     1      39.021 -22.386 -10.958  0.00  0.00    +0.211 HD
ENDBRANCH  17  18
ENDBRANCH   4  17
TORSDOF 8
ENDMDL
MODEL 9
REMARK VINA RESULT:      -5.9      6.251      8.681
REMARK  Name = 439236
REMARK  8 active torsions:
REMARK  status: ('A' for Active; 'I' for Inactive)
REMARK    1  A    between atoms: C_2  and  O_6
REMARK    2  A    between atoms: C_3  and  O_8
REMARK    3  A    between atoms: C_4  and  C_17
REMARK    4  A    between atoms: C_5  and  O_10
REMARK    5  A    between atoms: O_10  and  P_11
REMARK    6  A    between atoms: P_11  and  O_13
REMARK    7  A    between atoms: P_11  and  O_15
REMARK    8  A    between atoms: C_17  and  O_18
REMARK                            x       y       z     vdW  Elec       q    Type
REMARK                         _______ _______ _______ _____ _____    ______ ____
ROOT
ATOM      1  O   UNL     1      31.495 -23.851 -16.336  0.00  0.00    -0.326 OA
ATOM      2  C   UNL     1      32.307 -23.522 -14.114  0.00  0.00    +0.172 C 
ATOM      3  C   UNL     1      31.478 -24.787 -14.191  0.00  0.00    +0.197 C 
ATOM      4  C   UNL     1      32.570 -23.230 -15.590  0.00  0.00    +0.176 C 
ATOM      5  C   UNL     1      30.626 -24.542 -15.425  0.00  0.00    +0.274 C 
ENDROOT
BRANCH   2   6
ATOM      6  O   UNL     1      31.531 -22.464 -13.554  0.00  0.00    -0.379 OA
ATOM      7  H   UNL     1      30.622 -22.770 -13.411  0.00  0.00    +0.211 HD
ENDBRANCH   2   6
BRANCH   3   8
ATOM      8  O   UNL     1      30.719 -25.051 -13.033  0.00  0.00    -0.378 OA
ATOM      9  H   UNL     1      31.301 -25.388 -12.334  0.00  0.00    +0.211 HD
ENDBRANCH   3   8
BRANCH   5  10
ATOM     10  O   UNL     1      29.493 -23.741 -15.107  0.00  0.00    -0.245 OA
BRANCH  10  11
ATOM     11  P   UNL     1      28.467 -23.348 -16.297  0.00  0.00    +0.475 P 
ATOM     12  O   UNL     1      28.026 -24.494 -17.159  0.00  0.00    -0.227 OA
BRANCH  11  13
ATOM     13  O   UNL     1      29.222 -22.148 -17.074  0.00  0.00    -0.303 OA
ATOM     14  H   UNL     1      30.147 -22.395 -17.228  0.00  0.00    +0.222 HD
ENDBRANCH  11  13
BRANCH  11  15
ATOM     15  O   UNL     1      27.275 -22.589 -15.509  0.00  0.00    -0.303 OA
ATOM     16  H   UNL     1      27.629 -21.798 -15.073  0.00  0.00    +0.222 HD
ENDBRANCH  11  15
ENDBRANCH  10  11
ENDBRANCH   5  10
BRANCH   4  17
ATOM     17  C   UNL     1      33.880 -23.825 -16.086  0.00  0.00    +0.169 C 
BRANCH  17  18
ATOM     18  O   UNL     1      34.243 -23.184 -17.298  0.00  0.00    -0.379 OA
ATOM     19  H   UNL     1      33.773 -22.339 -17.371  0.00  0.00    +0.211 HD
ENDBRANCH  17  18
ENDBRANCH   4  17
TORSDOF 8
ENDMDL
