MODEL 1
REMARK VINA RESULT:     -12.2      0.000      0.000
REMARK  Name = 17758361
REMARK  5 active torsions:
REMARK  status: ('A' for Active; 'I' for Inactive)
REMARK    1  A    between atoms: N_1  and  C_18
REMARK    2  A    between atoms: C_4  and  C_10
REMARK    3  A    between atoms: C_10  and  C_11
REMARK    4  A    between atoms: C_18  and  C_19
REMARK    5  A    between atoms: C_22  and  C_27
REMARK                            x       y       z     vdW  Elec       q    Type
REMARK                         _______ _______ _______ _____ _____    ______ ____
ROOT
ATOM      1  N   UNL     1      35.286 -17.448 -23.591  0.00  0.00    -0.314 N 
ATOM      2  N   UNL     1      34.192 -16.638 -25.511  0.00  0.00    -0.229 NA
ATOM      3  C   UNL     1      34.501 -16.486 -24.203  0.00  0.00    +0.129 C 
ATOM      4  C   UNL     1      33.295 -14.445 -24.028  0.00  0.00    +0.043 C 
ATOM      5  C   UNL     1      34.082 -15.419 -23.425  0.00  0.00    +0.037 C 
ATOM      6  C   UNL     1      32.955 -14.566 -25.371  0.00  0.00    +0.024 C 
ATOM      7  C   UNL     1      33.425 -15.671 -26.062  0.00  0.00    +0.100 C 
ATOM      8  H   UNL     1      35.591 -18.213 -24.131  0.00  0.00    +0.149 HD
ENDROOT
BRANCH   4  10
ATOM      9  O   UNL     1      32.047 -13.465 -22.309  0.00  0.00    -0.287 OA
ATOM     10  C   UNL     1      32.828 -13.303 -23.258  0.00  0.00    +0.196 C 
BRANCH  10  11
ATOM     11  C   UNL     1      33.255 -11.903 -23.562  0.00  0.00    +0.039 C 
ATOM     12  C   UNL     1      34.241 -11.668 -24.522  0.00  0.00    -0.001 C 
ATOM     13  C   UNL     1      34.639 -10.362 -24.807  0.00  0.00    -0.022 C 
ATOM     14  C   UNL     1      32.668 -10.833 -22.889  0.00  0.00    +0.003 C 
ATOM     15  C   UNL     1      34.051  -9.291 -24.133  0.00  0.00    -0.004 C 
ATOM     16  C   UNL     1      33.066  -9.527 -23.175  0.00  0.00    -0.000 C 
ATOM     17  C   UNL     1      35.690 -10.110 -25.834  0.00  0.00    +0.031 C 
ENDBRANCH  10  11
ENDBRANCH   4  10
BRANCH   1  18
ATOM     18  C   UNL     1      35.682 -17.392 -22.201  0.00  0.00    +0.115 C 
BRANCH  18  19
ATOM     19  C   UNL     1      35.200 -18.593 -21.459  0.00  0.00    -0.003 C 
ATOM     20  C   UNL     1      33.831 -18.834 -21.338  0.00  0.00    -0.003 C 
ATOM     21  C   UNL     1      36.117 -19.473 -20.884  0.00  0.00    -0.003 C 
ATOM     22  C   UNL     1      34.296 -20.836 -20.069  0.00  0.00    +0.031 C 
ATOM     23  C   UNL     1      33.380 -19.956 -20.643  0.00  0.00    +0.002 C 
ATOM     24  C   UNL     1      35.665 -20.595 -20.190  0.00  0.00    +0.002 C 
BRANCH  22  27
ATOM     25  N   UNL     1      32.604 -21.998 -18.672  0.00  0.00    -0.343 N 
ATOM     26  N   UNL     1      34.561 -23.102 -19.315  0.00  0.00    -0.285 NA
ATOM     27  C   UNL     1      33.825 -22.005 -19.345  0.00  0.00    +0.117 C 
ATOM     28  H   UNL     1      32.304 -22.801 -18.188  0.00  0.00    +0.144 HD
ATOM     29  H   UNL     1      32.042 -21.189 -18.680  0.00  0.00    +0.144 HD
ATOM     30  H   UNL     1      34.244 -23.895 -18.826  0.00  0.00    +0.188 HD
ENDBRANCH  22  27
ENDBRANCH  18  19
ENDBRANCH   1  18
TORSDOF 5
ENDMDL
MODEL 2
REMARK VINA RESULT:     -11.8      5.535     11.787
REMARK  Name = 17758361
REMARK  5 active torsions:
REMARK  status: ('A' for Active; 'I' for Inactive)
REMARK    1  A    between atoms: N_1  and  C_18
REMARK    2  A    between atoms: C_4  and  C_10
REMARK    3  A    between atoms: C_10  and  C_11
REMARK    4  A    between atoms: C_18  and  C_19
REMARK    5  A    between atoms: C_22  and  C_27
REMARK                            x       y       z     vdW  Elec       q    Type
REMARK                         _______ _______ _______ _____ _____    ______ ____
ROOT
ATOM      1  N   UNL     1      32.579 -22.469 -18.503  0.00  0.00    -0.314 N 
ATOM      2  N   UNL     1      30.830 -22.693 -16.944  0.00  0.00    -0.229 NA
ATOM      3  C   UNL     1      32.148 -22.792 -17.227  0.00  0.00    +0.129 C 
ATOM      4  C   UNL     1      32.691 -23.523 -15.031  0.00  0.00    +0.043 C 
ATOM      5  C   UNL     1      33.110 -23.197 -16.316  0.00  0.00    +0.037 C 
ATOM      6  C   UNL     1      31.342 -23.434 -14.701  0.00  0.00    +0.024 C 
ATOM      7  C   UNL     1      30.460 -23.017 -15.685  0.00  0.00    +0.100 C 
ATOM      8  H   UNL     1      31.907 -22.180 -19.162  0.00  0.00    +0.149 HD
ENDROOT
BRANCH   4  10
ATOM      9  O   UNL     1      33.292 -24.218 -12.880  0.00  0.00    -0.287 OA
ATOM     10  C   UNL     1      33.658 -23.954 -14.034  0.00  0.00    +0.196 C 
BRANCH  10  11
ATOM     11  C   UNL     1      35.113 -24.100 -14.342  0.00  0.00    +0.039 C 
ATOM     12  C   UNL     1      35.661 -25.368 -14.543  0.00  0.00    -0.001 C 
ATOM     13  C   UNL     1      37.018 -25.503 -14.831  0.00  0.00    -0.022 C 
ATOM     14  C   UNL     1      35.924 -22.969 -14.429  0.00  0.00    +0.003 C 
ATOM     15  C   UNL     1      37.829 -24.371 -14.918  0.00  0.00    -0.004 C 
ATOM     16  C   UNL     1      37.282 -23.104 -14.717  0.00  0.00    -0.000 C 
ATOM     17  C   UNL     1      37.603 -26.858 -15.050  0.00  0.00    +0.031 C 
ENDBRANCH  10  11
ENDBRANCH   4  10
BRANCH   1  18
ATOM     18  C   UNL     1      33.962 -22.535 -18.921  0.00  0.00    +0.115 C 
BRANCH  18  19
ATOM     19  C   UNL     1      34.342 -21.322 -19.703  0.00  0.00    -0.003 C 
ATOM     20  C   UNL     1      35.688 -21.014 -19.900  0.00  0.00    -0.003 C 
ATOM     21  C   UNL     1      33.352 -20.497 -20.236  0.00  0.00    -0.003 C 
ATOM     22  C   UNL     1      35.054 -19.055 -21.163  0.00  0.00    +0.031 C 
ATOM     23  C   UNL     1      36.044 -19.880 -20.630  0.00  0.00    +0.002 C 
ATOM     24  C   UNL     1      33.708 -19.364 -20.966  0.00  0.00    +0.002 C 
BRANCH  22  27
ATOM     25  N   UNL     1      35.055 -16.596 -21.508  0.00  0.00    -0.343 N 
ATOM     26  N   UNL     1      36.127 -18.001 -23.037  0.00  0.00    -0.285 NA
ATOM     27  C   UNL     1      35.426 -17.873 -21.924  0.00  0.00    +0.117 C 
ATOM     28  H   UNL     1      35.318 -15.809 -22.039  0.00  0.00    +0.144 HD
ATOM     29  H   UNL     1      34.530 -16.480 -20.683  0.00  0.00    +0.144 HD
ATOM     30  H   UNL     1      36.381 -17.202 -23.554  0.00  0.00    +0.188 HD
ENDBRANCH  22  27
ENDBRANCH  18  19
ENDBRANCH   1  18
TORSDOF 5
ENDMDL
MODEL 3
REMARK VINA RESULT:     -11.7      5.495     11.759
REMARK  Name = 17758361
REMARK  5 active torsions:
REMARK  status: ('A' for Active; 'I' for Inactive)
REMARK    1  A    between atoms: N_1  and  C_18
REMARK    2  A    between atoms: C_4  and  C_10
REMARK    3  A    between atoms: C_10  and  C_11
REMARK    4  A    between atoms: C_18  and  C_19
REMARK    5  A    between atoms: C_22  and  C_27
REMARK                            x       y       z     vdW  Elec       q    Type
REMARK                         _______ _______ _______ _____ _____    ______ ____
ROOT
ATOM      1  N   UNL     1      34.817 -22.843 -17.885  0.00  0.00    -0.314 N 
ATOM      2  N   UNL     1      35.928 -23.633 -15.966  0.00  0.00    -0.229 NA
ATOM      3  C   UNL     1      34.783 -23.217 -16.552  0.00  0.00    +0.129 C 
ATOM      4  C   UNL     1      33.514 -23.513 -14.564  0.00  0.00    +0.043 C 
ATOM      5  C   UNL     1      33.562 -23.139 -15.902  0.00  0.00    +0.037 C 
ATOM      6  C   UNL     1      34.671 -23.946 -13.926  0.00  0.00    +0.024 C 
ATOM      7  C   UNL     1      35.842 -23.988 -14.665  0.00  0.00    +0.100 C 
ATOM      8  H   UNL     1      35.678 -22.893 -18.360  0.00  0.00    +0.149 HD
ENDROOT
BRANCH   4  10
ATOM      9  O   UNL     1      32.235 -23.052 -12.660  0.00  0.00    -0.287 OA
ATOM     10  C   UNL     1      32.257 -23.452 -13.833  0.00  0.00    +0.196 C 
BRANCH  10  11
ATOM     11  C   UNL     1      30.955 -23.859 -14.443  0.00  0.00    +0.039 C 
ATOM     12  C   UNL     1      30.101 -22.892 -14.975  0.00  0.00    -0.001 C 
ATOM     13  C   UNL     1      28.887 -23.272 -15.545  0.00  0.00    -0.022 C 
ATOM     14  C   UNL     1      30.596 -25.205 -14.483  0.00  0.00    +0.003 C 
ATOM     15  C   UNL     1      28.526 -24.620 -15.585  0.00  0.00    -0.004 C 
ATOM     16  C   UNL     1      29.381 -25.586 -15.054  0.00  0.00    -0.000 C 
ATOM     17  C   UNL     1      27.974 -22.240 -16.115  0.00  0.00    +0.031 C 
ENDBRANCH  10  11
ENDBRANCH   4  10
BRANCH   1  18
ATOM     18  C   UNL     1      33.657 -22.384 -18.617  0.00  0.00    +0.115 C 
BRANCH  18  19
ATOM     19  C   UNL     1      34.018 -21.278 -19.551  0.00  0.00    -0.003 C 
ATOM     20  C   UNL     1      33.015 -20.502 -20.132  0.00  0.00    -0.003 C 
ATOM     21  C   UNL     1      35.357 -21.020 -19.843  0.00  0.00    -0.003 C 
ATOM     22  C   UNL     1      34.690 -19.211 -21.298  0.00  0.00    +0.031 C 
ATOM     23  C   UNL     1      33.351 -19.469 -21.006  0.00  0.00    +0.002 C 
ATOM     24  C   UNL     1      35.693 -19.986 -20.716  0.00  0.00    +0.002 C 
BRANCH  22  27
ATOM     25  N   UNL     1      35.944 -18.328 -23.251  0.00  0.00    -0.343 N 
ATOM     26  N   UNL     1      34.498 -16.938 -22.053  0.00  0.00    -0.285 NA
ATOM     27  C   UNL     1      35.040 -18.133 -22.209  0.00  0.00    +0.117 C 
ATOM     28  H   UNL     1      36.167 -17.585 -23.857  0.00  0.00    +0.144 HD
ATOM     29  H   UNL     1      36.361 -19.211 -23.382  0.00  0.00    +0.144 HD
ATOM     30  H   UNL     1      34.733 -16.206 -22.669  0.00  0.00    +0.188 HD
ENDBRANCH  22  27
ENDBRANCH  18  19
ENDBRANCH   1  18
TORSDOF 5
ENDMDL
MODEL 4
REMARK VINA RESULT:     -11.4      3.244      9.215
REMARK  Name = 17758361
REMARK  5 active torsions:
REMARK  status: ('A' for Active; 'I' for Inactive)
REMARK    1  A    between atoms: N_1  and  C_18
REMARK    2  A    between atoms: C_4  and  C_10
REMARK    3  A    between atoms: C_10  and  C_11
REMARK    4  A    between atoms: C_18  and  C_19
REMARK    5  A    between atoms: C_22  and  C_27
REMARK                            x       y       z     vdW  Elec       q    Type
REMARK                         _______ _______ _______ _____ _____    ______ ____
ROOT
ATOM      1  N   UNL     1      33.318 -14.540 -23.894  0.00  0.00    -0.314 N 
ATOM      2  N   UNL     1      33.839 -16.266 -25.407  0.00  0.00    -0.229 NA
ATOM      3  C   UNL     1      33.887 -15.777 -24.148  0.00  0.00    +0.129 C 
ATOM      4  C   UNL     1      35.047 -17.680 -23.321  0.00  0.00    +0.043 C 
ATOM      5  C   UNL     1      34.474 -16.437 -23.080  0.00  0.00    +0.037 C 
ATOM      6  C   UNL     1      35.018 -18.218 -24.603  0.00  0.00    +0.024 C 
ATOM      7  C   UNL     1      34.407 -17.478 -25.603  0.00  0.00    +0.100 C 
ATOM      8  H   UNL     1      32.899 -14.059 -24.644  0.00  0.00    +0.149 HD
ENDROOT
BRANCH   4  10
ATOM      9  O   UNL     1      36.889 -18.295 -22.017  0.00  0.00    -0.287 OA
ATOM     10  C   UNL     1      35.676 -18.418 -22.236  0.00  0.00    +0.196 C 
BRANCH  10  11
ATOM     11  C   UNL     1      34.909 -19.342 -21.346  0.00  0.00    +0.039 C 
ATOM     12  C   UNL     1      35.588 -20.221 -20.502  0.00  0.00    -0.001 C 
ATOM     13  C   UNL     1      34.872 -21.083 -19.672  0.00  0.00    -0.022 C 
ATOM     14  C   UNL     1      33.515 -19.324 -21.359  0.00  0.00    +0.003 C 
ATOM     15  C   UNL     1      33.477 -21.065 -19.684  0.00  0.00    -0.004 C 
ATOM     16  C   UNL     1      32.799 -20.186 -20.528  0.00  0.00    -0.000 C 
ATOM     17  C   UNL     1      35.597 -22.021 -18.767  0.00  0.00    +0.031 C 
ENDBRANCH  10  11
ENDBRANCH   4  10
BRANCH   1  18
ATOM     18  C   UNL     1      33.308 -13.917 -22.589  0.00  0.00    +0.115 C 
BRANCH  18  19
ATOM     19  C   UNL     1      32.863 -12.496 -22.679  0.00  0.00    -0.003 C 
ATOM     20  C   UNL     1      33.489 -11.625 -23.571  0.00  0.00    -0.003 C 
ATOM     21  C   UNL     1      31.822 -12.038 -21.871  0.00  0.00    -0.003 C 
ATOM     22  C   UNL     1      32.034  -9.838 -22.847  0.00  0.00    +0.031 C 
ATOM     23  C   UNL     1      33.075 -10.296 -23.654  0.00  0.00    +0.002 C 
ATOM     24  C   UNL     1      31.407 -10.709 -21.956  0.00  0.00    +0.002 C 
BRANCH  22  27
ATOM     25  N   UNL     1      31.738  -7.580 -21.857  0.00  0.00    -0.343 N 
ATOM     26  N   UNL     1      31.065  -8.001 -24.055  0.00  0.00    -0.285 NA
ATOM     27  C   UNL     1      31.602  -8.452 -22.935  0.00  0.00    +0.117 C 
ATOM     28  H   UNL     1      31.440  -6.645 -21.938  0.00  0.00    +0.144 HD
ATOM     29  H   UNL     1      32.134  -7.898 -21.013  0.00  0.00    +0.144 HD
ATOM     30  H   UNL     1      30.772  -7.063 -24.117  0.00  0.00    +0.188 HD
ENDBRANCH  22  27
ENDBRANCH  18  19
ENDBRANCH   1  18
TORSDOF 5
ENDMDL
MODEL 5
REMARK VINA RESULT:     -11.4      3.070      9.354
REMARK  Name = 17758361
REMARK  5 active torsions:
REMARK  status: ('A' for Active; 'I' for Inactive)
REMARK    1  A    between atoms: N_1  and  C_18
REMARK    2  A    between atoms: C_4  and  C_10
REMARK    3  A    between atoms: C_10  and  C_11
REMARK    4  A    between atoms: C_18  and  C_19
REMARK    5  A    between atoms: C_22  and  C_27
REMARK                            x       y       z     vdW  Elec       q    Type
REMARK                         _______ _______ _______ _____ _____    ______ ____
ROOT
ATOM      1  N   UNL     1      32.782 -13.976 -24.249  0.00  0.00    -0.314 N 
ATOM      2  N   UNL     1      33.924 -15.791 -25.219  0.00  0.00    -0.229 NA
ATOM      3  C   UNL     1      33.518 -15.140 -24.107  0.00  0.00    +0.129 C 
ATOM      4  C   UNL     1      34.527 -16.732 -22.658  0.00  0.00    +0.043 C 
ATOM      5  C   UNL     1      33.790 -15.564 -22.816  0.00  0.00    +0.037 C 
ATOM      6  C   UNL     1      34.963 -17.430 -23.779  0.00  0.00    +0.024 C 
ATOM      7  C   UNL     1      34.638 -16.922 -25.027  0.00  0.00    +0.100 C 
ATOM      8  H   UNL     1      32.581 -13.661 -25.161  0.00  0.00    +0.149 HD
ENDROOT
BRANCH   4  10
ATOM      9  O   UNL     1      35.347 -16.469 -20.483  0.00  0.00    -0.287 OA
ATOM     10  C   UNL     1      34.841 -17.224 -21.325  0.00  0.00    +0.196 C 
BRANCH  10  11
ATOM     11  C   UNL     1      34.578 -18.635 -20.910  0.00  0.00    +0.039 C 
ATOM     12  C   UNL     1      35.641 -19.474 -20.574  0.00  0.00    -0.001 C 
ATOM     13  C   UNL     1      35.395 -20.790 -20.186  0.00  0.00    -0.022 C 
ATOM     14  C   UNL     1      33.269 -19.113 -20.858  0.00  0.00    +0.003 C 
ATOM     15  C   UNL     1      34.085 -21.269 -20.133  0.00  0.00    -0.004 C 
ATOM     16  C   UNL     1      33.023 -20.430 -20.468  0.00  0.00    -0.000 C 
ATOM     17  C   UNL     1      36.531 -21.687 -19.823  0.00  0.00    +0.031 C 
ENDBRANCH  10  11
ENDBRANCH   4  10
BRANCH   1  18
ATOM     18  C   UNL     1      32.293 -13.196 -23.133  0.00  0.00    +0.115 C 
BRANCH  18  19
ATOM     19  C   UNL     1      32.738 -11.776 -23.238  0.00  0.00    -0.003 C 
ATOM     20  C   UNL     1      33.832 -11.446 -24.038  0.00  0.00    -0.003 C 
ATOM     21  C   UNL     1      32.062 -10.779 -22.534  0.00  0.00    -0.003 C 
ATOM     22  C   UNL     1      33.574  -9.122 -23.431  0.00  0.00    +0.031 C 
ATOM     23  C   UNL     1      34.250 -10.119 -24.134  0.00  0.00    +0.002 C 
ATOM     24  C   UNL     1      32.480  -9.452 -22.631  0.00  0.00    +0.002 C 
BRANCH  22  27
ATOM     25  N   UNL     1      33.142  -6.733 -23.953  0.00  0.00    -0.343 N 
ATOM     26  N   UNL     1      35.255  -7.418 -23.227  0.00  0.00    -0.285 NA
ATOM     27  C   UNL     1      34.011  -7.739 -23.533  0.00  0.00    +0.117 C 
ATOM     28  H   UNL     1      33.459  -5.803 -24.014  0.00  0.00    +0.144 HD
ATOM     29  H   UNL     1      32.211  -6.953 -24.188  0.00  0.00    +0.144 HD
ATOM     30  H   UNL     1      35.553  -6.482 -23.295  0.00  0.00    +0.188 HD
ENDBRANCH  22  27
ENDBRANCH  18  19
ENDBRANCH   1  18
TORSDOF 5
ENDMDL
MODEL 6
REMARK VINA RESULT:     -11.3      1.715      2.785
REMARK  Name = 17758361
REMARK  5 active torsions:
REMARK  status: ('A' for Active; 'I' for Inactive)
REMARK    1  A    between atoms: N_1  and  C_18
REMARK    2  A    between atoms: C_4  and  C_10
REMARK    3  A    between atoms: C_10  and  C_11
REMARK    4  A    between atoms: C_18  and  C_19
REMARK    5  A    between atoms: C_22  and  C_27
REMARK                            x       y       z     vdW  Elec       q    Type
REMARK                         _______ _______ _______ _____ _____    ______ ____
ROOT
ATOM      1  N   UNL     1      35.050 -17.957 -23.892  0.00  0.00    -0.314 N 
ATOM      2  N   UNL     1      33.829 -17.222 -25.766  0.00  0.00    -0.229 NA
ATOM      3  C   UNL     1      34.368 -16.951 -24.556  0.00  0.00    +0.129 C 
ATOM      4  C   UNL     1      33.604 -14.699 -24.582  0.00  0.00    +0.043 C 
ATOM      5  C   UNL     1      34.285 -15.719 -23.927  0.00  0.00    +0.037 C 
ATOM      6  C   UNL     1      33.036 -14.939 -25.829  0.00  0.00    +0.024 C 
ATOM      7  C   UNL     1      33.175 -16.206 -26.373  0.00  0.00    +0.100 C 
ATOM      8  H   UNL     1      35.116 -18.838 -24.327  0.00  0.00    +0.149 HD
ENDROOT
BRANCH   4  10
ATOM      9  O   UNL     1      33.847 -12.373 -24.585  0.00  0.00    -0.287 OA
ATOM     10  C   UNL     1      33.488 -13.386 -23.968  0.00  0.00    +0.196 C 
BRANCH  10  11
ATOM     11  C   UNL     1      32.940 -13.192 -22.591  0.00  0.00    +0.039 C 
ATOM     12  C   UNL     1      32.176 -12.062 -22.297  0.00  0.00    -0.001 C 
ATOM     13  C   UNL     1      31.664 -11.882 -21.013  0.00  0.00    -0.022 C 
ATOM     14  C   UNL     1      33.190 -14.141 -21.602  0.00  0.00    +0.003 C 
ATOM     15  C   UNL     1      31.915 -12.832 -20.022  0.00  0.00    -0.004 C 
ATOM     16  C   UNL     1      32.677 -13.961 -20.317  0.00  0.00    -0.000 C 
ATOM     17  C   UNL     1      30.845 -10.676 -20.698  0.00  0.00    +0.031 C 
ENDBRANCH  10  11
ENDBRANCH   4  10
BRANCH   1  18
ATOM     18  C   UNL     1      35.669 -17.785 -22.596  0.00  0.00    +0.115 C 
BRANCH  18  19
ATOM     19  C   UNL     1      35.250 -18.865 -21.657  0.00  0.00    -0.003 C 
ATOM     20  C   UNL     1      36.212 -19.567 -20.930  0.00  0.00    -0.003 C 
ATOM     21  C   UNL     1      33.898 -19.175 -21.506  0.00  0.00    -0.003 C 
ATOM     22  C   UNL     1      34.470 -20.888 -19.902  0.00  0.00    +0.031 C 
ATOM     23  C   UNL     1      35.821 -20.579 -20.053  0.00  0.00    +0.002 C 
ATOM     24  C   UNL     1      33.509 -20.186 -20.629  0.00  0.00    +0.002 C 
BRANCH  22  27
ATOM     25  N   UNL     1      32.719 -22.212 -18.741  0.00  0.00    -0.343 N 
ATOM     26  N   UNL     1      34.981 -22.665 -18.367  0.00  0.00    -0.285 NA
ATOM     27  C   UNL     1      34.064 -21.943 -18.987  0.00  0.00    +0.117 C 
ATOM     28  H   UNL     1      32.467 -22.931 -18.118  0.00  0.00    +0.144 HD
ATOM     29  H   UNL     1      32.021 -21.683 -19.191  0.00  0.00    +0.144 HD
ATOM     30  H   UNL     1      34.709 -23.379 -17.747  0.00  0.00    +0.188 HD
ENDBRANCH  22  27
ENDBRANCH  18  19
ENDBRANCH   1  18
TORSDOF 5
ENDMDL
MODEL 7
REMARK VINA RESULT:     -11.2      5.448     12.192
REMARK  Name = 17758361
REMARK  5 active torsions:
REMARK  status: ('A' for Active; 'I' for Inactive)
REMARK    1  A    between atoms: N_1  and  C_18
REMARK    2  A    between atoms: C_4  and  C_10
REMARK    3  A    between atoms: C_10  and  C_11
REMARK    4  A    between atoms: C_18  and  C_19
REMARK    5  A    between atoms: C_22  and  C_27
REMARK                            x       y       z     vdW  Elec       q    Type
REMARK                         _______ _______ _______ _____ _____    ______ ____
ROOT
ATOM      1  N   UNL     1      32.909 -22.422 -18.630  0.00  0.00    -0.314 N 
ATOM      2  N   UNL     1      31.704 -22.854 -16.654  0.00  0.00    -0.229 NA
ATOM      3  C   UNL     1      32.862 -22.941 -17.347  0.00  0.00    +0.129 C 
ATOM      4  C   UNL     1      33.988 -24.044 -15.567  0.00  0.00    +0.043 C 
ATOM      5  C   UNL     1      34.020 -23.520 -16.854  0.00  0.00    +0.037 C 
ATOM      6  C   UNL     1      32.815 -23.973 -14.822  0.00  0.00    +0.024 C 
ATOM      7  C   UNL     1      31.711 -23.373 -15.406  0.00  0.00    +0.100 C 
ATOM      8  H   UNL     1      32.093 -22.008 -18.994  0.00  0.00    +0.149 HD
ENDROOT
BRANCH   4  10
ATOM      9  O   UNL     1      35.693 -25.645 -15.550  0.00  0.00    -0.287 OA
ATOM     10  C   UNL     1      35.175 -24.663 -14.999  0.00  0.00    +0.196 C 
BRANCH  10  11
ATOM     11  C   UNL     1      35.821 -24.159 -13.749  0.00  0.00    +0.039 C 
ATOM     12  C   UNL     1      35.343 -24.567 -12.503  0.00  0.00    -0.001 C 
ATOM     13  C   UNL     1      35.946 -24.097 -11.337  0.00  0.00    -0.022 C 
ATOM     14  C   UNL     1      36.902 -23.282 -13.828  0.00  0.00    +0.003 C 
ATOM     15  C   UNL     1      37.028 -23.220 -11.416  0.00  0.00    -0.004 C 
ATOM     16  C   UNL     1      37.506 -22.813 -12.661  0.00  0.00    -0.000 C 
ATOM     17  C   UNL     1      35.437 -24.535 -10.005  0.00  0.00    +0.031 C 
ENDBRANCH  10  11
ENDBRANCH   4  10
BRANCH   1  18
ATOM     18  C   UNL     1      34.090 -22.456 -19.464  0.00  0.00    +0.115 C 
BRANCH  18  19
ATOM     19  C   UNL     1      34.374 -21.110 -20.042  0.00  0.00    -0.003 C 
ATOM     20  C   UNL     1      35.693 -20.696 -20.226  0.00  0.00    -0.003 C 
ATOM     21  C   UNL     1      33.321 -20.265 -20.396  0.00  0.00    -0.003 C 
ATOM     22  C   UNL     1      34.908 -18.593 -21.119  0.00  0.00    +0.031 C 
ATOM     23  C   UNL     1      35.960 -19.437 -20.765  0.00  0.00    +0.002 C 
ATOM     24  C   UNL     1      33.589 -19.007 -20.935  0.00  0.00    +0.002 C 
BRANCH  22  27
ATOM     25  N   UNL     1      35.680 -17.136 -22.976  0.00  0.00    -0.343 N 
ATOM     26  N   UNL     1      34.976 -16.197 -20.956  0.00  0.00    -0.285 NA
ATOM     27  C   UNL     1      35.187 -17.281 -21.681  0.00  0.00    +0.117 C 
ATOM     28  H   UNL     1      35.862 -16.239 -23.337  0.00  0.00    +0.144 HD
ATOM     29  H   UNL     1      35.846 -17.933 -23.532  0.00  0.00    +0.144 HD
ATOM     30  H   UNL     1      35.164 -15.308 -21.334  0.00  0.00    +0.188 HD
ENDBRANCH  22  27
ENDBRANCH  18  19
ENDBRANCH   1  18
TORSDOF 5
ENDMDL
MODEL 8
REMARK VINA RESULT:     -11.0      4.938     12.034
REMARK  Name = 17758361
REMARK  5 active torsions:
REMARK  status: ('A' for Active; 'I' for Inactive)
REMARK    1  A    between atoms: N_1  and  C_18
REMARK    2  A    between atoms: C_4  and  C_10
REMARK    3  A    between atoms: C_10  and  C_11
REMARK    4  A    between atoms: C_18  and  C_19
REMARK    5  A    between atoms: C_22  and  C_27
REMARK                            x       y       z     vdW  Elec       q    Type
REMARK                         _______ _______ _______ _____ _____    ______ ____
ROOT
ATOM      1  N   UNL     1      33.605 -22.450 -19.114  0.00  0.00    -0.314 N 
ATOM      2  N   UNL     1      32.104 -23.083 -17.415  0.00  0.00    -0.229 NA
ATOM      3  C   UNL     1      33.376 -22.845 -17.807  0.00  0.00    +0.129 C 
ATOM      4  C   UNL     1      34.264 -23.361 -15.663  0.00  0.00    +0.043 C 
ATOM      5  C   UNL     1      34.480 -22.968 -16.979  0.00  0.00    +0.037 C 
ATOM      6  C   UNL     1      32.970 -23.616 -15.222  0.00  0.00    +0.024 C 
ATOM      7  C   UNL     1      31.934 -23.463 -16.129  0.00  0.00    +0.100 C 
ATOM      8  H   UNL     1      32.830 -22.360 -19.715  0.00  0.00    +0.149 HD
ENDROOT
BRANCH   4  10
ATOM      9  O   UNL     1      35.594 -22.655 -13.872  0.00  0.00    -0.287 OA
ATOM     10  C   UNL     1      35.387 -23.506 -14.750  0.00  0.00    +0.196 C 
BRANCH  10  11
ATOM     11  C   UNL     1      36.332 -24.662 -14.819  0.00  0.00    +0.039 C 
ATOM     12  C   UNL     1      37.667 -24.495 -14.450  0.00  0.00    -0.001 C 
ATOM     13  C   UNL     1      38.548 -25.574 -14.514  0.00  0.00    -0.022 C 
ATOM     14  C   UNL     1      35.878 -25.907 -15.250  0.00  0.00    +0.003 C 
ATOM     15  C   UNL     1      38.094 -26.821 -14.946  0.00  0.00    -0.004 C 
ATOM     16  C   UNL     1      36.759 -26.987 -15.313  0.00  0.00    -0.000 C 
ATOM     17  C   UNL     1      39.975 -25.397 -14.118  0.00  0.00    +0.031 C 
ENDBRANCH  10  11
ENDBRANCH   4  10
BRANCH   1  18
ATOM     18  C   UNL     1      34.919 -22.166 -19.646  0.00  0.00    +0.115 C 
BRANCH  18  19
ATOM     19  C   UNL     1      34.971 -20.798 -20.239  0.00  0.00    -0.003 C 
ATOM     20  C   UNL     1      36.203 -20.183 -20.465  0.00  0.00    -0.003 C 
ATOM     21  C   UNL     1      33.789 -20.134 -20.567  0.00  0.00    -0.003 C 
ATOM     22  C   UNL     1      35.070 -18.240 -21.346  0.00  0.00    +0.031 C 
ATOM     23  C   UNL     1      36.251 -18.904 -21.018  0.00  0.00    +0.002 C 
ATOM     24  C   UNL     1      33.839 -18.855 -21.121  0.00  0.00    +0.002 C 
BRANCH  22  27
ATOM     25  N   UNL     1      35.553 -16.698 -23.232  0.00  0.00    -0.343 N 
ATOM     26  N   UNL     1      34.760 -15.862 -21.199  0.00  0.00    -0.285 NA
ATOM     27  C   UNL     1      35.122 -16.906 -21.923  0.00  0.00    +0.117 C 
ATOM     28  H   UNL     1      35.580 -15.787 -23.603  0.00  0.00    +0.144 HD
ATOM     29  H   UNL     1      35.830 -17.464 -23.787  0.00  0.00    +0.144 HD
ATOM     30  H   UNL     1      34.794 -14.958 -21.588  0.00  0.00    +0.188 HD
ENDBRANCH  22  27
ENDBRANCH  18  19
ENDBRANCH   1  18
TORSDOF 5
ENDMDL
MODEL 9
REMARK VINA RESULT:     -11.0      4.042      6.945
REMARK  Name = 17758361
REMARK  5 active torsions:
REMARK  status: ('A' for Active; 'I' for Inactive)
REMARK    1  A    between atoms: N_1  and  C_18
REMARK    2  A    between atoms: C_4  and  C_10
REMARK    3  A    between atoms: C_10  and  C_11
REMARK    4  A    between atoms: C_18  and  C_19
REMARK    5  A    between atoms: C_22  and  C_27
REMARK                            x       y       z     vdW  Elec       q    Type
REMARK                         _______ _______ _______ _____ _____    ______ ____
ROOT
ATOM      1  N   UNL     1      34.789 -22.118 -18.324  0.00  0.00    -0.314 N 
ATOM      2  N   UNL     1      33.006 -21.353 -19.656  0.00  0.00    -0.229 NA
ATOM      3  C   UNL     1      34.319 -21.302 -19.338  0.00  0.00    +0.129 C 
ATOM      4  C   UNL     1      34.780 -19.655 -20.990  0.00  0.00    +0.043 C 
ATOM      5  C   UNL     1      35.238 -20.479 -19.969  0.00  0.00    +0.037 C 
ATOM      6  C   UNL     1      33.436 -19.679 -21.346  0.00  0.00    +0.024 C 
ATOM      7  C   UNL     1      32.597 -20.538 -20.654  0.00  0.00    +0.100 C 
ATOM      8  H   UNL     1      34.147 -22.708 -17.866  0.00  0.00    +0.149 HD
ENDROOT
BRANCH   4  10
ATOM      9  O   UNL     1      36.904 -18.756 -21.382  0.00  0.00    -0.287 OA
ATOM     10  C   UNL     1      35.703 -18.772 -21.687  0.00  0.00    +0.196 C 
BRANCH  10  11
ATOM     11  C   UNL     1      35.261 -17.856 -22.782  0.00  0.00    +0.039 C 
ATOM     12  C   UNL     1      34.984 -16.517 -22.503  0.00  0.00    -0.001 C 
ATOM     13  C   UNL     1      34.573 -15.663 -23.526  0.00  0.00    -0.022 C 
ATOM     14  C   UNL     1      35.128 -18.340 -24.083  0.00  0.00    +0.003 C 
ATOM     15  C   UNL     1      34.440 -16.147 -24.828  0.00  0.00    -0.004 C 
ATOM     16  C   UNL     1      34.718 -17.485 -25.106  0.00  0.00    -0.000 C 
ATOM     17  C   UNL     1      34.280 -14.231 -23.229  0.00  0.00    +0.031 C 
ENDBRANCH  10  11
ENDBRANCH   4  10
BRANCH   1  18
ATOM     18  C   UNL     1      36.171 -22.151 -17.898  0.00  0.00    +0.115 C 
BRANCH  18  19
ATOM     19  C   UNL     1      36.287 -22.650 -16.497  0.00  0.00    -0.003 C 
ATOM     20  C   UNL     1      37.542 -22.759 -15.898  0.00  0.00    -0.003 C 
ATOM     21  C   UNL     1      35.141 -23.009 -15.787  0.00  0.00    -0.003 C 
ATOM     22  C   UNL     1      36.506 -23.585 -13.879  0.00  0.00    +0.031 C 
ATOM     23  C   UNL     1      37.651 -23.226 -14.589  0.00  0.00    +0.002 C 
ATOM     24  C   UNL     1      35.251 -23.477 -14.478  0.00  0.00    +0.002 C 
BRANCH  22  27
ATOM     25  N   UNL     1      35.648 -24.899 -11.953  0.00  0.00    -0.343 N 
ATOM     26  N   UNL     1      37.664 -23.729 -11.778  0.00  0.00    -0.285 NA
ATOM     27  C   UNL     1      36.621 -24.073 -12.514  0.00  0.00    +0.117 C 
ATOM     28  H   UNL     1      35.746 -25.217 -11.027  0.00  0.00    +0.144 HD
ATOM     29  H   UNL     1      34.862 -25.163 -12.485  0.00  0.00    +0.144 HD
ATOM     30  H   UNL     1      37.745 -24.058 -10.854  0.00  0.00    +0.188 HD
ENDBRANCH  22  27
ENDBRANCH  18  19
ENDBRANCH   1  18
TORSDOF 5
ENDMDL
