MODEL 1
REMARK VINA RESULT:      -7.7      0.000      0.000
REMARK  Name = 10767
REMARK  6 active torsions:
REMARK  status: ('A' for Active; 'I' for Inactive)
REMARK    1  A    between atoms: O_1  and  C_3
REMARK    2  A    between atoms: O_1  and  C_10
REMARK    3  A    between atoms: C_3  and  C_4
REMARK    4  A    between atoms: C_10  and  C_12
REMARK    5  A    between atoms: C_10  and  C_14
REMARK    6  A    between atoms: C_14  and  N_15
REMARK                            x       y       z     vdW  Elec       q    Type
REMARK                         _______ _______ _______ _____ _____    ______ ____
ROOT
ATOM      1  O   UNL     1      33.751 -17.441 -22.018  0.00  0.00    -0.455 OA
ENDROOT
BRANCH   1   3
ATOM      2  O   UNL     1      35.930 -17.991 -22.513  0.00  0.00    -0.245 OA
ATOM      3  C   UNL     1      34.868 -18.207 -21.950  0.00  0.00    +0.341 C 
BRANCH   3   4
ATOM      4  C   UNL     1      34.634 -19.383 -21.075  0.00  0.00    +0.076 C 
ATOM      5  C   UNL     1      35.720 -20.104 -20.622  0.00  0.00    +0.006 C 
ATOM      6  C   UNL     1      33.337 -19.719 -20.743  0.00  0.00    +0.006 C 
ATOM      7  C   UNL     1      35.499 -21.210 -19.800  0.00  0.00    +0.000 C 
ATOM      8  C   UNL     1      33.117 -20.824 -19.920  0.00  0.00    +0.000 C 
ATOM      9  C   UNL     1      34.198 -21.569 -19.450  0.00  0.00    +0.000 C 
ENDBRANCH   3   4
ENDBRANCH   1   3
BRANCH   1  10
ATOM     10  C   UNL     1      33.931 -16.053 -21.703  0.00  0.00    +0.118 C 
ATOM     11  C   UNL     1      34.918 -15.979 -20.528  0.00  0.00    +0.041 C 
BRANCH  10  12
ATOM     12  C   UNL     1      32.561 -15.501 -21.254  0.00  0.00    +0.038 C 
ATOM     13  C   UNL     1      32.586 -14.052 -20.782  0.00  0.00    +0.004 C 
ENDBRANCH  10  12
BRANCH  10  14
ATOM     14  C   UNL     1      34.509 -15.366 -22.958  0.00  0.00    -0.036 C 
BRANCH  14  15
ATOM     15  N   UNL     1      33.593 -15.349 -24.092  0.00  0.00    +0.386 N 
ATOM     16  C   UNL     1      34.108 -16.179 -25.183  0.00  0.00    -0.101 C 
ATOM     17  C   UNL     1      33.374 -13.978 -24.557  0.00  0.00    -0.101 C 
ATOM     18  H   UNL     1      32.700 -15.733 -23.786  0.00  0.00    -0.080 HD
ENDBRANCH  14  15
ENDBRANCH  10  14
ENDBRANCH   1  10
TORSDOF 6
ENDMDL
MODEL 2
REMARK VINA RESULT:      -7.6      0.379      1.230
REMARK  Name = 10767
REMARK  6 active torsions:
REMARK  status: ('A' for Active; 'I' for Inactive)
REMARK    1  A    between atoms: O_1  and  C_3
REMARK    2  A    between atoms: O_1  and  C_10
REMARK    3  A    between atoms: C_3  and  C_4
REMARK    4  A    between atoms: C_10  and  C_12
REMARK    5  A    between atoms: C_10  and  C_14
REMARK    6  A    between atoms: C_14  and  N_15
REMARK                            x       y       z     vdW  Elec       q    Type
REMARK                         _______ _______ _______ _____ _____    ______ ____
ROOT
ATOM      1  O   UNL     1      33.627 -17.147 -21.806  0.00  0.00    -0.455 OA
ENDROOT
BRANCH   1   3
ATOM      2  O   UNL     1      35.773 -17.624 -22.488  0.00  0.00    -0.245 OA
ATOM      3  C   UNL     1      34.752 -17.901 -21.878  0.00  0.00    +0.341 C 
BRANCH   3   4
ATOM      4  C   UNL     1      34.586 -19.153 -21.098  0.00  0.00    +0.076 C 
ATOM      5  C   UNL     1      33.311 -19.611 -20.835  0.00  0.00    +0.006 C 
ATOM      6  C   UNL     1      35.713 -19.820 -20.659  0.00  0.00    +0.006 C 
ATOM      7  C   UNL     1      33.155 -20.787 -20.101  0.00  0.00    +0.000 C 
ATOM      8  C   UNL     1      35.556 -20.996 -19.926  0.00  0.00    +0.000 C 
ATOM      9  C   UNL     1      34.278 -21.478 -19.646  0.00  0.00    +0.000 C 
ENDBRANCH   3   4
ENDBRANCH   1   3
BRANCH   1  10
ATOM     10  C   UNL     1      33.833 -15.751 -21.546  0.00  0.00    +0.118 C 
ATOM     11  C   UNL     1      34.764 -15.649 -20.329  0.00  0.00    +0.041 C 
BRANCH  10  12
ATOM     12  C   UNL     1      32.459 -15.143 -21.190  0.00  0.00    +0.038 C 
ATOM     13  C   UNL     1      32.524 -13.744 -20.587  0.00  0.00    +0.004 C 
ENDBRANCH  10  12
BRANCH  10  14
ATOM     14  C   UNL     1      34.490 -15.140 -22.801  0.00  0.00    -0.036 C 
BRANCH  14  15
ATOM     15  N   UNL     1      33.548 -14.854 -23.876  0.00  0.00    +0.386 N 
ATOM     16  C   UNL     1      33.806 -15.715 -25.031  0.00  0.00    -0.101 C 
ATOM     17  C   UNL     1      33.624 -13.445 -24.267  0.00  0.00    -0.101 C 
ATOM     18  H   UNL     1      32.606 -15.044 -23.534  0.00  0.00    -0.080 HD
ENDBRANCH  14  15
ENDBRANCH  10  14
ENDBRANCH   1  10
TORSDOF 6
ENDMDL
MODEL 3
REMARK VINA RESULT:      -7.1      1.927      5.722
REMARK  Name = 10767
REMARK  6 active torsions:
REMARK  status: ('A' for Active; 'I' for Inactive)
REMARK    1  A    between atoms: O_1  and  C_3
REMARK    2  A    between atoms: O_1  and  C_10
REMARK    3  A    between atoms: C_3  and  C_4
REMARK    4  A    between atoms: C_10  and  C_12
REMARK    5  A    between atoms: C_10  and  C_14
REMARK    6  A    between atoms: C_14  and  N_15
REMARK                            x       y       z     vdW  Elec       q    Type
REMARK                         _______ _______ _______ _____ _____    ______ ____
ROOT
ATOM      1  O   UNL     1      35.294 -16.877 -22.504  0.00  0.00    -0.455 OA
ENDROOT
BRANCH   1   3
ATOM      2  O   UNL     1      35.157 -16.353 -20.267  0.00  0.00    -0.245 OA
ATOM      3  C   UNL     1      34.869 -16.156 -21.437  0.00  0.00    +0.341 C 
BRANCH   3   4
ATOM      4  C   UNL     1      33.976 -15.057 -21.881  0.00  0.00    +0.076 C 
ATOM      5  C   UNL     1      34.056 -14.617 -23.187  0.00  0.00    +0.006 C 
ATOM      6  C   UNL     1      33.091 -14.509 -20.973  0.00  0.00    +0.006 C 
ATOM      7  C   UNL     1      33.216 -13.584 -23.603  0.00  0.00    +0.000 C 
ATOM      8  C   UNL     1      32.252 -13.476 -21.391  0.00  0.00    +0.000 C 
ATOM      9  C   UNL     1      32.315 -13.014 -22.705  0.00  0.00    +0.000 C 
ENDBRANCH   3   4
ENDBRANCH   1   3
BRANCH   1  10
ATOM     10  C   UNL     1      35.407 -18.292 -22.291  0.00  0.00    +0.118 C 
ATOM     11  C   UNL     1      36.887 -18.592 -22.017  0.00  0.00    +0.041 C 
BRANCH  10  12
ATOM     12  C   UNL     1      34.978 -18.990 -23.600  0.00  0.00    +0.038 C 
ATOM     13  C   UNL     1      34.573 -18.039 -24.721  0.00  0.00    +0.004 C 
ENDBRANCH  10  12
BRANCH  10  14
ATOM     14  C   UNL     1      34.533 -18.646 -21.070  0.00  0.00    -0.036 C 
BRANCH  14  15
ATOM     15  N   UNL     1      34.122 -20.045 -21.028  0.00  0.00    +0.386 N 
ATOM     16  C   UNL     1      32.699 -20.155 -20.702  0.00  0.00    -0.101 C 
ATOM     17  C   UNL     1      34.924 -20.788 -20.054  0.00  0.00    -0.101 C 
ATOM     18  H   UNL     1      34.277 -20.449 -21.951  0.00  0.00    -0.080 HD
ENDBRANCH  14  15
ENDBRANCH  10  14
ENDBRANCH   1  10
TORSDOF 6
ENDMDL
MODEL 4
REMARK VINA RESULT:      -6.8      5.672      9.090
REMARK  Name = 10767
REMARK  6 active torsions:
REMARK  status: ('A' for Active; 'I' for Inactive)
REMARK    1  A    between atoms: O_1  and  C_3
REMARK    2  A    between atoms: O_1  and  C_10
REMARK    3  A    between atoms: C_3  and  C_4
REMARK    4  A    between atoms: C_10  and  C_12
REMARK    5  A    between atoms: C_10  and  C_14
REMARK    6  A    between atoms: C_14  and  N_15
REMARK                            x       y       z     vdW  Elec       q    Type
REMARK                         _______ _______ _______ _____ _____    ______ ____
ROOT
ATOM      1  O   UNL     1      34.891 -23.533 -17.145  0.00  0.00    -0.455 OA
ENDROOT
BRANCH   1   3
ATOM      2  O   UNL     1      32.601 -23.405 -17.338  0.00  0.00    -0.245 OA
ATOM      3  C   UNL     1      33.728 -23.067 -17.665  0.00  0.00    +0.341 C 
BRANCH   3   4
ATOM      4  C   UNL     1      34.002 -22.058 -18.718  0.00  0.00    +0.076 C 
ATOM      5  C   UNL     1      35.307 -21.843 -19.113  0.00  0.00    +0.006 C 
ATOM      6  C   UNL     1      32.942 -21.367 -19.271  0.00  0.00    +0.006 C 
ATOM      7  C   UNL     1      35.563 -20.894 -20.104  0.00  0.00    +0.000 C 
ATOM      8  C   UNL     1      33.200 -20.420 -20.262  0.00  0.00    +0.000 C 
ATOM      9  C   UNL     1      34.510 -20.183 -20.677  0.00  0.00    +0.000 C 
ENDBRANCH   3   4
ENDBRANCH   1   3
BRANCH   1  10
ATOM     10  C   UNL     1      35.012 -23.446 -15.718  0.00  0.00    +0.118 C 
ATOM     11  C   UNL     1      33.656 -22.969 -15.178  0.00  0.00    +0.041 C 
BRANCH  10  12
ATOM     12  C   UNL     1      36.087 -22.381 -15.412  0.00  0.00    +0.038 C 
ATOM     13  C   UNL     1      37.274 -22.387 -16.368  0.00  0.00    +0.004 C 
ENDBRANCH  10  12
BRANCH  10  14
ATOM     14  C   UNL     1      35.352 -24.857 -15.196  0.00  0.00    -0.036 C 
BRANCH  14  15
ATOM     15  N   UNL     1      36.511 -24.891 -14.310  0.00  0.00    +0.386 N 
ATOM     16  C   UNL     1      37.396 -26.003 -14.663  0.00  0.00    -0.101 C 
ATOM     17  C   UNL     1      36.088 -25.003 -12.913  0.00  0.00    -0.101 C 
ATOM     18  H   UNL     1      37.024 -24.018 -14.425  0.00  0.00    -0.080 HD
ENDBRANCH  14  15
ENDBRANCH  10  14
ENDBRANCH   1  10
TORSDOF 6
ENDMDL
MODEL 5
REMARK VINA RESULT:      -6.7      5.406      8.563
REMARK  Name = 10767
REMARK  6 active torsions:
REMARK  status: ('A' for Active; 'I' for Inactive)
REMARK    1  A    between atoms: O_1  and  C_3
REMARK    2  A    between atoms: O_1  and  C_10
REMARK    3  A    between atoms: C_3  and  C_4
REMARK    4  A    between atoms: C_10  and  C_12
REMARK    5  A    between atoms: C_10  and  C_14
REMARK    6  A    between atoms: C_14  and  N_15
REMARK                            x       y       z     vdW  Elec       q    Type
REMARK                         _______ _______ _______ _____ _____    ______ ____
ROOT
ATOM      1  O   UNL     1      34.268 -23.634 -17.239  0.00  0.00    -0.455 OA
ENDROOT
BRANCH   1   3
ATOM      2  O   UNL     1      32.125 -22.963 -17.746  0.00  0.00    -0.245 OA
ATOM      3  C   UNL     1      33.336 -22.898 -17.894  0.00  0.00    +0.341 C 
BRANCH   3   4
ATOM      4  C   UNL     1      33.990 -21.968 -18.848  0.00  0.00    +0.076 C 
ATOM      5  C   UNL     1      33.204 -21.113 -19.592  0.00  0.00    +0.006 C 
ATOM      6  C   UNL     1      35.367 -21.988 -18.960  0.00  0.00    +0.006 C 
ATOM      7  C   UNL     1      33.820 -20.240 -20.489  0.00  0.00    +0.000 C 
ATOM      8  C   UNL     1      35.982 -21.114 -19.856  0.00  0.00    +0.000 C 
ATOM      9  C   UNL     1      35.209 -20.241 -20.621  0.00  0.00    +0.000 C 
ENDBRANCH   3   4
ENDBRANCH   1   3
BRANCH   1  10
ATOM     10  C   UNL     1      34.255 -23.521 -15.809  0.00  0.00    +0.118 C 
ATOM     11  C   UNL     1      34.488 -24.928 -15.240  0.00  0.00    +0.041 C 
BRANCH  10  12
ATOM     12  C   UNL     1      32.849 -23.032 -15.399  0.00  0.00    +0.038 C 
ATOM     13  C   UNL     1      32.240 -23.776 -14.217  0.00  0.00    +0.004 C 
ENDBRANCH  10  12
BRANCH  10  14
ATOM     14  C   UNL     1      35.398 -22.565 -15.411  0.00  0.00    -0.036 C 
BRANCH  14  15
ATOM     15  N   UNL     1      36.703 -23.212 -15.328  0.00  0.00    +0.386 N 
ATOM     16  C   UNL     1      37.184 -23.227 -13.945  0.00  0.00    -0.101 C 
ATOM     17  C   UNL     1      37.669 -22.535 -16.194  0.00  0.00    -0.101 C 
ATOM     18  H   UNL     1      36.601 -24.175 -15.647  0.00  0.00    -0.080 HD
ENDBRANCH  14  15
ENDBRANCH  10  14
ENDBRANCH   1  10
TORSDOF 6
ENDMDL
MODEL 6
REMARK VINA RESULT:      -6.7      2.329      3.882
REMARK  Name = 10767
REMARK  6 active torsions:
REMARK  status: ('A' for Active; 'I' for Inactive)
REMARK    1  A    between atoms: O_1  and  C_3
REMARK    2  A    between atoms: O_1  and  C_10
REMARK    3  A    between atoms: C_3  and  C_4
REMARK    4  A    between atoms: C_10  and  C_12
REMARK    5  A    between atoms: C_10  and  C_14
REMARK    6  A    between atoms: C_14  and  N_15
REMARK                            x       y       z     vdW  Elec       q    Type
REMARK                         _______ _______ _______ _____ _____    ______ ____
ROOT
ATOM      1  O   UNL     1      34.435 -14.816 -23.793  0.00  0.00    -0.455 OA
ENDROOT
BRANCH   1   3
ATOM      2  O   UNL     1      34.753 -14.529 -21.531  0.00  0.00    -0.245 OA
ATOM      3  C   UNL     1      34.637 -15.237 -22.520  0.00  0.00    +0.341 C 
BRANCH   3   4
ATOM      4  C   UNL     1      34.703 -16.719 -22.471  0.00  0.00    +0.076 C 
ATOM      5  C   UNL     1      34.526 -17.356 -21.260  0.00  0.00    +0.006 C 
ATOM      6  C   UNL     1      34.940 -17.415 -23.641  0.00  0.00    +0.006 C 
ATOM      7  C   UNL     1      34.588 -18.749 -21.215  0.00  0.00    +0.000 C 
ATOM      8  C   UNL     1      35.002 -18.807 -23.595  0.00  0.00    +0.000 C 
ATOM      9  C   UNL     1      34.827 -19.474 -22.383  0.00  0.00    +0.000 C 
ENDBRANCH   3   4
ENDBRANCH   1   3
BRANCH   1  10
ATOM     10  C   UNL     1      33.456 -13.780 -23.955  0.00  0.00    +0.118 C 
ATOM     11  C   UNL     1      32.389 -13.992 -22.871  0.00  0.00    +0.041 C 
BRANCH  10  12
ATOM     12  C   UNL     1      32.814 -13.968 -25.347  0.00  0.00    +0.038 C 
ATOM     13  C   UNL     1      33.277 -15.213 -26.094  0.00  0.00    +0.004 C 
ENDBRANCH  10  12
BRANCH  10  14
ATOM     14  C   UNL     1      34.177 -12.430 -23.768  0.00  0.00    -0.036 C 
BRANCH  14  15
ATOM     15  N   UNL     1      33.683 -11.374 -24.645  0.00  0.00    +0.386 N 
ATOM     16  C   UNL     1      34.762 -10.860 -25.491  0.00  0.00    -0.101 C 
ATOM     17  C   UNL     1      33.092 -10.288 -23.861  0.00  0.00    -0.101 C 
ATOM     18  H   UNL     1      32.961 -11.771 -25.245  0.00  0.00    -0.080 HD
ENDBRANCH  14  15
ENDBRANCH  10  14
ENDBRANCH   1  10
TORSDOF 6
ENDMDL
MODEL 7
REMARK VINA RESULT:      -6.6      6.848     10.166
REMARK  Name = 10767
REMARK  6 active torsions:
REMARK  status: ('A' for Active; 'I' for Inactive)
REMARK    1  A    between atoms: O_1  and  C_3
REMARK    2  A    between atoms: O_1  and  C_10
REMARK    3  A    between atoms: C_3  and  C_4
REMARK    4  A    between atoms: C_10  and  C_12
REMARK    5  A    between atoms: C_10  and  C_14
REMARK    6  A    between atoms: C_14  and  N_15
REMARK                            x       y       z     vdW  Elec       q    Type
REMARK                         _______ _______ _______ _____ _____    ______ ____
ROOT
ATOM      1  O   UNL     1      35.857 -22.559 -14.903  0.00  0.00    -0.455 OA
ENDROOT
BRANCH   1   3
ATOM      2  O   UNL     1      37.942 -22.429 -15.870  0.00  0.00    -0.245 OA
ATOM      3  C   UNL     1      36.722 -22.417 -15.937  0.00  0.00    +0.341 C 
BRANCH   3   4
ATOM      4  C   UNL     1      35.979 -22.239 -17.210  0.00  0.00    +0.076 C 
ATOM      5  C   UNL     1      34.688 -22.717 -17.302  0.00  0.00    +0.006 C 
ATOM      6  C   UNL     1      36.604 -21.600 -18.263  0.00  0.00    +0.006 C 
ATOM      7  C   UNL     1      33.990 -22.549 -18.498  0.00  0.00    +0.000 C 
ATOM      8  C   UNL     1      35.905 -21.432 -19.458  0.00  0.00    +0.000 C 
ATOM      9  C   UNL     1      34.600 -21.908 -19.576  0.00  0.00    +0.000 C 
ENDBRANCH   3   4
ENDBRANCH   1   3
BRANCH   1  10
ATOM     10  C   UNL     1      36.039 -23.734 -14.099  0.00  0.00    +0.118 C 
ATOM     11  C   UNL     1      34.641 -24.254 -13.734  0.00  0.00    +0.041 C 
BRANCH  10  12
ATOM     12  C   UNL     1      36.775 -23.301 -12.813  0.00  0.00    +0.038 C 
ATOM     13  C   UNL     1      36.154 -23.823 -11.522  0.00  0.00    +0.004 C 
ENDBRANCH  10  12
BRANCH  10  14
ATOM     14  C   UNL     1      36.810 -24.762 -14.952  0.00  0.00    -0.036 C 
BRANCH  14  15
ATOM     15  N   UNL     1      37.714 -25.607 -14.180  0.00  0.00    +0.386 N 
ATOM     16  C   UNL     1      39.069 -25.551 -14.732  0.00  0.00    -0.101 C 
ATOM     17  C   UNL     1      37.232 -26.989 -14.154  0.00  0.00    -0.101 C 
ATOM     18  H   UNL     1      37.738 -25.254 -13.223  0.00  0.00    -0.080 HD
ENDBRANCH  14  15
ENDBRANCH  10  14
ENDBRANCH   1  10
TORSDOF 6
ENDMDL
MODEL 8
REMARK VINA RESULT:      -6.6      2.227      3.444
REMARK  Name = 10767
REMARK  6 active torsions:
REMARK  status: ('A' for Active; 'I' for Inactive)
REMARK    1  A    between atoms: O_1  and  C_3
REMARK    2  A    between atoms: O_1  and  C_10
REMARK    3  A    between atoms: C_3  and  C_4
REMARK    4  A    between atoms: C_10  and  C_12
REMARK    5  A    between atoms: C_10  and  C_14
REMARK    6  A    between atoms: C_14  and  N_15
REMARK                            x       y       z     vdW  Elec       q    Type
REMARK                         _______ _______ _______ _____ _____    ______ ____
ROOT
ATOM      1  O   UNL     1      34.412 -14.411 -23.385  0.00  0.00    -0.455 OA
ENDROOT
BRANCH   1   3
ATOM      2  O   UNL     1      34.723 -14.527 -21.107  0.00  0.00    -0.245 OA
ATOM      3  C   UNL     1      34.602 -15.050 -22.204  0.00  0.00    +0.341 C 
BRANCH   3   4
ATOM      4  C   UNL     1      34.647 -16.519 -22.415  0.00  0.00    +0.076 C 
ATOM      5  C   UNL     1      34.331 -17.354 -21.363  0.00  0.00    +0.006 C 
ATOM      6  C   UNL     1      35.004 -17.003 -23.658  0.00  0.00    +0.006 C 
ATOM      7  C   UNL     1      34.374 -18.734 -21.562  0.00  0.00    +0.000 C 
ATOM      8  C   UNL     1      35.047 -18.383 -23.856  0.00  0.00    +0.000 C 
ATOM      9  C   UNL     1      34.732 -19.248 -22.808  0.00  0.00    +0.000 C 
ENDBRANCH   3   4
ENDBRANCH   1   3
BRANCH   1  10
ATOM     10  C   UNL     1      33.224 -13.611 -23.472  0.00  0.00    +0.118 C 
ATOM     11  C   UNL     1      33.670 -12.145 -23.567  0.00  0.00    +0.041 C 
BRANCH  10  12
ATOM     12  C   UNL     1      32.432 -13.820 -22.164  0.00  0.00    +0.038 C 
ATOM     13  C   UNL     1      31.844 -12.545 -21.569  0.00  0.00    +0.004 C 
ENDBRANCH  10  12
BRANCH  10  14
ATOM     14  C   UNL     1      32.467 -14.044 -24.745  0.00  0.00    -0.036 C 
BRANCH  14  15
ATOM     15  N   UNL     1      33.343 -14.396 -25.857  0.00  0.00    +0.386 N 
ATOM     16  C   UNL     1      33.239 -13.404 -26.929  0.00  0.00    -0.101 C 
ATOM     17  C   UNL     1      33.019 -15.730 -26.367  0.00  0.00    -0.101 C 
ATOM     18  H   UNL     1      34.304 -14.405 -25.515  0.00  0.00    -0.080 HD
ENDBRANCH  14  15
ENDBRANCH  10  14
ENDBRANCH   1  10
TORSDOF 6
ENDMDL
MODEL 9
REMARK VINA RESULT:      -6.6      8.605     10.388
REMARK  Name = 10767
REMARK  6 active torsions:
REMARK  status: ('A' for Active; 'I' for Inactive)
REMARK    1  A    between atoms: O_1  and  C_3
REMARK    2  A    between atoms: O_1  and  C_10
REMARK    3  A    between atoms: C_3  and  C_4
REMARK    4  A    between atoms: C_10  and  C_12
REMARK    5  A    between atoms: C_10  and  C_14
REMARK    6  A    between atoms: C_14  and  N_15
REMARK                            x       y       z     vdW  Elec       q    Type
REMARK                         _______ _______ _______ _____ _____    ______ ____
ROOT
ATOM      1  O   UNL     1      34.815 -24.219 -14.731  0.00  0.00    -0.455 OA
ENDROOT
BRANCH   1   3
ATOM      2  O   UNL     1      34.551 -23.841 -16.986  0.00  0.00    -0.245 OA
ATOM      3  C   UNL     1      34.121 -23.873 -15.844  0.00  0.00    +0.341 C 
BRANCH   3   4
ATOM      4  C   UNL     1      32.722 -23.523 -15.490  0.00  0.00    +0.076 C 
ATOM      5  C   UNL     1      32.350 -23.522 -14.162  0.00  0.00    +0.006 C 
ATOM      6  C   UNL     1      31.838 -23.208 -16.503  0.00  0.00    +0.006 C 
ATOM      7  C   UNL     1      31.035 -23.193 -13.831  0.00  0.00    +0.000 C 
ATOM      8  C   UNL     1      30.524 -22.879 -16.171  0.00  0.00    +0.000 C 
ATOM      9  C   UNL     1      30.123 -22.872 -14.836  0.00  0.00    +0.000 C 
ENDBRANCH   3   4
ENDBRANCH   1   3
BRANCH   1  10
ATOM     10  C   UNL     1      36.116 -23.629 -14.604  0.00  0.00    +0.118 C 
ATOM     11  C   UNL     1      36.325 -23.308 -13.117  0.00  0.00    +0.041 C 
BRANCH  10  12
ATOM     12  C   UNL     1      36.106 -22.314 -15.413  0.00  0.00    +0.038 C 
ATOM     13  C   UNL     1      37.383 -22.046 -16.200  0.00  0.00    +0.004 C 
ENDBRANCH  10  12
BRANCH  10  14
ATOM     14  C   UNL     1      37.145 -24.668 -15.098  0.00  0.00    -0.036 C 
BRANCH  14  15
ATOM     15  N   UNL     1      37.747 -25.453 -14.026  0.00  0.00    +0.386 N 
ATOM     16  C   UNL     1      39.206 -25.465 -14.153  0.00  0.00    -0.101 C 
ATOM     17  C   UNL     1      37.225 -26.820 -14.033  0.00  0.00    -0.101 C 
ATOM     18  H   UNL     1      37.503 -25.017 -13.137  0.00  0.00    -0.080 HD
ENDBRANCH  14  15
ENDBRANCH  10  14
ENDBRANCH   1  10
TORSDOF 6
ENDMDL
