MODEL 1
REMARK VINA RESULT:      -8.5      0.000      0.000
REMARK  Name = 445966
REMARK  3 active torsions:
REMARK  status: ('A' for Active; 'I' for Inactive)
REMARK    1  A    between atoms: C_6  and  O_15
REMARK    2  A    between atoms: O_15  and  C_16
REMARK    3  A    between atoms: C_16  and  C_19
REMARK                            x       y       z     vdW  Elec       q    Type
REMARK                         _______ _______ _______ _____ _____    ______ ____
ROOT
ATOM      1  N   UNL     1      32.728 -23.551 -13.468  0.00  0.00    -0.266 NA
ATOM      2  N   UNL     1      34.572 -23.365 -16.644  0.00  0.00    -0.293 NA
ATOM      3  N   UNL     1      32.156 -23.125 -16.879  0.00  0.00    -0.316 NA
ATOM      4  N   UNL     1      30.946 -23.250 -14.774  0.00  0.00    -0.296 N 
ATOM      5  N   UNL     1      33.574 -23.046 -18.739  0.00  0.00    -0.283 N 
ATOM      6  C   UNL     1      34.473 -23.504 -15.304  0.00  0.00    +0.288 C 
ATOM      7  C   UNL     1      33.213 -23.453 -14.742  0.00  0.00    +0.215 C 
ATOM      8  C   UNL     1      32.088 -23.268 -15.533  0.00  0.00    +0.196 C 
ATOM      9  C   UNL     1      33.424 -23.187 -17.340  0.00  0.00    +0.200 C 
ATOM     10  C   UNL     1      31.366 -23.423 -13.538  0.00  0.00    +0.164 C 
ATOM     11  H   UNL     1      33.259 -23.688 -12.650  0.00  0.00    +0.126 HD
ATOM     12  H   UNL     1      30.019 -23.134 -15.084  0.00  0.00    +0.150 HD
ATOM     13  H   UNL     1      34.471 -23.081 -19.144  0.00  0.00    +0.156 HD
ATOM     14  H   UNL     1      32.781 -22.914 -19.307  0.00  0.00    +0.156 HD
ENDROOT
BRANCH   6  15
ATOM     15  O   UNL     1      35.618 -23.687 -14.569  0.00  0.00    -0.451 OA
BRANCH  15  16
ATOM     16  C   UNL     1      36.796 -24.008 -15.286  0.00  0.00    +0.227 C 
BRANCH  16  19
ATOM     17  O   UNL     1      36.914 -26.432 -11.651  0.00  0.00    -0.275 OA
ATOM     18  N   UNL     1      36.427 -25.991 -13.899  0.00  0.00    -0.302 N 
ATOM     19  C   UNL     1      37.120 -25.479 -15.056  0.00  0.00    +0.116 C 
ATOM     20  C   UNL     1      38.583 -25.711 -14.699  0.00  0.00    +0.033 C 
ATOM     21  C   UNL     1      38.617 -25.610 -13.176  0.00  0.00    +0.087 C 
ATOM     22  C   UNL     1      37.240 -26.080 -12.774  0.00  0.00    +0.223 C 
ATOM     23  H   UNL     1      35.478 -26.252 -13.905  0.00  0.00    +0.149 HD
ENDBRANCH  16  19
ENDBRANCH  15  16
ENDBRANCH   6  15
TORSDOF 3
ENDMDL
MODEL 2
REMARK VINA RESULT:      -8.4      1.506      3.055
REMARK  Name = 445966
REMARK  3 active torsions:
REMARK  status: ('A' for Active; 'I' for Inactive)
REMARK    1  A    between atoms: C_6  and  O_15
REMARK    2  A    between atoms: O_15  and  C_16
REMARK    3  A    between atoms: C_16  and  C_19
REMARK                            x       y       z     vdW  Elec       q    Type
REMARK                         _______ _______ _______ _____ _____    ______ ____
ROOT
ATOM      1  N   UNL     1      34.811 -22.766 -18.255  0.00  0.00    -0.266 NA
ATOM      2  N   UNL     1      33.535 -23.970 -15.023  0.00  0.00    -0.293 NA
ATOM      3  N   UNL     1      31.809 -23.115 -16.520  0.00  0.00    -0.316 NA
ATOM      4  N   UNL     1      32.663 -22.322 -18.653  0.00  0.00    -0.296 N 
ATOM      5  N   UNL     1      31.277 -23.945 -14.398  0.00  0.00    -0.283 N 
ATOM      6  C   UNL     1      34.507 -23.713 -15.925  0.00  0.00    +0.288 C 
ATOM      7  C   UNL     1      34.137 -23.155 -17.132  0.00  0.00    +0.215 C 
ATOM      8  C   UNL     1      32.806 -22.869 -17.404  0.00  0.00    +0.196 C 
ATOM      9  C   UNL     1      32.263 -23.660 -15.371  0.00  0.00    +0.200 C 
ATOM     10  C   UNL     1      33.886 -22.274 -19.137  0.00  0.00    +0.164 C 
ATOM     11  H   UNL     1      35.783 -22.828 -18.403  0.00  0.00    +0.126 HD
ATOM     12  H   UNL     1      31.831 -22.029 -19.091  0.00  0.00    +0.150 HD
ATOM     13  H   UNL     1      31.538 -24.343 -13.535  0.00  0.00    +0.156 HD
ATOM     14  H   UNL     1      30.332 -23.746 -14.583  0.00  0.00    +0.156 HD
ENDROOT
BRANCH   6  15
ATOM     15  O   UNL     1      35.807 -24.015 -15.604  0.00  0.00    -0.451 OA
BRANCH  15  16
ATOM     16  C   UNL     1      36.043 -25.276 -15.004  0.00  0.00    +0.227 C 
BRANCH  16  19
ATOM     17  O   UNL     1      35.379 -25.095 -10.688  0.00  0.00    -0.275 OA
ATOM     18  N   UNL     1      36.504 -25.727 -12.642  0.00  0.00    -0.302 N 
ATOM     19  C   UNL     1      37.003 -25.088 -13.836  0.00  0.00    +0.116 C 
ATOM     20  C   UNL     1      37.130 -23.632 -13.406  0.00  0.00    +0.033 C 
ATOM     21  C   UNL     1      36.037 -23.455 -12.355  0.00  0.00    +0.087 C 
ATOM     22  C   UNL     1      35.922 -24.833 -11.750  0.00  0.00    +0.223 C 
ATOM     23  H   UNL     1      36.569 -26.695 -12.476  0.00  0.00    +0.149 HD
ENDBRANCH  16  19
ENDBRANCH  15  16
ENDBRANCH   6  15
TORSDOF 3
ENDMDL
MODEL 3
REMARK VINA RESULT:      -8.4      1.512      3.072
REMARK  Name = 445966
REMARK  3 active torsions:
REMARK  status: ('A' for Active; 'I' for Inactive)
REMARK    1  A    between atoms: C_6  and  O_15
REMARK    2  A    between atoms: O_15  and  C_16
REMARK    3  A    between atoms: C_16  and  C_19
REMARK                            x       y       z     vdW  Elec       q    Type
REMARK                         _______ _______ _______ _____ _____    ______ ____
ROOT
ATOM      1  N   UNL     1      34.787 -22.697 -18.377  0.00  0.00    -0.266 NA
ATOM      2  N   UNL     1      33.303 -23.877 -15.225  0.00  0.00    -0.293 NA
ATOM      3  N   UNL     1      31.694 -22.913 -16.785  0.00  0.00    -0.316 NA
ATOM      4  N   UNL     1      32.685 -22.136 -18.865  0.00  0.00    -0.296 N 
ATOM      5  N   UNL     1      31.023 -23.743 -14.703  0.00  0.00    -0.283 N 
ATOM      6  C   UNL     1      34.328 -23.659 -16.078  0.00  0.00    +0.288 C 
ATOM      7  C   UNL     1      34.042 -23.066 -17.292  0.00  0.00    +0.215 C 
ATOM      8  C   UNL     1      32.742 -22.707 -17.619  0.00  0.00    +0.196 C 
ATOM      9  C   UNL     1      32.066 -23.496 -15.626  0.00  0.00    +0.200 C 
ATOM     10  C   UNL     1      33.930 -22.145 -19.292  0.00  0.00    +0.164 C 
ATOM     11  H   UNL     1      35.760 -22.807 -18.481  0.00  0.00    +0.126 HD
ATOM     12  H   UNL     1      31.890 -21.795 -19.335  0.00  0.00    +0.150 HD
ATOM     13  H   UNL     1      31.223 -24.167 -13.836  0.00  0.00    +0.156 HD
ATOM     14  H   UNL     1      30.099 -23.493 -14.928  0.00  0.00    +0.156 HD
ENDROOT
BRANCH   6  15
ATOM     15  O   UNL     1      35.594 -24.032 -15.703  0.00  0.00    -0.451 OA
BRANCH  15  16
ATOM     16  C   UNL     1      36.034 -23.615 -14.423  0.00  0.00    +0.227 C 
BRANCH  16  19
ATOM     17  O   UNL     1      38.346 -27.304 -14.808  0.00  0.00    -0.275 OA
ATOM     18  N   UNL     1      37.912 -25.023 -15.116  0.00  0.00    -0.302 N 
ATOM     19  C   UNL     1      37.526 -23.895 -14.305  0.00  0.00    +0.116 C 
ATOM     20  C   UNL     1      37.934 -24.336 -12.904  0.00  0.00    +0.033 C 
ATOM     21  C   UNL     1      37.794 -25.856 -12.936  0.00  0.00    +0.087 C 
ATOM     22  C   UNL     1      38.071 -26.193 -14.381  0.00  0.00    +0.223 C 
ATOM     23  H   UNL     1      38.048 -24.971 -16.090  0.00  0.00    +0.149 HD
ENDBRANCH  16  19
ENDBRANCH  15  16
ENDBRANCH   6  15
TORSDOF 3
ENDMDL
MODEL 4
REMARK VINA RESULT:      -8.2      7.721     10.010
REMARK  Name = 445966
REMARK  3 active torsions:
REMARK  status: ('A' for Active; 'I' for Inactive)
REMARK    1  A    between atoms: C_6  and  O_15
REMARK    2  A    between atoms: O_15  and  C_16
REMARK    3  A    between atoms: C_16  and  C_19
REMARK                            x       y       z     vdW  Elec       q    Type
REMARK                         _______ _______ _______ _____ _____    ______ ____
ROOT
ATOM      1  N   UNL     1      34.962 -16.069 -20.899  0.00  0.00    -0.266 NA
ATOM      2  N   UNL     1      34.549 -17.127 -24.397  0.00  0.00    -0.293 NA
ATOM      3  N   UNL     1      33.654 -14.910 -23.914  0.00  0.00    -0.316 NA
ATOM      4  N   UNL     1      33.931 -14.220 -21.599  0.00  0.00    -0.296 N 
ATOM      5  N   UNL     1      33.527 -15.832 -26.060  0.00  0.00    -0.283 N 
ATOM      6  C   UNL     1      34.953 -17.291 -23.119  0.00  0.00    +0.288 C 
ATOM      7  C   UNL     1      34.710 -16.265 -22.228  0.00  0.00    +0.215 C 
ATOM      8  C   UNL     1      34.070 -15.104 -22.639  0.00  0.00    +0.196 C 
ATOM      9  C   UNL     1      33.933 -15.962 -24.712  0.00  0.00    +0.200 C 
ATOM     10  C   UNL     1      34.476 -14.832 -20.569  0.00  0.00    +0.164 C 
ATOM     11  H   UNL     1      35.408 -16.702 -20.291  0.00  0.00    +0.126 HD
ATOM     12  H   UNL     1      33.516 -13.328 -21.618  0.00  0.00    +0.150 HD
ATOM     13  H   UNL     1      33.699 -16.562 -26.699  0.00  0.00    +0.156 HD
ATOM     14  H   UNL     1      33.074 -15.012 -26.360  0.00  0.00    +0.156 HD
ENDROOT
BRANCH   6  15
ATOM     15  O   UNL     1      35.580 -18.460 -22.766  0.00  0.00    -0.451 OA
BRANCH  15  16
ATOM     16  C   UNL     1      34.754 -19.527 -22.336  0.00  0.00    +0.227 C 
BRANCH  16  19
ATOM     17  O   UNL     1      35.327 -22.365 -19.062  0.00  0.00    -0.275 OA
ATOM     18  N   UNL     1      35.428 -20.270 -20.103  0.00  0.00    -0.302 N 
ATOM     19  C   UNL     1      34.537 -19.402 -20.834  0.00  0.00    +0.116 C 
ATOM     20  C   UNL     1      33.162 -19.888 -20.394  0.00  0.00    +0.033 C 
ATOM     21  C   UNL     1      33.367 -21.371 -20.099  0.00  0.00    +0.087 C 
ATOM     22  C   UNL     1      34.811 -21.435 -19.661  0.00  0.00    +0.223 C 
ATOM     23  H   UNL     1      36.375 -20.060 -19.935  0.00  0.00    +0.149 HD
ENDBRANCH  16  19
ENDBRANCH  15  16
ENDBRANCH   6  15
TORSDOF 3
ENDMDL
MODEL 5
REMARK VINA RESULT:      -8.2      2.960      6.127
REMARK  Name = 445966
REMARK  3 active torsions:
REMARK  status: ('A' for Active; 'I' for Inactive)
REMARK    1  A    between atoms: C_6  and  O_15
REMARK    2  A    between atoms: O_15  and  C_16
REMARK    3  A    between atoms: C_16  and  C_19
REMARK                            x       y       z     vdW  Elec       q    Type
REMARK                         _______ _______ _______ _____ _____    ______ ____
ROOT
ATOM      1  N   UNL     1      34.715 -24.741 -11.753  0.00  0.00    -0.266 NA
ATOM      2  N   UNL     1      33.494 -23.787 -15.088  0.00  0.00    -0.293 NA
ATOM      3  N   UNL     1      35.870 -23.358 -14.736  0.00  0.00    -0.316 NA
ATOM      4  N   UNL     1      36.667 -23.992 -12.528  0.00  0.00    -0.296 N 
ATOM      5  N   UNL     1      34.829 -22.848 -16.769  0.00  0.00    -0.283 N 
ATOM      6  C   UNL     1      33.354 -24.284 -13.840  0.00  0.00    +0.288 C 
ATOM      7  C   UNL     1      34.471 -24.323 -13.031  0.00  0.00    +0.215 C 
ATOM      8  C   UNL     1      35.698 -23.862 -13.490  0.00  0.00    +0.196 C 
ATOM      9  C   UNL     1      34.727 -23.360 -15.455  0.00  0.00    +0.200 C 
ATOM     10  C   UNL     1      36.043 -24.522 -11.497  0.00  0.00    +0.164 C 
ATOM     11  H   UNL     1      34.057 -25.127 -11.130  0.00  0.00    +0.126 HD
ATOM     12  H   UNL     1      37.617 -23.743 -12.594  0.00  0.00    +0.150 HD
ATOM     13  H   UNL     1      34.034 -22.819 -17.349  0.00  0.00    +0.156 HD
ATOM     14  H   UNL     1      35.695 -22.520 -17.102  0.00  0.00    +0.156 HD
ENDROOT
BRANCH   6  15
ATOM     15  O   UNL     1      32.118 -24.725 -13.437  0.00  0.00    -0.451 OA
BRANCH  15  16
ATOM     16  C   UNL     1      31.212 -25.113 -14.454  0.00  0.00    +0.227 C 
BRANCH  16  19
ATOM     17  O   UNL     1      27.935 -24.336 -17.240  0.00  0.00    -0.275 OA
ATOM     18  N   UNL     1      28.886 -24.798 -15.150  0.00  0.00    -0.302 N 
ATOM     19  C   UNL     1      29.947 -24.273 -14.326  0.00  0.00    +0.116 C 
ATOM     20  C   UNL     1      30.122 -22.859 -14.867  0.00  0.00    +0.033 C 
ATOM     21  C   UNL     1      29.731 -22.971 -16.338  0.00  0.00    +0.087 C 
ATOM     22  C   UNL     1      28.719 -24.092 -16.337  0.00  0.00    +0.223 C 
ATOM     23  H   UNL     1      28.337 -25.575 -14.899  0.00  0.00    +0.149 HD
ENDBRANCH  16  19
ENDBRANCH  15  16
ENDBRANCH   6  15
TORSDOF 3
ENDMDL
MODEL 6
REMARK VINA RESULT:      -8.2      6.656      8.619
REMARK  Name = 445966
REMARK  3 active torsions:
REMARK  status: ('A' for Active; 'I' for Inactive)
REMARK    1  A    between atoms: C_6  and  O_15
REMARK    2  A    between atoms: O_15  and  C_16
REMARK    3  A    between atoms: C_16  and  C_19
REMARK                            x       y       z     vdW  Elec       q    Type
REMARK                         _______ _______ _______ _____ _____    ______ ____
ROOT
ATOM      1  N   UNL     1      34.914 -16.084 -20.268  0.00  0.00    -0.266 NA
ATOM      2  N   UNL     1      35.069 -18.575 -22.969  0.00  0.00    -0.293 NA
ATOM      3  N   UNL     1      34.449 -16.335 -23.713  0.00  0.00    -0.316 NA
ATOM      4  N   UNL     1      34.349 -14.697 -21.919  0.00  0.00    -0.296 N 
ATOM      5  N   UNL     1      34.625 -18.114 -25.223  0.00  0.00    -0.283 N 
ATOM      6  C   UNL     1      35.171 -18.168 -21.685  0.00  0.00    +0.288 C 
ATOM      7  C   UNL     1      34.914 -16.841 -21.405  0.00  0.00    +0.215 C 
ATOM      8  C   UNL     1      34.560 -15.958 -22.415  0.00  0.00    +0.196 C 
ATOM      9  C   UNL     1      34.719 -17.646 -23.892  0.00  0.00    +0.200 C 
ATOM     10  C   UNL     1      34.569 -14.808 -20.626  0.00  0.00    +0.164 C 
ATOM     11  H   UNL     1      35.122 -16.399 -19.358  0.00  0.00    +0.126 HD
ATOM     12  H   UNL     1      34.090 -13.889 -22.418  0.00  0.00    +0.150 HD
ATOM     13  H   UNL     1      34.808 -19.060 -25.426  0.00  0.00    +0.156 HD
ATOM     14  H   UNL     1      34.375 -17.494 -25.945  0.00  0.00    +0.156 HD
ENDROOT
BRANCH   6  15
ATOM     15  O   UNL     1      35.523 -19.084 -20.725  0.00  0.00    -0.451 OA
BRANCH  15  16
ATOM     16  C   UNL     1      34.566 -20.078 -20.404  0.00  0.00    +0.227 C 
BRANCH  16  19
ATOM     17  O   UNL     1      34.991 -22.919 -17.110  0.00  0.00    -0.275 OA
ATOM     18  N   UNL     1      34.639 -22.279 -19.336  0.00  0.00    -0.302 N 
ATOM     19  C   UNL     1      35.273 -21.423 -20.309  0.00  0.00    +0.116 C 
ATOM     20  C   UNL     1      36.695 -21.305 -19.773  0.00  0.00    +0.033 C 
ATOM     21  C   UNL     1      36.537 -21.438 -18.261  0.00  0.00    +0.087 C 
ATOM     22  C   UNL     1      35.319 -22.320 -18.123  0.00  0.00    +0.223 C 
ATOM     23  H   UNL     1      33.811 -22.781 -19.511  0.00  0.00    +0.149 HD
ENDBRANCH  16  19
ENDBRANCH  15  16
ENDBRANCH   6  15
TORSDOF 3
ENDMDL
MODEL 7
REMARK VINA RESULT:      -8.1     11.728     14.438
REMARK  Name = 445966
REMARK  3 active torsions:
REMARK  status: ('A' for Active; 'I' for Inactive)
REMARK    1  A    between atoms: C_6  and  O_15
REMARK    2  A    between atoms: O_15  and  C_16
REMARK    3  A    between atoms: C_16  and  C_19
REMARK                            x       y       z     vdW  Elec       q    Type
REMARK                         _______ _______ _______ _____ _____    ______ ____
ROOT
ATOM      1  N   UNL     1      33.873 -14.972 -20.893  0.00  0.00    -0.266 NA
ATOM      2  N   UNL     1      32.686 -13.944 -24.219  0.00  0.00    -0.293 NA
ATOM      3  N   UNL     1      34.239 -15.825 -24.252  0.00  0.00    -0.316 NA
ATOM      4  N   UNL     1      35.018 -16.496 -22.049  0.00  0.00    -0.296 N 
ATOM      5  N   UNL     1      33.326 -14.965 -26.227  0.00  0.00    -0.283 N 
ATOM      6  C   UNL     1      32.750 -13.858 -22.872  0.00  0.00    +0.288 C 
ATOM      7  C   UNL     1      33.560 -14.755 -22.206  0.00  0.00    +0.215 C 
ATOM      8  C   UNL     1      34.283 -15.713 -22.902  0.00  0.00    +0.196 C 
ATOM      9  C   UNL     1      33.424 -14.910 -24.818  0.00  0.00    +0.200 C 
ATOM     10  C   UNL     1      34.749 -16.023 -20.850  0.00  0.00    +0.164 C 
ATOM     11  H   UNL     1      33.532 -14.464 -20.121  0.00  0.00    +0.126 HD
ATOM     12  H   UNL     1      35.614 -17.244 -22.281  0.00  0.00    +0.150 HD
ATOM     13  H   UNL     1      32.749 -14.327 -26.707  0.00  0.00    +0.156 HD
ATOM     14  H   UNL     1      33.835 -15.642 -26.729  0.00  0.00    +0.156 HD
ENDROOT
BRANCH   6  15
ATOM     15  O   UNL     1      32.015 -12.890 -22.234  0.00  0.00    -0.451 OA
BRANCH  15  16
ATOM     16  C   UNL     1      32.313 -11.542 -22.554  0.00  0.00    +0.227 C 
BRANCH  16  19
ATOM     17  O   UNL     1      32.542  -8.285 -19.648  0.00  0.00    -0.275 OA
ATOM     18  N   UNL     1      31.778  -9.359 -21.585  0.00  0.00    -0.302 N 
ATOM     19  C   UNL     1      31.241 -10.649 -21.943  0.00  0.00    +0.116 C 
ATOM     20  C   UNL     1      30.722 -11.177 -20.611  0.00  0.00    +0.033 C 
ATOM     21  C   UNL     1      31.643 -10.542 -19.573  0.00  0.00    +0.087 C 
ATOM     22  C   UNL     1      32.044  -9.240 -20.225  0.00  0.00    +0.223 C 
ATOM     23  H   UNL     1      31.941  -8.638 -22.234  0.00  0.00    +0.149 HD
ENDBRANCH  16  19
ENDBRANCH  15  16
ENDBRANCH   6  15
TORSDOF 3
ENDMDL
MODEL 8
REMARK VINA RESULT:      -8.1      8.294     10.781
REMARK  Name = 445966
REMARK  3 active torsions:
REMARK  status: ('A' for Active; 'I' for Inactive)
REMARK    1  A    between atoms: C_6  and  O_15
REMARK    2  A    between atoms: O_15  and  C_16
REMARK    3  A    between atoms: C_16  and  C_19
REMARK                            x       y       z     vdW  Elec       q    Type
REMARK                         _______ _______ _______ _____ _____    ______ ____
ROOT
ATOM      1  N   UNL     1      33.940 -16.531 -25.611  0.00  0.00    -0.266 NA
ATOM      2  N   UNL     1      34.977 -16.387 -22.086  0.00  0.00    -0.293 NA
ATOM      3  N   UNL     1      33.826 -14.383 -22.869  0.00  0.00    -0.316 NA
ATOM      4  N   UNL     1      33.145 -14.488 -25.200  0.00  0.00    -0.296 N 
ATOM      5  N   UNL     1      34.596 -14.563 -20.666  0.00  0.00    -0.283 N 
ATOM      6  C   UNL     1      34.866 -16.977 -23.296  0.00  0.00    +0.288 C 
ATOM      7  C   UNL     1      34.233 -16.274 -24.301  0.00  0.00    +0.215 C 
ATOM      8  C   UNL     1      33.730 -15.001 -24.071  0.00  0.00    +0.196 C 
ATOM      9  C   UNL     1      34.458 -15.143 -21.948  0.00  0.00    +0.200 C 
ATOM     10  C   UNL     1      33.289 -15.432 -26.107  0.00  0.00    +0.164 C 
ATOM     11  H   UNL     1      34.157 -17.353 -26.107  0.00  0.00    +0.126 HD
ATOM     12  H   UNL     1      32.714 -13.610 -25.309  0.00  0.00    +0.150 HD
ATOM     13  H   UNL     1      35.047 -15.061 -19.946  0.00  0.00    +0.156 HD
ATOM     14  H   UNL     1      34.242 -13.661 -20.495  0.00  0.00    +0.156 HD
ENDROOT
BRANCH   6  15
ATOM     15  O   UNL     1      35.382 -18.237 -23.469  0.00  0.00    -0.451 OA
BRANCH  15  16
ATOM     16  C   UNL     1      34.693 -19.305 -22.843  0.00  0.00    +0.227 C 
BRANCH  16  19
ATOM     17  O   UNL     1      36.555 -21.172 -19.358  0.00  0.00    -0.275 OA
ATOM     18  N   UNL     1      35.793 -19.379 -20.658  0.00  0.00    -0.302 N 
ATOM     19  C   UNL     1      34.585 -19.008 -21.353  0.00  0.00    +0.116 C 
ATOM     20  C   UNL     1      33.526 -19.856 -20.659  0.00  0.00    +0.033 C 
ATOM     21  C   UNL     1      34.281 -21.105 -20.213  0.00  0.00    +0.087 C 
ATOM     22  C   UNL     1      35.683 -20.592 -19.987  0.00  0.00    +0.223 C 
ATOM     23  H   UNL     1      36.611 -18.831 -20.658  0.00  0.00    +0.149 HD
ENDBRANCH  16  19
ENDBRANCH  15  16
ENDBRANCH   6  15
TORSDOF 3
ENDMDL
MODEL 9
REMARK VINA RESULT:      -8.0      2.590      6.371
REMARK  Name = 445966
REMARK  3 active torsions:
REMARK  status: ('A' for Active; 'I' for Inactive)
REMARK    1  A    between atoms: C_6  and  O_15
REMARK    2  A    between atoms: O_15  and  C_16
REMARK    3  A    between atoms: C_16  and  C_19
REMARK                            x       y       z     vdW  Elec       q    Type
REMARK                         _______ _______ _______ _____ _____    ______ ____
ROOT
ATOM      1  N   UNL     1      35.882 -26.201 -15.301  0.00  0.00    -0.266 NA
ATOM      2  N   UNL     1      35.665 -23.613 -12.697  0.00  0.00    -0.293 NA
ATOM      3  N   UNL     1      37.720 -24.925 -12.628  0.00  0.00    -0.316 NA
ATOM      4  N   UNL     1      37.854 -26.634 -14.353  0.00  0.00    -0.296 N 
ATOM      5  N   UNL     1      37.319 -23.211 -11.088  0.00  0.00    -0.283 N 
ATOM      6  C   UNL     1      35.206 -24.305 -13.762  0.00  0.00    +0.288 C 
ATOM      7  C   UNL     1      36.001 -25.313 -14.269  0.00  0.00    +0.215 C 
ATOM      8  C   UNL     1      37.232 -25.602 -13.697  0.00  0.00    +0.196 C 
ATOM      9  C   UNL     1      36.877 -23.961 -12.202  0.00  0.00    +0.200 C 
ATOM     10  C   UNL     1      37.015 -26.971 -15.310  0.00  0.00    +0.164 C 
ATOM     11  H   UNL     1      35.121 -26.275 -15.922  0.00  0.00    +0.126 HD
ATOM     12  H   UNL     1      38.730 -27.034 -14.153  0.00  0.00    +0.150 HD
ATOM     13  H   UNL     1      36.754 -22.491 -10.723  0.00  0.00    +0.156 HD
ATOM     14  H   UNL     1      38.190 -23.409 -10.676  0.00  0.00    +0.156 HD
ENDROOT
BRANCH   6  15
ATOM     15  O   UNL     1      33.980 -23.979 -14.288  0.00  0.00    -0.451 OA
BRANCH  15  16
ATOM     16  C   UNL     1      32.872 -24.750 -13.861  0.00  0.00    +0.227 C 
BRANCH  16  19
ATOM     17  O   UNL     1      28.635 -25.122 -14.866  0.00  0.00    -0.275 OA
ATOM     18  N   UNL     1      30.458 -24.560 -13.507  0.00  0.00    -0.302 N 
ATOM     19  C   UNL     1      31.689 -23.819 -13.632  0.00  0.00    +0.116 C 
ATOM     20  C   UNL     1      31.413 -22.913 -14.826  0.00  0.00    +0.033 C 
ATOM     21  C   UNL     1      30.438 -23.713 -15.685  0.00  0.00    +0.087 C 
ATOM     22  C   UNL     1      29.693 -24.546 -14.669  0.00  0.00    +0.223 C 
ATOM     23  H   UNL     1      30.186 -25.028 -12.684  0.00  0.00    +0.149 HD
ENDBRANCH  16  19
ENDBRANCH  15  16
ENDBRANCH   6  15
TORSDOF 3
ENDMDL
