MODEL 1
REMARK VINA RESULT:      -8.5      0.000      0.000
REMARK  Name = 60511
REMARK  6 active torsions:
REMARK  status: ('A' for Active; 'I' for Inactive)
REMARK    1  A    between atoms: C_1  and  C_3
REMARK    2  A    between atoms: C_1  and  N_10
REMARK    3  A    between atoms: C_1  and  C_18
REMARK    4  A    between atoms: C_11  and  C_13
REMARK    5  A    between atoms: C_13  and  N_14
REMARK    6  A    between atoms: C_18  and  C_19
REMARK                            x       y       z     vdW  Elec       q    Type
REMARK                         _______ _______ _______ _____ _____    ______ ____
ROOT
ATOM      1  C   UNL     1      32.239  -8.911 -22.988  0.00  0.00    +0.080 C 
ATOM      2  C   UNL     1      30.915  -8.473 -23.655  0.00  0.00    +0.025 C 
ENDROOT
BRANCH   1   3
ATOM      3  C   UNL     1      31.967  -9.595 -21.639  0.00  0.00    -0.006 C 
ATOM      4  C   UNL     1      31.454 -10.868 -21.646  0.00  0.00    -0.003 C 
ATOM      5  C   UNL     1      32.248  -8.901 -20.489  0.00  0.00    -0.003 C 
ATOM      6  C   UNL     1      31.208 -11.489 -20.421  0.00  0.00    -0.000 C 
ATOM      7  C   UNL     1      32.000  -9.522 -19.263  0.00  0.00    -0.000 C 
ATOM      8  C   UNL     1      31.480 -10.816 -19.230  0.00  0.00    -0.000 C 
ENDBRANCH   1   3
BRANCH   1  10
ATOM      9  O   UNL     1      35.058  -9.066 -23.636  0.00  0.00    -0.277 OA
ATOM     10  N   UNL     1      32.874  -9.804 -23.930  0.00  0.00    -0.305 N 
ATOM     11  C   UNL     1      34.240  -9.806 -24.176  0.00  0.00    +0.200 C 
ATOM     12  H   UNL     1      32.309 -10.444 -24.422  0.00  0.00    +0.150 HD
BRANCH  11  13
ATOM     13  C   UNL     1      34.615 -10.854 -25.200  0.00  0.00    +0.001 C 
BRANCH  13  14
ATOM     14  N   UNL     1      35.644 -10.341 -26.070  0.00  0.00    +0.386 N 
ATOM     15  H   UNL     1      35.224  -9.723 -26.764  0.00  0.00    -0.089 HD
ATOM     16  H   UNL     1      36.107 -11.118 -26.542  0.00  0.00    -0.089 HD
ATOM     17  H   UNL     1      36.326  -9.822 -25.519  0.00  0.00    -0.089 HD
ENDBRANCH  13  14
ENDBRANCH  11  13
ENDBRANCH   1  10
BRANCH   1  18
ATOM     18  C   UNL     1      33.129  -7.645 -22.796  0.00  0.00    +0.049 C 
BRANCH  18  19
ATOM     19  C   UNL     1      32.599  -6.370 -23.417  0.00  0.00    -0.020 C 
ATOM     20  C   UNL     1      32.924  -6.073 -24.729  0.00  0.00    -0.004 C 
ATOM     21  C   UNL     1      31.804  -5.529 -22.659  0.00  0.00    -0.004 C 
ATOM     22  C   UNL     1      32.437  -4.898 -25.302  0.00  0.00    -0.000 C 
ATOM     23  C   UNL     1      31.316  -4.354 -23.231  0.00  0.00    -0.000 C 
ATOM     24  C   UNL     1      31.632  -4.039 -24.554  0.00  0.00    -0.000 C 
ENDBRANCH  18  19
ENDBRANCH   1  18
TORSDOF 6
ENDMDL
MODEL 2
REMARK VINA RESULT:      -8.5      2.122      4.311
REMARK  Name = 60511
REMARK  6 active torsions:
REMARK  status: ('A' for Active; 'I' for Inactive)
REMARK    1  A    between atoms: C_1  and  C_3
REMARK    2  A    between atoms: C_1  and  N_10
REMARK    3  A    between atoms: C_1  and  C_18
REMARK    4  A    between atoms: C_11  and  C_13
REMARK    5  A    between atoms: C_13  and  N_14
REMARK    6  A    between atoms: C_18  and  C_19
REMARK                            x       y       z     vdW  Elec       q    Type
REMARK                         _______ _______ _______ _____ _____    ______ ____
ROOT
ATOM      1  C   UNL     1      32.609  -8.802 -22.344  0.00  0.00    +0.080 C 
ATOM      2  C   UNL     1      33.415  -7.647 -21.705  0.00  0.00    +0.025 C 
ENDROOT
BRANCH   1   3
ATOM      3  C   UNL     1      33.442  -9.513 -23.422  0.00  0.00    -0.006 C 
ATOM      4  C   UNL     1      34.498  -8.837 -23.982  0.00  0.00    -0.003 C 
ATOM      5  C   UNL     1      33.093 -10.792 -23.776  0.00  0.00    -0.003 C 
ATOM      6  C   UNL     1      35.254  -9.484 -24.960  0.00  0.00    -0.000 C 
ATOM      7  C   UNL     1      33.849 -11.439 -24.755  0.00  0.00    -0.000 C 
ATOM      8  C   UNL     1      34.929 -10.784 -25.346  0.00  0.00    -0.000 C 
ENDBRANCH   1   3
BRANCH   1  10
ATOM      9  O   UNL     1      31.999  -8.064 -19.610  0.00  0.00    -0.277 OA
ATOM     10  N   UNL     1      32.265  -9.686 -21.254  0.00  0.00    -0.305 N 
ATOM     11  C   UNL     1      31.987  -9.239 -19.970  0.00  0.00    +0.200 C 
ATOM     12  H   UNL     1      32.225 -10.654 -21.431  0.00  0.00    +0.150 HD
BRANCH  11  13
ATOM     13  C   UNL     1      31.649 -10.387 -19.046  0.00  0.00    +0.001 C 
BRANCH  13  14
ATOM     14  N   UNL     1      31.623 -11.622 -19.789  0.00  0.00    +0.386 N 
ATOM     15  H   UNL     1      30.677 -12.002 -19.782  0.00  0.00    -0.089 HD
ATOM     16  H   UNL     1      32.262 -12.290 -19.359  0.00  0.00    -0.089 HD
ATOM     17  H   UNL     1      31.912 -11.445 -20.751  0.00  0.00    -0.089 HD
ENDBRANCH  13  14
ENDBRANCH  11  13
ENDBRANCH   1  10
BRANCH   1  18
ATOM     18  C   UNL     1      31.306  -8.205 -22.958  0.00  0.00    +0.049 C 
BRANCH  18  19
ATOM     19  C   UNL     1      31.356  -6.731 -23.299  0.00  0.00    -0.020 C 
ATOM     20  C   UNL     1      30.905  -5.808 -22.372  0.00  0.00    -0.004 C 
ATOM     21  C   UNL     1      31.852  -6.339 -24.530  0.00  0.00    -0.004 C 
ATOM     22  C   UNL     1      30.950  -4.449 -22.685  0.00  0.00    -0.000 C 
ATOM     23  C   UNL     1      31.897  -4.980 -24.844  0.00  0.00    -0.000 C 
ATOM     24  C   UNL     1      31.447  -4.036 -23.921  0.00  0.00    -0.000 C 
ENDBRANCH  18  19
ENDBRANCH   1  18
TORSDOF 6
ENDMDL
MODEL 3
REMARK VINA RESULT:      -8.1      1.195      5.411
REMARK  Name = 60511
REMARK  6 active torsions:
REMARK  status: ('A' for Active; 'I' for Inactive)
REMARK    1  A    between atoms: C_1  and  C_3
REMARK    2  A    between atoms: C_1  and  N_10
REMARK    3  A    between atoms: C_1  and  C_18
REMARK    4  A    between atoms: C_11  and  C_13
REMARK    5  A    between atoms: C_13  and  N_14
REMARK    6  A    between atoms: C_18  and  C_19
REMARK                            x       y       z     vdW  Elec       q    Type
REMARK                         _______ _______ _______ _____ _____    ______ ____
ROOT
ATOM      1  C   UNL     1      32.952  -7.920 -23.176  0.00  0.00    +0.080 C 
ATOM      2  C   UNL     1      34.285  -7.786 -22.405  0.00  0.00    +0.025 C 
ENDROOT
BRANCH   1   3
ATOM      3  C   UNL     1      32.770  -6.747 -24.153  0.00  0.00    -0.006 C 
ATOM      4  C   UNL     1      31.576  -6.069 -24.141  0.00  0.00    -0.003 C 
ATOM      5  C   UNL     1      33.808  -6.431 -24.992  0.00  0.00    -0.003 C 
ATOM      6  C   UNL     1      31.411  -5.004 -25.028  0.00  0.00    -0.000 C 
ATOM      7  C   UNL     1      33.642  -5.367 -25.880  0.00  0.00    -0.000 C 
ATOM      8  C   UNL     1      32.444  -4.654 -25.897  0.00  0.00    -0.000 C 
ENDBRANCH   1   3
BRANCH   1  10
ATOM      9  O   UNL     1      35.341  -9.366 -23.944  0.00  0.00    -0.277 OA
ATOM     10  N   UNL     1      33.025  -9.189 -23.862  0.00  0.00    -0.305 N 
ATOM     11  C   UNL     1      34.222  -9.810 -24.191  0.00  0.00    +0.200 C 
ATOM     12  H   UNL     1      32.183  -9.637 -24.109  0.00  0.00    +0.150 HD
BRANCH  11  13
ATOM     13  C   UNL     1      33.987 -11.129 -24.892  0.00  0.00    +0.001 C 
BRANCH  13  14
ATOM     14  N   UNL     1      34.122 -12.213 -23.953  0.00  0.00    +0.386 N 
ATOM     15  H   UNL     1      34.433 -11.847 -23.054  0.00  0.00    -0.089 HD
ATOM     16  H   UNL     1      34.807 -12.882 -24.304  0.00  0.00    -0.089 HD
ATOM     17  H   UNL     1      33.221 -12.677 -23.839  0.00  0.00    -0.089 HD
ENDBRANCH  13  14
ENDBRANCH  11  13
ENDBRANCH   1  10
BRANCH   1  18
ATOM     18  C   UNL     1      31.790  -7.959 -22.137  0.00  0.00    +0.049 C 
BRANCH  18  19
ATOM     19  C   UNL     1      31.718  -9.205 -21.280  0.00  0.00    -0.020 C 
ATOM     20  C   UNL     1      32.049  -9.121 -19.939  0.00  0.00    -0.004 C 
ATOM     21  C   UNL     1      31.322 -10.398 -21.857  0.00  0.00    -0.004 C 
ATOM     22  C   UNL     1      31.983 -10.269 -19.148  0.00  0.00    -0.000 C 
ATOM     23  C   UNL     1      31.256 -11.547 -21.066  0.00  0.00    -0.000 C 
ATOM     24  C   UNL     1      31.585 -11.481 -19.712  0.00  0.00    -0.000 C 
ENDBRANCH  18  19
ENDBRANCH   1  18
TORSDOF 6
ENDMDL
MODEL 4
REMARK VINA RESULT:      -8.1     16.544     18.552
REMARK  Name = 60511
REMARK  6 active torsions:
REMARK  status: ('A' for Active; 'I' for Inactive)
REMARK    1  A    between atoms: C_1  and  C_3
REMARK    2  A    between atoms: C_1  and  N_10
REMARK    3  A    between atoms: C_1  and  C_18
REMARK    4  A    between atoms: C_11  and  C_13
REMARK    5  A    between atoms: C_13  and  N_14
REMARK    6  A    between atoms: C_18  and  C_19
REMARK                            x       y       z     vdW  Elec       q    Type
REMARK                         _______ _______ _______ _____ _____    ______ ____
ROOT
ATOM      1  C   UNL     1      36.646 -24.352 -14.786  0.00  0.00    +0.080 C 
ATOM      2  C   UNL     1      35.847 -25.596 -15.237  0.00  0.00    +0.025 C 
ENDROOT
BRANCH   1   3
ATOM      3  C   UNL     1      36.459 -24.103 -13.281  0.00  0.00    -0.006 C 
ATOM      4  C   UNL     1      35.564 -24.887 -12.597  0.00  0.00    -0.003 C 
ATOM      5  C   UNL     1      37.195 -23.107 -12.689  0.00  0.00    -0.003 C 
ATOM      6  C   UNL     1      35.394 -24.661 -11.231  0.00  0.00    -0.000 C 
ATOM      7  C   UNL     1      37.024 -22.881 -11.322  0.00  0.00    -0.000 C 
ATOM      8  C   UNL     1      36.124 -23.658 -10.594  0.00  0.00    -0.000 C 
ENDBRANCH   1   3
BRANCH   1  10
ATOM      9  O   UNL     1      38.303 -26.497 -13.763  0.00  0.00    -0.277 OA
ATOM     10  N   UNL     1      38.024 -24.631 -15.121  0.00  0.00    -0.305 N 
ATOM     11  C   UNL     1      38.741 -25.688 -14.577  0.00  0.00    +0.200 C 
ATOM     12  H   UNL     1      38.477 -24.042 -15.768  0.00  0.00    +0.150 HD
BRANCH  11  13
ATOM     13  C   UNL     1      40.151 -25.737 -15.121  0.00  0.00    +0.001 C 
BRANCH  13  14
ATOM     14  N   UNL     1      40.941 -26.665 -14.351  0.00  0.00    +0.386 N 
ATOM     15  H   UNL     1      41.094 -27.513 -14.896  0.00  0.00    -0.089 HD
ATOM     16  H   UNL     1      40.446 -26.898 -13.490  0.00  0.00    -0.089 HD
ATOM     17  H   UNL     1      41.838 -26.239 -14.123  0.00  0.00    -0.089 HD
ENDBRANCH  13  14
ENDBRANCH  11  13
ENDBRANCH   1  10
BRANCH   1  18
ATOM     18  C   UNL     1      36.150 -23.128 -15.614  0.00  0.00    +0.049 C 
BRANCH  18  19
ATOM     19  C   UNL     1      34.677 -23.125 -15.963  0.00  0.00    -0.020 C 
ATOM     20  C   UNL     1      34.299 -23.062 -17.292  0.00  0.00    -0.004 C 
ATOM     21  C   UNL     1      33.742 -23.185 -14.945  0.00  0.00    -0.004 C 
ATOM     22  C   UNL     1      32.941 -23.059 -17.615  0.00  0.00    -0.000 C 
ATOM     23  C   UNL     1      32.384 -23.181 -15.267  0.00  0.00    -0.000 C 
ATOM     24  C   UNL     1      31.984 -23.120 -16.602  0.00  0.00    -0.000 C 
ENDBRANCH  18  19
ENDBRANCH   1  18
TORSDOF 6
ENDMDL
MODEL 5
REMARK VINA RESULT:      -8.0      8.000     10.155
REMARK  Name = 60511
REMARK  6 active torsions:
REMARK  status: ('A' for Active; 'I' for Inactive)
REMARK    1  A    between atoms: C_1  and  C_3
REMARK    2  A    between atoms: C_1  and  N_10
REMARK    3  A    between atoms: C_1  and  C_18
REMARK    4  A    between atoms: C_11  and  C_13
REMARK    5  A    between atoms: C_13  and  N_14
REMARK    6  A    between atoms: C_18  and  C_19
REMARK                            x       y       z     vdW  Elec       q    Type
REMARK                         _______ _______ _______ _____ _____    ______ ____
ROOT
ATOM      1  C   UNL     1      34.044 -18.615 -21.274  0.00  0.00    +0.080 C 
ATOM      2  C   UNL     1      32.590 -18.326 -20.835  0.00  0.00    +0.025 C 
ENDROOT
BRANCH   1   3
ATOM      3  C   UNL     1      34.606 -19.831 -20.521  0.00  0.00    -0.006 C 
ATOM      4  C   UNL     1      33.724 -20.765 -20.040  0.00  0.00    -0.003 C 
ATOM      5  C   UNL     1      35.966 -19.928 -20.364  0.00  0.00    -0.003 C 
ATOM      6  C   UNL     1      34.235 -21.869 -19.357  0.00  0.00    -0.000 C 
ATOM      7  C   UNL     1      36.478 -21.032 -19.680  0.00  0.00    -0.000 C 
ATOM      8  C   UNL     1      35.611 -22.002 -19.177  0.00  0.00    -0.000 C 
ENDBRANCH   1   3
BRANCH   1  10
ATOM      9  O   UNL     1      36.238 -18.531 -23.163  0.00  0.00    -0.277 OA
ATOM     10  N   UNL     1      33.982 -18.842 -22.700  0.00  0.00    -0.305 N 
ATOM     11  C   UNL     1      35.093 -18.780 -23.530  0.00  0.00    +0.200 C 
ATOM     12  H   UNL     1      33.108 -19.051 -23.103  0.00  0.00    +0.150 HD
BRANCH  11  13
ATOM     13  C   UNL     1      34.726 -19.072 -24.968  0.00  0.00    +0.001 C 
BRANCH  13  14
ATOM     14  N   UNL     1      33.970 -17.973 -25.512  0.00  0.00    +0.386 N 
ATOM     15  H   UNL     1      34.306 -17.098 -25.111  0.00  0.00    -0.089 HD
ATOM     16  H   UNL     1      32.983 -18.094 -25.285  0.00  0.00    -0.089 HD
ATOM     17  H   UNL     1      34.085 -17.949 -26.525  0.00  0.00    -0.089 HD
ENDBRANCH  13  14
ENDBRANCH  11  13
ENDBRANCH   1  10
BRANCH   1  18
ATOM     18  C   UNL     1      34.901 -17.344 -20.989  0.00  0.00    +0.049 C 
BRANCH  18  19
ATOM     19  C   UNL     1      34.266 -16.025 -21.372  0.00  0.00    -0.020 C 
ATOM     20  C   UNL     1      34.538 -15.481 -22.615  0.00  0.00    -0.004 C 
ATOM     21  C   UNL     1      33.428 -15.392 -20.472  0.00  0.00    -0.004 C 
ATOM     22  C   UNL     1      33.954 -14.264 -22.969  0.00  0.00    -0.000 C 
ATOM     23  C   UNL     1      32.843 -14.175 -20.825  0.00  0.00    -0.000 C 
ATOM     24  C   UNL     1      33.105 -13.612 -22.074  0.00  0.00    -0.000 C 
ENDBRANCH  18  19
ENDBRANCH   1  18
TORSDOF 6
ENDMDL
MODEL 6
REMARK VINA RESULT:      -7.8     15.152     18.248
REMARK  Name = 60511
REMARK  6 active torsions:
REMARK  status: ('A' for Active; 'I' for Inactive)
REMARK    1  A    between atoms: C_1  and  C_3
REMARK    2  A    between atoms: C_1  and  N_10
REMARK    3  A    between atoms: C_1  and  C_18
REMARK    4  A    between atoms: C_11  and  C_13
REMARK    5  A    between atoms: C_13  and  N_14
REMARK    6  A    between atoms: C_18  and  C_19
REMARK                            x       y       z     vdW  Elec       q    Type
REMARK                         _______ _______ _______ _____ _____    ______ ____
ROOT
ATOM      1  C   UNL     1      34.852 -23.379 -15.407  0.00  0.00    +0.080 C 
ATOM      2  C   UNL     1      34.956 -24.921 -15.438  0.00  0.00    +0.025 C 
ENDROOT
BRANCH   1   3
ATOM      3  C   UNL     1      35.055 -22.793 -16.813  0.00  0.00    -0.006 C 
ATOM      4  C   UNL     1      36.249 -22.177 -17.097  0.00  0.00    -0.003 C 
ATOM      5  C   UNL     1      34.033 -22.912 -17.722  0.00  0.00    -0.003 C 
ATOM      6  C   UNL     1      36.432 -21.646 -18.373  0.00  0.00    -0.000 C 
ATOM      7  C   UNL     1      34.217 -22.379 -18.999  0.00  0.00    -0.000 C 
ATOM      8  C   UNL     1      35.417 -21.746 -19.324  0.00  0.00    -0.000 C 
ENDBRANCH   1   3
BRANCH   1  10
ATOM      9  O   UNL     1      33.598 -24.537 -13.067  0.00  0.00    -0.277 OA
ATOM     10  N   UNL     1      33.537 -23.088 -14.884  0.00  0.00    -0.305 N 
ATOM     11  C   UNL     1      33.017 -23.696 -13.749  0.00  0.00    +0.200 C 
ATOM     12  H   UNL     1      32.982 -22.425 -15.355  0.00  0.00    +0.150 HD
BRANCH  11  13
ATOM     13  C   UNL     1      31.628 -23.187 -13.436  0.00  0.00    +0.001 C 
BRANCH  13  14
ATOM     14  N   UNL     1      30.989 -22.735 -14.646  0.00  0.00    +0.386 N 
ATOM     15  H   UNL     1      31.062 -21.720 -14.710  0.00  0.00    -0.089 HD
ATOM     16  H   UNL     1      30.005 -23.004 -14.631  0.00  0.00    -0.089 HD
ATOM     17  H   UNL     1      31.445 -23.161 -15.451  0.00  0.00    -0.089 HD
ENDBRANCH  13  14
ENDBRANCH  11  13
ENDBRANCH   1  10
BRANCH   1  18
ATOM     18  C   UNL     1      35.932 -22.838 -14.422  0.00  0.00    +0.049 C 
BRANCH  18  19
ATOM     19  C   UNL     1      37.004 -23.827 -14.014  0.00  0.00    -0.020 C 
ATOM     20  C   UNL     1      36.984 -24.353 -12.735  0.00  0.00    -0.004 C 
ATOM     21  C   UNL     1      37.978 -24.182 -14.930  0.00  0.00    -0.004 C 
ATOM     22  C   UNL     1      37.971 -25.264 -12.357  0.00  0.00    -0.000 C 
ATOM     23  C   UNL     1      38.966 -25.093 -14.553  0.00  0.00    -0.000 C 
ATOM     24  C   UNL     1      38.962 -25.635 -13.267  0.00  0.00    -0.000 C 
ENDBRANCH  18  19
ENDBRANCH   1  18
TORSDOF 6
ENDMDL
MODEL 7
REMARK VINA RESULT:      -7.6      4.327      7.054
REMARK  Name = 60511
REMARK  6 active torsions:
REMARK  status: ('A' for Active; 'I' for Inactive)
REMARK    1  A    between atoms: C_1  and  C_3
REMARK    2  A    between atoms: C_1  and  N_10
REMARK    3  A    between atoms: C_1  and  C_18
REMARK    4  A    between atoms: C_11  and  C_13
REMARK    5  A    between atoms: C_13  and  N_14
REMARK    6  A    between atoms: C_18  and  C_19
REMARK                            x       y       z     vdW  Elec       q    Type
REMARK                         _______ _______ _______ _____ _____    ______ ____
ROOT
ATOM      1  C   UNL     1      33.505 -14.254 -22.850  0.00  0.00    +0.080 C 
ATOM      2  C   UNL     1      34.568 -13.463 -22.053  0.00  0.00    +0.025 C 
ENDROOT
BRANCH   1   3
ATOM      3  C   UNL     1      33.462 -13.784 -24.312  0.00  0.00    -0.006 C 
ATOM      4  C   UNL     1      33.829 -12.491 -24.592  0.00  0.00    -0.003 C 
ATOM      5  C   UNL     1      33.057 -14.677 -25.272  0.00  0.00    -0.003 C 
ATOM      6  C   UNL     1      33.790 -12.065 -25.920  0.00  0.00    -0.000 C 
ATOM      7  C   UNL     1      33.017 -14.250 -26.600  0.00  0.00    -0.000 C 
ATOM      8  C   UNL     1      33.384 -12.944 -26.923  0.00  0.00    -0.000 C 
ENDBRANCH   1   3
BRANCH   1  10
ATOM      9  O   UNL     1      34.422 -15.638 -20.476  0.00  0.00    -0.277 OA
ATOM     10  N   UNL     1      33.888 -15.643 -22.738  0.00  0.00    -0.305 N 
ATOM     11  C   UNL     1      34.318 -16.222 -21.552  0.00  0.00    +0.200 C 
ATOM     12  H   UNL     1      33.843 -16.207 -23.545  0.00  0.00    +0.150 HD
BRANCH  11  13
ATOM     13  C   UNL     1      34.639 -17.688 -21.737  0.00  0.00    +0.001 C 
BRANCH  13  14
ATOM     14  N   UNL     1      35.611 -18.103 -20.757  0.00  0.00    +0.386 N 
ATOM     15  H   UNL     1      36.471 -18.382 -21.229  0.00  0.00    -0.089 HD
ATOM     16  H   UNL     1      35.243 -18.892 -20.227  0.00  0.00    -0.089 HD
ATOM     17  H   UNL     1      35.807 -17.329 -20.123  0.00  0.00    -0.089 HD
ENDBRANCH  13  14
ENDBRANCH  11  13
ENDBRANCH   1  10
BRANCH   1  18
ATOM     18  C   UNL     1      32.123 -14.042 -22.160  0.00  0.00    +0.049 C 
BRANCH  18  19
ATOM     19  C   UNL     1      31.909 -12.687 -21.520  0.00  0.00    -0.020 C 
ATOM     20  C   UNL     1      31.959 -12.577 -20.142  0.00  0.00    -0.004 C 
ATOM     21  C   UNL     1      31.669 -11.589 -22.327  0.00  0.00    -0.004 C 
ATOM     22  C   UNL     1      31.761 -11.329 -19.550  0.00  0.00    -0.000 C 
ATOM     23  C   UNL     1      31.471 -10.340 -21.736  0.00  0.00    -0.000 C 
ATOM     24  C   UNL     1      31.519 -10.211 -20.348  0.00  0.00    -0.000 C 
ENDBRANCH  18  19
ENDBRANCH   1  18
TORSDOF 6
ENDMDL
MODEL 8
REMARK VINA RESULT:      -7.5      3.433      5.655
REMARK  Name = 60511
REMARK  6 active torsions:
REMARK  status: ('A' for Active; 'I' for Inactive)
REMARK    1  A    between atoms: C_1  and  C_3
REMARK    2  A    between atoms: C_1  and  N_10
REMARK    3  A    between atoms: C_1  and  C_18
REMARK    4  A    between atoms: C_11  and  C_13
REMARK    5  A    between atoms: C_13  and  N_14
REMARK    6  A    between atoms: C_18  and  C_19
REMARK                            x       y       z     vdW  Elec       q    Type
REMARK                         _______ _______ _______ _____ _____    ______ ____
ROOT
ATOM      1  C   UNL     1      33.238 -13.557 -23.542  0.00  0.00    +0.080 C 
ATOM      2  C   UNL     1      33.061 -14.079 -24.987  0.00  0.00    +0.025 C 
ENDROOT
BRANCH   1   3
ATOM      3  C   UNL     1      33.891 -14.628 -22.654  0.00  0.00    -0.006 C 
ATOM      4  C   UNL     1      33.886 -14.438 -21.294  0.00  0.00    -0.003 C 
ATOM      5  C   UNL     1      34.449 -15.725 -23.260  0.00  0.00    -0.003 C 
ATOM      6  C   UNL     1      34.478 -15.411 -20.489  0.00  0.00    -0.000 C 
ATOM      7  C   UNL     1      35.042 -16.698 -22.454  0.00  0.00    -0.000 C 
ATOM      8  C   UNL     1      35.057 -16.540 -21.068  0.00  0.00    -0.000 C 
ENDBRANCH   1   3
BRANCH   1  10
ATOM      9  O   UNL     1      33.507 -11.818 -25.843  0.00  0.00    -0.277 OA
ATOM     10  N   UNL     1      34.059 -12.373 -23.654  0.00  0.00    -0.305 N 
ATOM     11  C   UNL     1      34.125 -11.598 -24.804  0.00  0.00    +0.200 C 
ATOM     12  H   UNL     1      34.598 -12.102 -22.876  0.00  0.00    +0.150 HD
BRANCH  11  13
ATOM     13  C   UNL     1      35.054 -10.419 -24.624  0.00  0.00    +0.001 C 
BRANCH  13  14
ATOM     14  N   UNL     1      35.743 -10.145 -25.860  0.00  0.00    +0.386 N 
ATOM     15  H   UNL     1      35.279  -9.375 -26.343  0.00  0.00    -0.089 HD
ATOM     16  H   UNL     1      35.725 -10.977 -26.449  0.00  0.00    -0.089 HD
ATOM     17  H   UNL     1      36.709  -9.889 -25.661  0.00  0.00    -0.089 HD
ENDBRANCH  13  14
ENDBRANCH  11  13
ENDBRANCH   1  10
BRANCH   1  18
ATOM     18  C   UNL     1      31.834 -13.163 -22.991  0.00  0.00    +0.049 C 
BRANCH  18  19
ATOM     19  C   UNL     1      31.817 -12.030 -21.987  0.00  0.00    -0.020 C 
ATOM     20  C   UNL     1      31.885 -10.725 -22.441  0.00  0.00    -0.004 C 
ATOM     21  C   UNL     1      31.733 -12.325 -20.638  0.00  0.00    -0.004 C 
ATOM     22  C   UNL     1      31.870  -9.680 -21.517  0.00  0.00    -0.000 C 
ATOM     23  C   UNL     1      31.718 -11.281 -19.712  0.00  0.00    -0.000 C 
ATOM     24  C   UNL     1      31.785  -9.958 -20.153  0.00  0.00    -0.000 C 
ENDBRANCH  18  19
ENDBRANCH   1  18
TORSDOF 6
ENDMDL
MODEL 9
REMARK VINA RESULT:      -7.3     14.712     17.238
REMARK  Name = 60511
REMARK  6 active torsions:
REMARK  status: ('A' for Active; 'I' for Inactive)
REMARK    1  A    between atoms: C_1  and  C_3
REMARK    2  A    between atoms: C_1  and  N_10
REMARK    3  A    between atoms: C_1  and  C_18
REMARK    4  A    between atoms: C_11  and  C_13
REMARK    5  A    between atoms: C_13  and  N_14
REMARK    6  A    between atoms: C_18  and  C_19
REMARK                            x       y       z     vdW  Elec       q    Type
REMARK                         _______ _______ _______ _____ _____    ______ ____
ROOT
ATOM      1  C   UNL     1      35.526 -23.236 -16.020  0.00  0.00    +0.080 C 
ATOM      2  C   UNL     1      35.305 -22.243 -14.855  0.00  0.00    +0.025 C 
ENDROOT
BRANCH   1   3
ATOM      3  C   UNL     1      35.561 -22.494 -17.366  0.00  0.00    -0.006 C 
ATOM      4  C   UNL     1      36.701 -21.809 -17.704  0.00  0.00    -0.003 C 
ATOM      5  C   UNL     1      34.449 -22.549 -18.169  0.00  0.00    -0.003 C 
ATOM      6  C   UNL     1      36.732 -21.137 -18.926  0.00  0.00    -0.000 C 
ATOM      7  C   UNL     1      34.480 -21.875 -19.390  0.00  0.00    -0.000 C 
ATOM      8  C   UNL     1      35.621 -21.169 -19.768  0.00  0.00    -0.000 C 
ENDBRANCH   1   3
BRANCH   1  10
ATOM      9  O   UNL     1      36.096 -25.046 -13.833  0.00  0.00    -0.277 OA
ATOM     10  N   UNL     1      36.778 -23.899 -15.735  0.00  0.00    -0.305 N 
ATOM     11  C   UNL     1      36.959 -24.754 -14.657  0.00  0.00    +0.200 C 
ATOM     12  H   UNL     1      37.542 -23.735 -16.336  0.00  0.00    +0.150 HD
BRANCH  11  13
ATOM     13  C   UNL     1      38.366 -25.307 -14.619  0.00  0.00    +0.001 C 
BRANCH  13  14
ATOM     14  N   UNL     1      39.198 -24.589 -15.551  0.00  0.00    +0.386 N 
ATOM     15  H   UNL     1      39.493 -25.219 -16.297  0.00  0.00    -0.089 HD
ATOM     16  H   UNL     1      40.020 -24.230 -15.065  0.00  0.00    -0.089 HD
ATOM     17  H   UNL     1      38.671 -23.813 -15.949  0.00  0.00    -0.089 HD
ENDBRANCH  13  14
ENDBRANCH  11  13
ENDBRANCH   1  10
BRANCH   1  18
ATOM     18  C   UNL     1      34.370 -24.281 -15.996  0.00  0.00    +0.049 C 
BRANCH  18  19
ATOM     19  C   UNL     1      33.047 -23.784 -15.450  0.00  0.00    -0.020 C 
ATOM     20  C   UNL     1      32.839 -23.787 -14.083  0.00  0.00    -0.004 C 
ATOM     21  C   UNL     1      32.078 -23.340 -16.331  0.00  0.00    -0.004 C 
ATOM     22  C   UNL     1      31.620 -23.330 -13.578  0.00  0.00    -0.000 C 
ATOM     23  C   UNL     1      30.859 -22.883 -15.828  0.00  0.00    -0.000 C 
ATOM     24  C   UNL     1      30.631 -22.877 -14.452  0.00  0.00    -0.000 C 
ENDBRANCH  18  19
ENDBRANCH   1  18
TORSDOF 6
ENDMDL
