MODEL 1
REMARK VINA RESULT:     -12.4      0.000      0.000
REMARK  Name = 25174099
REMARK  5 active torsions:
REMARK  status: ('A' for Active; 'I' for Inactive)
REMARK    1  A    between atoms: C_5  and  C_33
REMARK    2  A    between atoms: C_14  and  C_18
REMARK    3  A    between atoms: N_17  and  C_20
REMARK    4  A    between atoms: C_20  and  C_24
REMARK    5  A    between atoms: C_33  and  C_36
REMARK                            x       y       z     vdW  Elec       q    Type
REMARK                         _______ _______ _______ _____ _____    ______ ____
ROOT
ATOM      1  S   UNL     1      34.571 -17.634 -24.862  0.00  0.00    -0.064 S 
ATOM      2  O   UNL     1      34.805 -15.273 -20.527  0.00  0.00    -0.274 OA
ATOM      3  N   UNL     1      35.531 -18.758 -22.630  0.00  0.00    -0.379 NA
ATOM      4  N   UNL     1      35.559 -17.456 -20.624  0.00  0.00    -0.255 N 
ATOM      5  C   UNL     1      33.620 -14.100 -23.183  0.00  0.00    +0.028 C 
ATOM      6  C   UNL     1      33.512 -13.260 -24.480  0.00  0.00    +0.005 C 
ATOM      7  C   UNL     1      34.098 -15.499 -23.493  0.00  0.00    -0.027 C 
ATOM      8  C   UNL     1      32.789 -14.012 -25.606  0.00  0.00    +0.006 C 
ATOM      9  C   UNL     1      33.517 -15.309 -25.984  0.00  0.00    +0.032 C 
ATOM     10  C   UNL     1      34.006 -16.032 -24.767  0.00  0.00    +0.002 C 
ATOM     11  C   UNL     1      34.688 -16.442 -22.588  0.00  0.00    +0.154 C 
ATOM     12  C   UNL     1      34.980 -17.651 -23.205  0.00  0.00    +0.152 C 
ATOM     13  C   UNL     1      35.002 -16.300 -21.168  0.00  0.00    +0.239 C 
ATOM     14  C   UNL     1      35.790 -18.603 -21.368  0.00  0.00    +0.240 C 
ATOM     15  H   UNL     1      35.798 -17.459 -19.669  0.00  0.00    +0.157 HD
ENDROOT
BRANCH  14  18
ATOM     16  O   UNL     1      37.613 -19.783 -20.547  0.00  0.00    -0.266 OA
ATOM     17  N   UNL     1      35.460 -20.588 -20.076  0.00  0.00    -0.294 N 
ATOM     18  C   UNL     1      36.392 -19.728 -20.615  0.00  0.00    +0.290 C 
ATOM     19  H   UNL     1      34.506 -20.397 -20.225  0.00  0.00    +0.150 HD
BRANCH  17  20
ATOM     20  C   UNL     1      35.817 -21.753 -19.300  0.00  0.00    +0.117 C 
BRANCH  20  24
ATOM     21  O   UNL     1      31.564 -23.425 -15.967  0.00  0.00    -0.464 OA
ATOM     22  O   UNL     1      33.428 -24.571 -13.091  0.00  0.00    -0.271 OA
ATOM     23  N   UNL     1      34.229 -23.681 -15.055  0.00  0.00    -0.279 N 
ATOM     24  C   UNL     1      34.700 -22.190 -18.398  0.00  0.00    -0.001 C 
ATOM     25  C   UNL     1      33.944 -23.118 -16.302  0.00  0.00    +0.085 C 
ATOM     26  C   UNL     1      34.987 -22.720 -17.139  0.00  0.00    +0.015 C 
ATOM     27  C   UNL     1      32.620 -22.997 -16.722  0.00  0.00    +0.153 C 
ATOM     28  C   UNL     1      33.376 -22.072 -18.821  0.00  0.00    +0.001 C 
ATOM     29  C   UNL     1      32.335 -22.482 -17.987  0.00  0.00    +0.038 C 
ATOM     30  C   UNL     1      31.849 -23.540 -14.586  0.00  0.00    +0.290 C 
ATOM     31  C   UNL     1      33.231 -24.012 -14.168  0.00  0.00    +0.271 C 
ATOM     32  H   UNL     1      35.167 -23.846 -14.805  0.00  0.00    +0.155 HD
ENDBRANCH  20  24
ENDBRANCH  17  20
ENDBRANCH  14  18
BRANCH   5  33
ATOM     33  C   UNL     1      32.279 -14.125 -22.441  0.00  0.00    +0.089 C 
BRANCH  33  36
ATOM     34  O   UNL     1      31.692 -11.813 -22.000  0.00  0.00    -0.275 OA
ATOM     35  N   UNL     1      32.403 -13.142 -20.263  0.00  0.00    -0.329 N 
ATOM     36  C   UNL     1      32.085 -12.899 -21.582  0.00  0.00    +0.220 C 
ATOM     37  H   UNL     1      32.320 -12.423 -19.596  0.00  0.00    +0.145 HD
ATOM     38  H   UNL     1      32.713 -14.035 -19.988  0.00  0.00    +0.145 HD
ENDBRANCH  33  36
ENDBRANCH   5  33
TORSDOF 5
ENDMDL
MODEL 2
REMARK VINA RESULT:     -12.0      2.507     10.249
REMARK  Name = 25174099
REMARK  5 active torsions:
REMARK  status: ('A' for Active; 'I' for Inactive)
REMARK    1  A    between atoms: C_5  and  C_33
REMARK    2  A    between atoms: C_14  and  C_18
REMARK    3  A    between atoms: N_17  and  C_20
REMARK    4  A    between atoms: C_20  and  C_24
REMARK    5  A    between atoms: C_33  and  C_36
REMARK                            x       y       z     vdW  Elec       q    Type
REMARK                         _______ _______ _______ _____ _____    ______ ____
ROOT
ATOM      1  S   UNL     1      37.407 -22.006 -16.478  0.00  0.00    -0.064 S 
ATOM      2  O   UNL     1      33.093 -22.514 -18.833  0.00  0.00    -0.274 OA
ATOM      3  N   UNL     1      36.822 -20.729 -18.757  0.00  0.00    -0.379 NA
ATOM      4  N   UNL     1      34.676 -21.099 -19.747  0.00  0.00    -0.255 N 
ATOM      5  C   UNL     1      33.862 -23.879 -16.116  0.00  0.00    +0.028 C 
ATOM      6  C   UNL     1      34.292 -24.978 -15.112  0.00  0.00    +0.005 C 
ATOM      7  C   UNL     1      35.053 -23.058 -16.550  0.00  0.00    -0.027 C 
ATOM      8  C   UNL     1      35.207 -24.433 -14.006  0.00  0.00    +0.006 C 
ATOM      9  C   UNL     1      36.498 -23.833 -14.577  0.00  0.00    +0.032 C 
ATOM     10  C   UNL     1      36.223 -23.030 -15.811  0.00  0.00    +0.002 C 
ATOM     11  C   UNL     1      35.167 -22.231 -17.717  0.00  0.00    +0.154 C 
ATOM     12  C   UNL     1      36.397 -21.590 -17.788  0.00  0.00    +0.152 C 
ATOM     13  C   UNL     1      34.200 -21.988 -18.784  0.00  0.00    +0.239 C 
ATOM     14  C   UNL     1      35.938 -20.527 -19.685  0.00  0.00    +0.240 C 
ATOM     15  H   UNL     1      34.091 -20.868 -20.504  0.00  0.00    +0.157 HD
ENDROOT
BRANCH  14  18
ATOM     16  O   UNL     1      37.445 -19.358 -21.007  0.00  0.00    -0.266 OA
ATOM     17  N   UNL     1      35.157 -19.153 -21.479  0.00  0.00    -0.294 N 
ATOM     18  C   UNL     1      36.266 -19.611 -20.801  0.00  0.00    +0.290 C 
ATOM     19  H   UNL     1      34.269 -19.457 -21.183  0.00  0.00    +0.150 HD
BRANCH  17  20
ATOM     20  C   UNL     1      35.236 -18.250 -22.604  0.00  0.00    +0.117 C 
BRANCH  20  24
ATOM     21  O   UNL     1      32.507 -13.413 -21.537  0.00  0.00    -0.464 OA
ATOM     22  O   UNL     1      33.666 -11.407 -24.311  0.00  0.00    -0.271 OA
ATOM     23  N   UNL     1      34.194 -13.587 -23.800  0.00  0.00    -0.279 N 
ATOM     24  C   UNL     1      34.509 -16.963 -22.343  0.00  0.00    -0.001 C 
ATOM     25  C   UNL     1      33.997 -14.687 -22.960  0.00  0.00    +0.085 C 
ATOM     26  C   UNL     1      34.681 -15.879 -23.204  0.00  0.00    +0.015 C 
ATOM     27  C   UNL     1      33.153 -14.573 -21.856  0.00  0.00    +0.153 C 
ATOM     28  C   UNL     1      33.668 -16.851 -21.236  0.00  0.00    +0.001 C 
ATOM     29  C   UNL     1      32.995 -15.654 -20.987  0.00  0.00    +0.038 C 
ATOM     30  C   UNL     1      32.359 -12.516 -22.621  0.00  0.00    +0.290 C 
ATOM     31  C   UNL     1      33.480 -12.422 -23.642  0.00  0.00    +0.271 C 
ATOM     32  H   UNL     1      34.860 -13.648 -24.523  0.00  0.00    +0.155 HD
ENDBRANCH  20  24
ENDBRANCH  17  20
ENDBRANCH  14  18
BRANCH   5  33
ATOM     33  C   UNL     1      32.768 -22.991 -15.512  0.00  0.00    +0.089 C 
BRANCH  33  36
ATOM     34  O   UNL     1      30.776 -24.373 -15.423  0.00  0.00    -0.275 OA
ATOM     35  N   UNL     1      30.886 -22.656 -16.950  0.00  0.00    -0.329 N 
ATOM     36  C   UNL     1      31.387 -23.434 -15.929  0.00  0.00    +0.220 C 
ATOM     37  H   UNL     1      29.991 -22.840 -17.315  0.00  0.00    +0.145 HD
ATOM     38  H   UNL     1      31.424 -21.916 -17.314  0.00  0.00    +0.145 HD
ENDBRANCH  33  36
ENDBRANCH   5  33
TORSDOF 5
ENDMDL
MODEL 3
REMARK VINA RESULT:     -12.0      3.003     10.209
REMARK  Name = 25174099
REMARK  5 active torsions:
REMARK  status: ('A' for Active; 'I' for Inactive)
REMARK    1  A    between atoms: C_5  and  C_33
REMARK    2  A    between atoms: C_14  and  C_18
REMARK    3  A    between atoms: N_17  and  C_20
REMARK    4  A    between atoms: C_20  and  C_24
REMARK    5  A    between atoms: C_33  and  C_36
REMARK                            x       y       z     vdW  Elec       q    Type
REMARK                         _______ _______ _______ _____ _____    ______ ____
ROOT
ATOM      1  S   UNL     1      35.361 -23.519 -15.315  0.00  0.00    -0.064 S 
ATOM      2  O   UNL     1      31.845 -22.349 -18.585  0.00  0.00    -0.274 OA
ATOM      3  N   UNL     1      35.867 -22.271 -17.628  0.00  0.00    -0.379 NA
ATOM      4  N   UNL     1      34.030 -21.783 -19.081  0.00  0.00    -0.255 N 
ATOM      5  C   UNL     1      31.370 -23.725 -15.807  0.00  0.00    +0.028 C 
ATOM      6  C   UNL     1      31.075 -24.833 -14.765  0.00  0.00    +0.005 C 
ATOM      7  C   UNL     1      32.858 -23.503 -15.941  0.00  0.00    -0.027 C 
ATOM      8  C   UNL     1      31.873 -24.644 -13.467  0.00  0.00    +0.006 C 
ATOM      9  C   UNL     1      33.386 -24.673 -13.719  0.00  0.00    +0.032 C 
ATOM     10  C   UNL     1      33.744 -23.914 -14.960  0.00  0.00    +0.002 C 
ATOM     11  C   UNL     1      33.555 -22.878 -17.027  0.00  0.00    +0.154 C 
ATOM     12  C   UNL     1      34.924 -22.811 -16.805  0.00  0.00    +0.152 C 
ATOM     13  C   UNL     1      33.032 -22.328 -18.275  0.00  0.00    +0.239 C 
ATOM     14  C   UNL     1      35.371 -21.782 -18.723  0.00  0.00    +0.240 C 
ATOM     15  H   UNL     1      33.773 -21.381 -19.942  0.00  0.00    +0.157 HD
ENDROOT
BRANCH  14  18
ATOM     16  O   UNL     1      37.310 -21.762 -19.998  0.00  0.00    -0.266 OA
ATOM     17  N   UNL     1      35.832 -19.951 -20.189  0.00  0.00    -0.294 N 
ATOM     18  C   UNL     1      36.283 -21.162 -19.711  0.00  0.00    +0.290 C 
ATOM     19  H   UNL     1      34.974 -19.605 -19.852  0.00  0.00    +0.150 HD
BRANCH  17  20
ATOM     20  C   UNL     1      36.557 -19.166 -21.162  0.00  0.00    +0.117 C 
BRANCH  20  24
ATOM     21  O   UNL     1      33.512 -14.781 -23.032  0.00  0.00    -0.464 OA
ATOM     22  O   UNL     1      33.678 -15.369 -26.593  0.00  0.00    -0.271 OA
ATOM     23  N   UNL     1      34.614 -16.604 -24.893  0.00  0.00    -0.279 N 
ATOM     24  C   UNL     1      35.741 -18.015 -21.675  0.00  0.00    -0.001 C 
ATOM     25  C   UNL     1      34.781 -16.788 -23.517  0.00  0.00    +0.085 C 
ATOM     26  C   UNL     1      35.546 -17.856 -23.047  0.00  0.00    +0.015 C 
ATOM     27  C   UNL     1      34.220 -15.877 -22.623  0.00  0.00    +0.153 C 
ATOM     28  C   UNL     1      35.183 -17.103 -20.778  0.00  0.00    +0.001 C 
ATOM     29  C   UNL     1      34.428 -16.029 -21.252  0.00  0.00    +0.038 C 
ATOM     30  C   UNL     1      32.984 -14.888 -24.340  0.00  0.00    +0.290 C 
ATOM     31  C   UNL     1      33.802 -15.613 -25.395  0.00  0.00    +0.271 C 
ATOM     32  H   UNL     1      35.088 -17.198 -25.518  0.00  0.00    +0.155 HD
ENDBRANCH  20  24
ENDBRANCH  17  20
ENDBRANCH  14  18
BRANCH   5  33
ATOM     33  C   UNL     1      30.648 -22.426 -15.435  0.00  0.00    +0.089 C 
BRANCH  33  36
ATOM     34  O   UNL     1      28.268 -21.988 -15.266  0.00  0.00    -0.275 OA
ATOM     35  N   UNL     1      29.100 -22.949 -17.183  0.00  0.00    -0.329 N 
ATOM     36  C   UNL     1      29.217 -22.417 -15.917  0.00  0.00    +0.220 C 
ATOM     37  H   UNL     1      28.217 -23.002 -17.615  0.00  0.00    +0.145 HD
ATOM     38  H   UNL     1      29.899 -23.276 -17.655  0.00  0.00    +0.145 HD
ENDBRANCH  33  36
ENDBRANCH   5  33
TORSDOF 5
ENDMDL
MODEL 4
REMARK VINA RESULT:     -11.9      2.646     10.557
REMARK  Name = 25174099
REMARK  5 active torsions:
REMARK  status: ('A' for Active; 'I' for Inactive)
REMARK    1  A    between atoms: C_5  and  C_33
REMARK    2  A    between atoms: C_14  and  C_18
REMARK    3  A    between atoms: N_17  and  C_20
REMARK    4  A    between atoms: C_20  and  C_24
REMARK    5  A    between atoms: C_33  and  C_36
REMARK                            x       y       z     vdW  Elec       q    Type
REMARK                         _______ _______ _______ _____ _____    ______ ____
ROOT
ATOM      1  S   UNL     1      37.080 -21.796 -17.171  0.00  0.00    -0.064 S 
ATOM      2  O   UNL     1      32.467 -23.512 -17.608  0.00  0.00    -0.274 OA
ATOM      3  N   UNL     1      35.427 -21.072 -19.149  0.00  0.00    -0.379 NA
ATOM      4  N   UNL     1      33.227 -22.008 -19.189  0.00  0.00    -0.255 N 
ATOM      5  C   UNL     1      34.463 -24.211 -15.292  0.00  0.00    +0.028 C 
ATOM      6  C   UNL     1      35.475 -25.015 -14.438  0.00  0.00    +0.005 C 
ATOM      7  C   UNL     1      35.184 -23.269 -16.227  0.00  0.00    -0.027 C 
ATOM      8  C   UNL     1      36.566 -24.122 -13.829  0.00  0.00    +0.006 C 
ATOM      9  C   UNL     1      37.381 -23.399 -14.909  0.00  0.00    +0.032 C 
ATOM     10  C   UNL     1      36.497 -22.892 -16.007  0.00  0.00    +0.002 C 
ATOM     11  C   UNL     1      34.669 -22.653 -17.416  0.00  0.00    +0.154 C 
ATOM     12  C   UNL     1      35.599 -21.815 -18.018  0.00  0.00    +0.152 C 
ATOM     13  C   UNL     1      33.356 -22.787 -18.041  0.00  0.00    +0.239 C 
ATOM     14  C   UNL     1      34.249 -21.206 -19.674  0.00  0.00    +0.240 C 
ATOM     15  H   UNL     1      32.372 -22.027 -19.677  0.00  0.00    +0.157 HD
ENDROOT
BRANCH  14  18
ATOM     16  O   UNL     1      32.745 -20.234 -21.151  0.00  0.00    -0.266 OA
ATOM     17  N   UNL     1      35.035 -20.095 -21.640  0.00  0.00    -0.294 N 
ATOM     18  C   UNL     1      33.924 -20.455 -20.909  0.00  0.00    +0.290 C 
ATOM     19  H   UNL     1      35.922 -20.352 -21.301  0.00  0.00    +0.150 HD
BRANCH  17  20
ATOM     20  C   UNL     1      34.959 -19.355 -22.879  0.00  0.00    +0.117 C 
BRANCH  20  24
ATOM     21  O   UNL     1      34.219 -13.827 -21.935  0.00  0.00    -0.464 OA
ATOM     22  O   UNL     1      33.405 -12.719 -25.277  0.00  0.00    -0.271 OA
ATOM     23  N   UNL     1      33.898 -14.846 -24.554  0.00  0.00    -0.279 N 
ATOM     24  C   UNL     1      34.746 -17.887 -22.644  0.00  0.00    -0.001 C 
ATOM     25  C   UNL     1      34.203 -15.691 -23.483  0.00  0.00    +0.085 C 
ATOM     26  C   UNL     1      34.406 -17.053 -23.709  0.00  0.00    +0.015 C 
ATOM     27  C   UNL     1      34.348 -15.161 -22.202  0.00  0.00    +0.153 C 
ATOM     28  C   UNL     1      34.895 -17.359 -21.361  0.00  0.00    +0.001 C 
ATOM     29  C   UNL     1      34.704 -15.994 -21.141  0.00  0.00    +0.038 C 
ATOM     30  C   UNL     1      33.476 -13.113 -22.904  0.00  0.00    +0.290 C 
ATOM     31  C   UNL     1      33.612 -13.514 -24.363  0.00  0.00    +0.271 C 
ATOM     32  H   UNL     1      33.887 -15.213 -25.468  0.00  0.00    +0.155 HD
ENDBRANCH  20  24
ENDBRANCH  17  20
ENDBRANCH  14  18
BRANCH   5  33
ATOM     33  C   UNL     1      33.479 -23.453 -14.393  0.00  0.00    +0.089 C 
BRANCH  33  36
ATOM     34  O   UNL     1      32.104 -25.023 -13.157  0.00  0.00    -0.275 OA
ATOM     35  N   UNL     1      31.256 -24.038 -15.054  0.00  0.00    -0.329 N 
ATOM     36  C   UNL     1      32.236 -24.260 -14.110  0.00  0.00    +0.220 C 
ATOM     37  H   UNL     1      30.392 -24.505 -14.985  0.00  0.00    +0.145 HD
ATOM     38  H   UNL     1      31.420 -23.414 -15.797  0.00  0.00    +0.145 HD
ENDBRANCH  33  36
ENDBRANCH   5  33
TORSDOF 5
ENDMDL
MODEL 5
REMARK VINA RESULT:     -11.8      1.161      1.711
REMARK  Name = 25174099
REMARK  5 active torsions:
REMARK  status: ('A' for Active; 'I' for Inactive)
REMARK    1  A    between atoms: C_5  and  C_33
REMARK    2  A    between atoms: C_14  and  C_18
REMARK    3  A    between atoms: N_17  and  C_20
REMARK    4  A    between atoms: C_20  and  C_24
REMARK    5  A    between atoms: C_33  and  C_36
REMARK                            x       y       z     vdW  Elec       q    Type
REMARK                         _______ _______ _______ _____ _____    ______ ____
ROOT
ATOM      1  S   UNL     1      34.509 -17.457 -24.774  0.00  0.00    -0.064 S 
ATOM      2  O   UNL     1      34.681 -15.318 -20.322  0.00  0.00    -0.274 OA
ATOM      3  N   UNL     1      35.421 -18.699 -22.584  0.00  0.00    -0.379 NA
ATOM      4  N   UNL     1      35.421 -17.499 -20.515  0.00  0.00    -0.255 N 
ATOM      5  C   UNL     1      33.552 -14.005 -22.937  0.00  0.00    +0.028 C 
ATOM      6  C   UNL     1      33.474 -13.099 -24.191  0.00  0.00    +0.005 C 
ATOM      7  C   UNL     1      34.026 -15.389 -23.308  0.00  0.00    -0.027 C 
ATOM      8  C   UNL     1      32.766 -13.789 -25.367  0.00  0.00    +0.006 C 
ATOM      9  C   UNL     1      33.492 -15.070 -25.797  0.00  0.00    +0.032 C 
ATOM     10  C   UNL     1      33.953 -15.857 -24.609  0.00  0.00    +0.002 C 
ATOM     11  C   UNL     1      34.593 -16.382 -22.441  0.00  0.00    +0.154 C 
ATOM     12  C   UNL     1      34.887 -17.561 -23.113  0.00  0.00    +0.152 C 
ATOM     13  C   UNL     1      34.882 -16.314 -21.011  0.00  0.00    +0.239 C 
ATOM     14  C   UNL     1      35.658 -18.610 -21.312  0.00  0.00    +0.240 C 
ATOM     15  H   UNL     1      35.643 -17.552 -19.558  0.00  0.00    +0.157 HD
ENDROOT
BRANCH  14  18
ATOM     16  O   UNL     1      37.334 -19.638 -20.079  0.00  0.00    -0.266 OA
ATOM     17  N   UNL     1      35.434 -20.894 -20.642  0.00  0.00    -0.294 N 
ATOM     18  C   UNL     1      36.238 -19.775 -20.606  0.00  0.00    +0.290 C 
ATOM     19  H   UNL     1      34.572 -20.836 -21.113  0.00  0.00    +0.150 HD
BRANCH  17  20
ATOM     20  C   UNL     1      35.796 -22.146 -20.019  0.00  0.00    +0.117 C 
BRANCH  20  24
ATOM     21  O   UNL     1      33.025 -22.953 -15.154  0.00  0.00    -0.464 OA
ATOM     22  O   UNL     1      29.619 -22.974 -16.363  0.00  0.00    -0.271 OA
ATOM     23  N   UNL     1      31.563 -22.703 -17.563  0.00  0.00    -0.279 N 
ATOM     24  C   UNL     1      35.045 -22.373 -18.738  0.00  0.00    -0.001 C 
ATOM     25  C   UNL     1      32.960 -22.664 -17.559  0.00  0.00    +0.085 C 
ATOM     26  C   UNL     1      33.652 -22.447 -18.751  0.00  0.00    +0.015 C 
ATOM     27  C   UNL     1      33.654 -22.798 -16.357  0.00  0.00    +0.153 C 
ATOM     28  C   UNL     1      35.742 -22.503 -17.536  0.00  0.00    +0.001 C 
ATOM     29  C   UNL     1      35.047 -22.708 -16.344  0.00  0.00    +0.038 C 
ATOM     30  C   UNL     1      31.702 -23.445 -15.252  0.00  0.00    +0.290 C 
ATOM     31  C   UNL     1      30.847 -22.995 -16.425  0.00  0.00    +0.271 C 
ATOM     32  H   UNL     1      31.079 -22.518 -18.399  0.00  0.00    +0.155 HD
ENDBRANCH  20  24
ENDBRANCH  17  20
ENDBRANCH  14  18
BRANCH   5  33
ATOM     33  C   UNL     1      32.198 -14.056 -22.220  0.00  0.00    +0.089 C 
BRANCH  33  36
ATOM     34  O   UNL     1      32.337 -12.662 -20.240  0.00  0.00    -0.275 OA
ATOM     35  N   UNL     1      31.228 -11.873 -22.094  0.00  0.00    -0.329 N 
ATOM     36  C   UNL     1      31.948 -12.818 -21.395  0.00  0.00    +0.220 C 
ATOM     37  H   UNL     1      30.996 -11.016 -21.668  0.00  0.00    +0.145 HD
ATOM     38  H   UNL     1      30.944 -12.056 -23.019  0.00  0.00    +0.145 HD
ENDBRANCH  33  36
ENDBRANCH   5  33
TORSDOF 5
ENDMDL
MODEL 6
REMARK VINA RESULT:     -11.7      2.783      9.919
REMARK  Name = 25174099
REMARK  5 active torsions:
REMARK  status: ('A' for Active; 'I' for Inactive)
REMARK    1  A    between atoms: C_5  and  C_33
REMARK    2  A    between atoms: C_14  and  C_18
REMARK    3  A    between atoms: N_17  and  C_20
REMARK    4  A    between atoms: C_20  and  C_24
REMARK    5  A    between atoms: C_33  and  C_36
REMARK                            x       y       z     vdW  Elec       q    Type
REMARK                         _______ _______ _______ _____ _____    ______ ____
ROOT
ATOM      1  S   UNL     1      36.185 -23.126 -15.337  0.00  0.00    -0.064 S 
ATOM      2  O   UNL     1      32.320 -22.625 -18.375  0.00  0.00    -0.274 OA
ATOM      3  N   UNL     1      36.371 -22.052 -17.782  0.00  0.00    -0.379 NA
ATOM      4  N   UNL     1      34.385 -21.889 -19.105  0.00  0.00    -0.255 N 
ATOM      5  C   UNL     1      32.215 -23.781 -15.461  0.00  0.00    +0.028 C 
ATOM      6  C   UNL     1      32.123 -24.812 -14.308  0.00  0.00    +0.005 C 
ATOM      7  C   UNL     1      33.654 -23.422 -15.742  0.00  0.00    -0.027 C 
ATOM      8  C   UNL     1      32.994 -24.424 -13.105  0.00  0.00    +0.006 C 
ATOM      9  C   UNL     1      34.477 -24.322 -13.485  0.00  0.00    +0.032 C 
ATOM     10  C   UNL     1      34.653 -23.648 -14.811  0.00  0.00    +0.002 C 
ATOM     11  C   UNL     1      34.192 -22.832 -16.933  0.00  0.00    +0.154 C 
ATOM     12  C   UNL     1      35.559 -22.607 -16.837  0.00  0.00    +0.152 C 
ATOM     13  C   UNL     1      33.518 -22.455 -18.173  0.00  0.00    +0.239 C 
ATOM     14  C   UNL     1      35.741 -21.719 -18.866  0.00  0.00    +0.240 C 
ATOM     15  H   UNL     1      34.020 -21.596 -19.971  0.00  0.00    +0.157 HD
ENDROOT
BRANCH  14  18
ATOM     16  O   UNL     1      37.352 -21.783 -20.536  0.00  0.00    -0.266 OA
ATOM     17  N   UNL     1      36.130 -19.803 -20.241  0.00  0.00    -0.294 N 
ATOM     18  C   UNL     1      36.501 -21.103 -19.978  0.00  0.00    +0.290 C 
ATOM     19  H   UNL     1      35.418 -19.399 -19.694  0.00  0.00    +0.150 HD
BRANCH  17  20
ATOM     20  C   UNL     1      36.734 -19.005 -21.283  0.00  0.00    +0.117 C 
BRANCH  20  24
ATOM     21  O   UNL     1      33.148 -15.138 -23.329  0.00  0.00    -0.464 OA
ATOM     22  O   UNL     1      32.272 -13.412 -20.278  0.00  0.00    -0.271 OA
ATOM     23  N   UNL     1      33.698 -15.196 -20.555  0.00  0.00    -0.279 N 
ATOM     24  C   UNL     1      35.790 -17.964 -21.811  0.00  0.00    -0.001 C 
ATOM     25  C   UNL     1      34.323 -16.085 -21.433  0.00  0.00    +0.085 C 
ATOM     26  C   UNL     1      35.195 -17.055 -20.936  0.00  0.00    +0.015 C 
ATOM     27  C   UNL     1      34.039 -16.028 -22.797  0.00  0.00    +0.153 C 
ATOM     28  C   UNL     1      35.504 -17.911 -23.176  0.00  0.00    +0.001 C 
ATOM     29  C   UNL     1      34.622 -16.948 -23.669  0.00  0.00    +0.038 C 
ATOM     30  C   UNL     1      32.914 -14.001 -22.521  0.00  0.00    +0.290 C 
ATOM     31  C   UNL     1      32.896 -14.175 -21.012  0.00  0.00    +0.271 C 
ATOM     32  H   UNL     1      33.834 -15.301 -19.586  0.00  0.00    +0.155 HD
ENDBRANCH  20  24
ENDBRANCH  17  20
ENDBRANCH  14  18
BRANCH   5  33
ATOM     33  C   UNL     1      31.386 -22.532 -15.137  0.00  0.00    +0.089 C 
BRANCH  33  36
ATOM     34  O   UNL     1      28.971 -22.564 -14.907  0.00  0.00    -0.275 OA
ATOM     35  N   UNL     1      29.906 -22.885 -16.984  0.00  0.00    -0.329 N 
ATOM     36  C   UNL     1      29.963 -22.656 -15.626  0.00  0.00    +0.220 C 
ATOM     37  H   UNL     1      29.034 -22.986 -17.430  0.00  0.00    +0.145 HD
ATOM     38  H   UNL     1      30.737 -22.949 -17.507  0.00  0.00    +0.145 HD
ENDBRANCH  33  36
ENDBRANCH   5  33
TORSDOF 5
ENDMDL
MODEL 7
REMARK VINA RESULT:     -11.6      3.453      6.015
REMARK  Name = 25174099
REMARK  5 active torsions:
REMARK  status: ('A' for Active; 'I' for Inactive)
REMARK    1  A    between atoms: C_5  and  C_33
REMARK    2  A    between atoms: C_14  and  C_18
REMARK    3  A    between atoms: N_17  and  C_20
REMARK    4  A    between atoms: C_20  and  C_24
REMARK    5  A    between atoms: C_33  and  C_36
REMARK                            x       y       z     vdW  Elec       q    Type
REMARK                         _______ _______ _______ _____ _____    ______ ____
ROOT
ATOM      1  S   UNL     1      31.965 -12.680 -21.249  0.00  0.00    -0.064 S 
ATOM      2  O   UNL     1      33.874 -11.208 -25.563  0.00  0.00    -0.274 OA
ATOM      3  N   UNL     1      32.992 -14.372 -23.052  0.00  0.00    -0.379 NA
ATOM      4  N   UNL     1      33.875 -13.469 -25.082  0.00  0.00    -0.255 N 
ATOM      5  C   UNL     1      32.728  -9.322 -23.334  0.00  0.00    +0.028 C 
ATOM      6  C   UNL     1      31.754  -8.373 -22.593  0.00  0.00    +0.005 C 
ATOM      7  C   UNL     1      32.576 -10.738 -22.834  0.00  0.00    -0.027 C 
ATOM      8  C   UNL     1      31.775  -8.584 -21.072  0.00  0.00    +0.006 C 
ATOM      9  C   UNL     1      31.371 -10.013 -20.689  0.00  0.00    +0.032 C 
ATOM     10  C   UNL     1      31.987 -11.018 -21.613  0.00  0.00    +0.002 C 
ATOM     11  C   UNL     1      32.984 -11.946 -23.492  0.00  0.00    +0.154 C 
ATOM     12  C   UNL     1      32.720 -13.075 -22.727  0.00  0.00    +0.152 C 
ATOM     13  C   UNL     1      33.613 -12.130 -24.797  0.00  0.00    +0.239 C 
ATOM     14  C   UNL     1      33.558 -14.501 -24.212  0.00  0.00    +0.240 C 
ATOM     15  H   UNL     1      34.305 -13.692 -25.939  0.00  0.00    +0.157 HD
ENDROOT
BRANCH  14  18
ATOM     16  O   UNL     1      33.578 -16.166 -25.829  0.00  0.00    -0.266 OA
ATOM     17  N   UNL     1      34.589 -16.609 -23.759  0.00  0.00    -0.294 N 
ATOM     18  C   UNL     1      33.910 -15.856 -24.692  0.00  0.00    +0.290 C 
ATOM     19  H   UNL     1      34.780 -16.206 -22.882  0.00  0.00    +0.150 HD
BRANCH  17  20
ATOM     20  C   UNL     1      35.035 -17.961 -24.008  0.00  0.00    +0.117 C 
BRANCH  20  24
ATOM     21  O   UNL     1      35.999 -20.741 -19.177  0.00  0.00    -0.464 OA
ATOM     22  O   UNL     1      32.764 -22.272 -18.673  0.00  0.00    -0.271 OA
ATOM     23  N   UNL     1      33.447 -20.899 -20.388  0.00  0.00    -0.279 N 
ATOM     24  C   UNL     1      35.278 -18.715 -22.733  0.00  0.00    -0.001 C 
ATOM     25  C   UNL     1      34.484 -20.173 -20.981  0.00  0.00    +0.085 C 
ATOM     26  C   UNL     1      34.250 -19.468 -22.163  0.00  0.00    +0.015 C 
ATOM     27  C   UNL     1      35.733 -20.119 -20.365  0.00  0.00    +0.153 C 
ATOM     28  C   UNL     1      36.528 -18.657 -22.116  0.00  0.00    +0.001 C 
ATOM     29  C   UNL     1      36.754 -19.353 -20.928  0.00  0.00    +0.038 C 
ATOM     30  C   UNL     1      35.117 -21.804 -18.871  0.00  0.00    +0.290 C 
ATOM     31  C   UNL     1      33.656 -21.672 -19.268  0.00  0.00    +0.271 C 
ATOM     32  H   UNL     1      32.546 -20.858 -20.780  0.00  0.00    +0.155 HD
ENDBRANCH  20  24
ENDBRANCH  17  20
ENDBRANCH  14  18
BRANCH   5  33
ATOM     33  C   UNL     1      34.174  -8.835 -23.188  0.00  0.00    +0.089 C 
BRANCH  33  36
ATOM     34  O   UNL     1      34.467  -6.770 -24.428  0.00  0.00    -0.275 OA
ATOM     35  N   UNL     1      35.183  -8.749 -25.356  0.00  0.00    -0.329 N 
ATOM     36  C   UNL     1      34.607  -7.989 -24.361  0.00  0.00    +0.220 C 
ATOM     37  H   UNL     1      35.510  -8.318 -26.178  0.00  0.00    +0.145 HD
ATOM     38  H   UNL     1      35.268  -9.723 -25.244  0.00  0.00    +0.145 HD
ENDBRANCH  33  36
ENDBRANCH   5  33
TORSDOF 5
ENDMDL
MODEL 8
REMARK VINA RESULT:     -11.5      2.732     10.704
REMARK  Name = 25174099
REMARK  5 active torsions:
REMARK  status: ('A' for Active; 'I' for Inactive)
REMARK    1  A    between atoms: C_5  and  C_33
REMARK    2  A    between atoms: C_14  and  C_18
REMARK    3  A    between atoms: N_17  and  C_20
REMARK    4  A    between atoms: C_20  and  C_24
REMARK    5  A    between atoms: C_33  and  C_36
REMARK                            x       y       z     vdW  Elec       q    Type
REMARK                         _______ _______ _______ _____ _____    ______ ____
ROOT
ATOM      1  S   UNL     1      32.654 -22.920 -17.447  0.00  0.00    -0.064 S 
ATOM      2  O   UNL     1      37.387 -22.396 -16.125  0.00  0.00    -0.274 OA
ATOM      3  N   UNL     1      34.498 -21.780 -19.018  0.00  0.00    -0.379 NA
ATOM      4  N   UNL     1      36.742 -21.621 -18.204  0.00  0.00    -0.255 N 
ATOM      5  C   UNL     1      35.157 -23.792 -14.417  0.00  0.00    +0.028 C 
ATOM      6  C   UNL     1      34.097 -24.008 -13.308  0.00  0.00    +0.005 C 
ATOM      7  C   UNL     1      34.504 -23.319 -15.693  0.00  0.00    -0.027 C 
ATOM      8  C   UNL     1      32.882 -24.802 -13.807  0.00  0.00    +0.006 C 
ATOM      9  C   UNL     1      32.168 -24.087 -14.961  0.00  0.00    +0.032 C 
ATOM     10  C   UNL     1      33.151 -23.498 -15.926  0.00  0.00    +0.002 C 
ATOM     11  C   UNL     1      35.127 -22.650 -16.799  0.00  0.00    +0.154 C 
ATOM     12  C   UNL     1      34.231 -22.388 -17.827  0.00  0.00    +0.152 C 
ATOM     13  C   UNL     1      36.515 -22.233 -16.973  0.00  0.00    +0.239 C 
ATOM     14  C   UNL     1      35.741 -21.430 -19.146  0.00  0.00    +0.240 C 
ATOM     15  H   UNL     1      37.652 -21.311 -18.416  0.00  0.00    +0.157 HD
ENDROOT
BRANCH  14  18
ATOM     16  O   UNL     1      37.370 -20.738 -20.647  0.00  0.00    -0.266 OA
ATOM     17  N   UNL     1      35.130 -20.229 -21.121  0.00  0.00    -0.294 N 
ATOM     18  C   UNL     1      36.173 -20.758 -20.393  0.00  0.00    +0.290 C 
ATOM     19  H   UNL     1      34.216 -20.333 -20.772  0.00  0.00    +0.150 HD
BRANCH  17  20
ATOM     20  C   UNL     1      35.315 -19.530 -22.372  0.00  0.00    +0.117 C 
BRANCH  20  24
ATOM     21  O   UNL     1      34.093 -14.030 -21.875  0.00  0.00    -0.464 OA
ATOM     22  O   UNL     1      33.305 -13.244 -25.313  0.00  0.00    -0.271 OA
ATOM     23  N   UNL     1      33.946 -15.263 -24.416  0.00  0.00    -0.279 N 
ATOM     24  C   UNL     1      34.975 -18.072 -22.256  0.00  0.00    -0.001 C 
ATOM     25  C   UNL     1      34.283 -15.998 -23.275  0.00  0.00    +0.085 C 
ATOM     26  C   UNL     1      34.604 -17.351 -23.391  0.00  0.00    +0.015 C 
ATOM     27  C   UNL     1      34.340 -15.364 -22.035  0.00  0.00    +0.153 C 
ATOM     28  C   UNL     1      35.036 -17.440 -21.014  0.00  0.00    +0.001 C 
ATOM     29  C   UNL     1      34.726 -16.084 -20.903  0.00  0.00    +0.038 C 
ATOM     30  C   UNL     1      33.327 -13.454 -22.915  0.00  0.00    +0.290 C 
ATOM     31  C   UNL     1      33.545 -13.949 -24.335  0.00  0.00    +0.271 C 
ATOM     32  H   UNL     1      33.996 -15.696 -25.299  0.00  0.00    +0.155 HD
ENDBRANCH  20  24
ENDBRANCH  17  20
ENDBRANCH  14  18
BRANCH   5  33
ATOM     33  C   UNL     1      35.966 -25.073 -14.650  0.00  0.00    +0.089 C 
BRANCH  33  36
ATOM     34  O   UNL     1      37.607 -24.871 -12.876  0.00  0.00    -0.275 OA
ATOM     35  N   UNL     1      38.323 -25.020 -15.056  0.00  0.00    -0.329 N 
ATOM     36  C   UNL     1      37.357 -24.976 -14.074  0.00  0.00    +0.220 C 
ATOM     37  H   UNL     1      39.275 -24.966 -14.813  0.00  0.00    +0.145 HD
ATOM     38  H   UNL     1      38.060 -25.105 -16.001  0.00  0.00    +0.145 HD
ENDBRANCH  33  36
ENDBRANCH   5  33
TORSDOF 5
ENDMDL
MODEL 9
REMARK VINA RESULT:     -11.4      2.395      3.343
REMARK  Name = 25174099
REMARK  5 active torsions:
REMARK  status: ('A' for Active; 'I' for Inactive)
REMARK    1  A    between atoms: C_5  and  C_33
REMARK    2  A    between atoms: C_14  and  C_18
REMARK    3  A    between atoms: N_17  and  C_20
REMARK    4  A    between atoms: C_20  and  C_24
REMARK    5  A    between atoms: C_33  and  C_36
REMARK                            x       y       z     vdW  Elec       q    Type
REMARK                         _______ _______ _______ _____ _____    ______ ____
ROOT
ATOM      1  S   UNL     1      32.781 -14.769 -20.029  0.00  0.00    -0.064 S 
ATOM      2  O   UNL     1      34.025 -15.091 -24.801  0.00  0.00    -0.274 OA
ATOM      3  N   UNL     1      34.012 -16.899 -21.083  0.00  0.00    -0.379 NA
ATOM      4  N   UNL     1      34.539 -16.869 -23.416  0.00  0.00    -0.255 N 
ATOM      5  C   UNL     1      32.666 -12.619 -23.431  0.00  0.00    +0.028 C 
ATOM      6  C   UNL     1      31.567 -11.607 -23.019  0.00  0.00    +0.005 C 
ATOM      7  C   UNL     1      32.853 -13.668 -22.362  0.00  0.00    -0.027 C 
ATOM      8  C   UNL     1      31.741 -11.112 -21.576  0.00  0.00    +0.006 C 
ATOM      9  C   UNL     1      31.676 -12.264 -20.565  0.00  0.00    +0.032 C 
ATOM     10  C   UNL     1      32.424 -13.463 -21.061  0.00  0.00    +0.002 C 
ATOM     11  C   UNL     1      33.460 -14.960 -22.501  0.00  0.00    +0.154 C 
ATOM     12  C   UNL     1      33.495 -15.656 -21.299  0.00  0.00    +0.152 C 
ATOM     13  C   UNL     1      34.019 -15.604 -23.686  0.00  0.00    +0.239 C 
ATOM     14  C   UNL     1      34.509 -17.440 -22.152  0.00  0.00    +0.240 C 
ATOM     15  H   UNL     1      34.945 -17.379 -24.153  0.00  0.00    +0.157 HD
ENDROOT
BRANCH  14  18
ATOM     16  O   UNL     1      34.966 -19.545 -23.017  0.00  0.00    -0.266 OA
ATOM     17  N   UNL     1      35.762 -19.024 -20.873  0.00  0.00    -0.294 N 
ATOM     18  C   UNL     1      35.106 -18.792 -22.062  0.00  0.00    +0.290 C 
ATOM     19  H   UNL     1      35.783 -18.304 -20.202  0.00  0.00    +0.150 HD
BRANCH  17  20
ATOM     20  C   UNL     1      36.421 -20.273 -20.564  0.00  0.00    +0.117 C 
BRANCH  20  24
ATOM     21  O   UNL     1      33.414 -23.407 -16.941  0.00  0.00    -0.464 OA
ATOM     22  O   UNL     1      35.935 -24.073 -14.439  0.00  0.00    -0.271 OA
ATOM     23  N   UNL     1      36.132 -22.858 -16.382  0.00  0.00    -0.279 N 
ATOM     24  C   UNL     1      35.634 -21.095 -19.586  0.00  0.00    -0.001 C 
ATOM     25  C   UNL     1      35.511 -22.340 -17.522  0.00  0.00    +0.085 C 
ATOM     26  C   UNL     1      36.249 -21.581 -18.431  0.00  0.00    +0.015 C 
ATOM     27  C   UNL     1      34.167 -22.621 -17.767  0.00  0.00    +0.153 C 
ATOM     28  C   UNL     1      34.291 -21.379 -19.835  0.00  0.00    +0.001 C 
ATOM     29  C   UNL     1      33.559 -22.148 -18.930  0.00  0.00    +0.038 C 
ATOM     30  C   UNL     1      33.917 -23.509 -15.623  0.00  0.00    +0.290 C 
ATOM     31  C   UNL     1      35.423 -23.541 -15.421  0.00  0.00    +0.271 C 
ATOM     32  H   UNL     1      37.101 -22.730 -16.263  0.00  0.00    +0.155 HD
ENDBRANCH  20  24
ENDBRANCH  17  20
ENDBRANCH  14  18
BRANCH   5  33
ATOM     33  C   UNL     1      33.982 -11.894 -23.733  0.00  0.00    +0.089 C 
BRANCH  33  36
ATOM     34  O   UNL     1      34.869 -10.758 -25.684  0.00  0.00    -0.275 OA
ATOM     35  N   UNL     1      33.444 -12.540 -25.973  0.00  0.00    -0.329 N 
ATOM     36  C   UNL     1      34.165 -11.646 -25.211  0.00  0.00    +0.220 C 
ATOM     37  H   UNL     1      33.476 -12.486 -26.956  0.00  0.00    +0.145 HD
ATOM     38  H   UNL     1      32.897 -13.231 -25.535  0.00  0.00    +0.145 HD
ENDBRANCH  33  36
ENDBRANCH   5  33
TORSDOF 5
ENDMDL
