MODEL 1
REMARK VINA RESULT:      -4.0      0.000      0.000
REMARK  Name = 111509
REMARK  3 active torsions:
REMARK  status: ('A' for Active; 'I' for Inactive)
REMARK    1  A    between atoms: C_1  and  C_3
REMARK    2  A    between atoms: C_1  and  C_5
REMARK    3  A    between atoms: C_5  and  O_6
REMARK                            x       y       z     vdW  Elec       q    Type
REMARK                         _______ _______ _______ _____ _____    ______ ____
ROOT
ATOM      1  C   UNL     1      38.913 -25.089 -14.349  0.00  0.00    +0.096 C 
ENDROOT
BRANCH   1   3
ATOM      2  O   UNL     1      38.188 -27.362 -14.757  0.00  0.00    -0.296 OA
ATOM      3  C   UNL     1      37.901 -26.168 -14.702  0.00  0.00    +0.154 C 
ATOM      4  C   UNL     1      36.499 -25.694 -14.983  0.00  0.00    +0.072 C 
ENDBRANCH   1   3
BRANCH   1   5
ATOM      5  C   UNL     1      40.339 -25.467 -14.723  0.00  0.00    +0.145 C 
BRANCH   5   6
ATOM      6  O   UNL     1      40.393 -25.941 -16.062  0.00  0.00    -0.382 OA
ATOM      7  H   UNL     1      40.828 -26.807 -16.081  0.00  0.00    +0.210 HD
ENDBRANCH   5   6
ENDBRANCH   1   5
TORSDOF 3
ENDMDL
MODEL 2
REMARK VINA RESULT:      -3.9     11.017     11.799
REMARK  Name = 111509
REMARK  3 active torsions:
REMARK  status: ('A' for Active; 'I' for Inactive)
REMARK    1  A    between atoms: C_1  and  C_3
REMARK    2  A    between atoms: C_1  and  C_5
REMARK    3  A    between atoms: C_5  and  O_6
REMARK                            x       y       z     vdW  Elec       q    Type
REMARK                         _______ _______ _______ _____ _____    ______ ____
ROOT
ATOM      1  C   UNL     1      40.946 -15.186 -15.001  0.00  0.00    +0.096 C 
ENDROOT
BRANCH   1   3
ATOM      2  O   UNL     1      42.690 -16.189 -16.345  0.00  0.00    -0.296 OA
ATOM      3  C   UNL     1      41.755 -15.394 -16.271  0.00  0.00    +0.154 C 
ATOM      4  C   UNL     1      41.347 -14.564 -17.459  0.00  0.00    +0.072 C 
ENDBRANCH   1   3
BRANCH   1   5
ATOM      5  C   UNL     1      40.902 -13.732 -14.555  0.00  0.00    +0.145 C 
BRANCH   5   6
ATOM      6  O   UNL     1      40.944 -13.645 -13.136  0.00  0.00    -0.382 OA
ATOM      7  H   UNL     1      41.602 -12.984 -12.872  0.00  0.00    +0.210 HD
ENDBRANCH   5   6
ENDBRANCH   1   5
TORSDOF 3
ENDMDL
MODEL 3
REMARK VINA RESULT:      -3.8     10.228     11.643
REMARK  Name = 111509
REMARK  3 active torsions:
REMARK  status: ('A' for Active; 'I' for Inactive)
REMARK    1  A    between atoms: C_1  and  C_3
REMARK    2  A    between atoms: C_1  and  C_5
REMARK    3  A    between atoms: C_5  and  O_6
REMARK                            x       y       z     vdW  Elec       q    Type
REMARK                         _______ _______ _______ _____ _____    ______ ____
ROOT
ATOM      1  C   UNL     1      28.031 -22.547 -15.818  0.00  0.00    +0.096 C 
ENDROOT
BRANCH   1   3
ATOM      2  O   UNL     1      27.789 -24.242 -17.528  0.00  0.00    -0.296 OA
ATOM      3  C   UNL     1      28.366 -23.857 -16.513  0.00  0.00    +0.154 C 
ATOM      4  C   UNL     1      29.464 -24.677 -15.887  0.00  0.00    +0.072 C 
ENDBRANCH   1   3
BRANCH   1   5
ATOM      5  C   UNL     1      26.677 -21.987 -16.226  0.00  0.00    +0.145 C 
BRANCH   5   6
ATOM      6  O   UNL     1      26.775 -21.305 -17.470  0.00  0.00    -0.382 OA
ATOM      7  H   UNL     1      27.706 -21.118 -17.663  0.00  0.00    +0.210 HD
ENDBRANCH   5   6
ENDBRANCH   1   5
TORSDOF 3
ENDMDL
MODEL 4
REMARK VINA RESULT:      -3.8      4.217      5.128
REMARK  Name = 111509
REMARK  3 active torsions:
REMARK  status: ('A' for Active; 'I' for Inactive)
REMARK    1  A    between atoms: C_1  and  C_3
REMARK    2  A    between atoms: C_1  and  C_5
REMARK    3  A    between atoms: C_5  and  O_6
REMARK                            x       y       z     vdW  Elec       q    Type
REMARK                         _______ _______ _______ _____ _____    ______ ____
ROOT
ATOM      1  C   UNL     1      36.374 -23.643 -12.236  0.00  0.00    +0.096 C 
ENDROOT
BRANCH   1   3
ATOM      2  O   UNL     1      38.626 -23.029 -11.595  0.00  0.00    -0.296 OA
ATOM      3  C   UNL     1      37.883 -23.822 -12.171  0.00  0.00    +0.154 C 
ATOM      4  C   UNL     1      38.435 -25.043 -12.859  0.00  0.00    +0.072 C 
ENDBRANCH   1   3
BRANCH   1   5
ATOM      5  C   UNL     1      35.644 -24.330 -11.091  0.00  0.00    +0.145 C 
BRANCH   5   6
ATOM      6  O   UNL     1      36.303 -24.075  -9.858  0.00  0.00    -0.382 OA
ATOM      7  H   UNL     1      37.189 -24.469  -9.877  0.00  0.00    +0.210 HD
ENDBRANCH   5   6
ENDBRANCH   1   5
TORSDOF 3
ENDMDL
MODEL 5
REMARK VINA RESULT:      -3.7      9.365      9.945
REMARK  Name = 111509
REMARK  3 active torsions:
REMARK  status: ('A' for Active; 'I' for Inactive)
REMARK    1  A    between atoms: C_1  and  C_3
REMARK    2  A    between atoms: C_1  and  C_5
REMARK    3  A    between atoms: C_5  and  O_6
REMARK                            x       y       z     vdW  Elec       q    Type
REMARK                         _______ _______ _______ _____ _____    ______ ____
ROOT
ATOM      1  C   UNL     1      34.683 -19.362 -22.020  0.00  0.00    +0.096 C 
ENDROOT
BRANCH   1   3
ATOM      2  O   UNL     1      35.325 -20.353 -19.908  0.00  0.00    -0.296 OA
ATOM      3  C   UNL     1      34.425 -20.043 -20.686  0.00  0.00    +0.154 C 
ATOM      4  C   UNL     1      32.982 -20.322 -20.354  0.00  0.00    +0.072 C 
ENDBRANCH   1   3
BRANCH   1   5
ATOM      5  C   UNL     1      35.624 -18.171 -21.908  0.00  0.00    +0.145 C 
BRANCH   5   6
ATOM      6  O   UNL     1      35.419 -17.490 -20.677  0.00  0.00    -0.382 OA
ATOM      7  H   UNL     1      35.383 -18.134 -19.953  0.00  0.00    +0.210 HD
ENDBRANCH   5   6
ENDBRANCH   1   5
TORSDOF 3
ENDMDL
MODEL 6
REMARK VINA RESULT:      -3.7      7.930      8.620
REMARK  Name = 111509
REMARK  3 active torsions:
REMARK  status: ('A' for Active; 'I' for Inactive)
REMARK    1  A    between atoms: C_1  and  C_3
REMARK    2  A    between atoms: C_1  and  C_5
REMARK    3  A    between atoms: C_5  and  O_6
REMARK                            x       y       z     vdW  Elec       q    Type
REMARK                         _______ _______ _______ _____ _____    ______ ____
ROOT
ATOM      1  C   UNL     1      34.862 -21.289 -19.640  0.00  0.00    +0.096 C 
ENDROOT
BRANCH   1   3
ATOM      2  O   UNL     1      32.531 -20.861 -20.131  0.00  0.00    -0.296 OA
ATOM      3  C   UNL     1      33.707 -20.529 -20.271  0.00  0.00    +0.154 C 
ATOM      4  C   UNL     1      34.079 -19.322 -21.092  0.00  0.00    +0.072 C 
ENDBRANCH   1   3
BRANCH   1   5
ATOM      5  C   UNL     1      34.404 -22.403 -18.711  0.00  0.00    +0.145 C 
BRANCH   5   6
ATOM      6  O   UNL     1      33.932 -23.515 -19.462  0.00  0.00    -0.382 OA
ATOM      7  H   UNL     1      34.534 -23.683 -20.202  0.00  0.00    +0.210 HD
ENDBRANCH   5   6
ENDBRANCH   1   5
TORSDOF 3
ENDMDL
MODEL 7
REMARK VINA RESULT:      -3.7     10.981     11.580
REMARK  Name = 111509
REMARK  3 active torsions:
REMARK  status: ('A' for Active; 'I' for Inactive)
REMARK    1  A    between atoms: C_1  and  C_3
REMARK    2  A    between atoms: C_1  and  C_5
REMARK    3  A    between atoms: C_5  and  O_6
REMARK                            x       y       z     vdW  Elec       q    Type
REMARK                         _______ _______ _______ _____ _____    ______ ____
ROOT
ATOM      1  C   UNL     1      35.318 -18.657 -22.944  0.00  0.00    +0.096 C 
ENDROOT
BRANCH   1   3
ATOM      2  O   UNL     1      35.397 -17.655 -20.742  0.00  0.00    -0.296 OA
ATOM      3  C   UNL     1      34.923 -18.516 -21.483  0.00  0.00    +0.154 C 
ATOM      4  C   UNL     1      33.901 -19.499 -20.975  0.00  0.00    +0.072 C 
ENDBRANCH   1   3
BRANCH   1   5
ATOM      5  C   UNL     1      34.935 -17.446 -23.783  0.00  0.00    +0.145 C 
BRANCH   5   6
ATOM      6  O   UNL     1      35.710 -16.315 -23.407  0.00  0.00    -0.382 OA
ATOM      7  H   UNL     1      35.141 -15.531 -23.373  0.00  0.00    +0.210 HD
ENDBRANCH   5   6
ENDBRANCH   1   5
TORSDOF 3
ENDMDL
MODEL 8
REMARK VINA RESULT:      -3.6      1.703      3.217
REMARK  Name = 111509
REMARK  3 active torsions:
REMARK  status: ('A' for Active; 'I' for Inactive)
REMARK    1  A    between atoms: C_1  and  C_3
REMARK    2  A    between atoms: C_1  and  C_5
REMARK    3  A    between atoms: C_5  and  O_6
REMARK                            x       y       z     vdW  Elec       q    Type
REMARK                         _______ _______ _______ _____ _____    ______ ____
ROOT
ATOM      1  C   UNL     1      37.974 -24.846 -13.571  0.00  0.00    +0.096 C 
ENDROOT
BRANCH   1   3
ATOM      2  O   UNL     1      38.297 -27.004 -14.618  0.00  0.00    -0.296 OA
ATOM      3  C   UNL     1      38.793 -25.955 -14.210  0.00  0.00    +0.154 C 
ATOM      4  C   UNL     1      40.274 -25.702 -14.326  0.00  0.00    +0.072 C 
ENDBRANCH   1   3
BRANCH   1   5
ATOM      5  C   UNL     1      36.731 -25.361 -12.858  0.00  0.00    +0.145 C 
BRANCH   5   6
ATOM      6  O   UNL     1      37.072 -26.405 -11.956  0.00  0.00    -0.382 OA
ATOM      7  H   UNL     1      37.921 -26.203 -11.533  0.00  0.00    +0.210 HD
ENDBRANCH   5   6
ENDBRANCH   1   5
TORSDOF 3
ENDMDL
MODEL 9
REMARK VINA RESULT:      -3.6      9.532     10.372
REMARK  Name = 111509
REMARK  3 active torsions:
REMARK  status: ('A' for Active; 'I' for Inactive)
REMARK    1  A    between atoms: C_1  and  C_3
REMARK    2  A    between atoms: C_1  and  C_5
REMARK    3  A    between atoms: C_5  and  O_6
REMARK                            x       y       z     vdW  Elec       q    Type
REMARK                         _______ _______ _______ _____ _____    ______ ____
ROOT
ATOM      1  C   UNL     1      34.483 -20.130 -20.637  0.00  0.00    +0.096 C 
ENDROOT
BRANCH   1   3
ATOM      2  O   UNL     1      35.502 -17.935 -20.690  0.00  0.00    -0.296 OA
ATOM      3  C   UNL     1      35.041 -18.889 -21.315  0.00  0.00    +0.154 C 
ATOM      4  C   UNL     1      35.005 -18.884 -22.821  0.00  0.00    +0.072 C 
ENDBRANCH   1   3
BRANCH   1   5
ATOM      5  C   UNL     1      32.965 -20.122 -20.538  0.00  0.00    +0.145 C 
BRANCH   5   6
ATOM      6  O   UNL     1      32.537 -20.848 -19.393  0.00  0.00    -0.382 OA
ATOM      7  H   UNL     1      33.294 -21.005 -18.808  0.00  0.00    +0.210 HD
ENDBRANCH   5   6
ENDBRANCH   1   5
TORSDOF 3
ENDMDL
