MODEL 1
REMARK VINA RESULT:      -8.5      0.000      0.000
REMARK  Name = 5288033
REMARK  7 active torsions:
REMARK  status: ('A' for Active; 'I' for Inactive)
REMARK    1  A    between atoms: C_5  and  C_14
REMARK    2  A    between atoms: C_6  and  O_12
REMARK    3  A    between atoms: C_14  and  C_15
REMARK    4  A    between atoms: C_15  and  C_16
REMARK    5  A    between atoms: C_16  and  C_17
REMARK    6  A    between atoms: C_17  and  C_18
REMARK    7  A    between atoms: C_18  and  C_19
REMARK                            x       y       z     vdW  Elec       q    Type
REMARK                         _______ _______ _______ _____ _____    ______ ____
ROOT
ATOM      1  S   UNL     1      32.902 -13.555 -24.963  0.00  0.00    -0.101 S 
ATOM      2  O   UNL     1      35.025 -16.155 -21.114  0.00  0.00    -0.284 OA
ATOM      3  O   UNL     1      33.825 -13.926 -21.953  0.00  0.00    -0.287 OA
ATOM      4  N   UNL     1      33.507 -15.688 -26.313  0.00  0.00    -0.258 NA
ATOM      5  C   UNL     1      34.949 -17.215 -23.271  0.00  0.00    +0.054 C 
ATOM      6  C   UNL     1      34.557 -17.058 -24.556  0.00  0.00    +0.147 C 
ATOM      7  C   UNL     1      34.699 -16.093 -22.293  0.00  0.00    +0.230 C 
ATOM      8  C   UNL     1      33.915 -15.870 -25.012  0.00  0.00    +0.105 C 
ATOM      9  C   UNL     1      33.673 -14.831 -24.148  0.00  0.00    +0.157 C 
ATOM     10  C   UNL     1      34.018 -14.821 -22.761  0.00  0.00    +0.227 C 
ATOM     11  C   UNL     1      32.955 -14.495 -26.407  0.00  0.00    +0.183 C 
ENDROOT
BRANCH   6  12
ATOM     12  O   UNL     1      34.724 -18.001 -25.547  0.00  0.00    -0.505 OA
ATOM     13  H   UNL     1      35.554 -18.421 -25.657  0.00  0.00    +0.292 HD
ENDBRANCH   6  12
BRANCH   5  14
ATOM     14  C   UNL     1      35.624 -18.412 -22.689  0.00  0.00    +0.033 C 
BRANCH  14  15
ATOM     15  C   UNL     1      34.673 -19.578 -22.411  0.00  0.00    +0.005 C 
BRANCH  15  16
ATOM     16  C   UNL     1      33.694 -19.368 -21.249  0.00  0.00    +0.000 C 
BRANCH  16  17
ATOM     17  C   UNL     1      33.705 -20.510 -20.232  0.00  0.00    +0.000 C 
BRANCH  17  18
ATOM     18  C   UNL     1      35.128 -21.018 -19.985  0.00  0.00    +0.000 C 
BRANCH  18  19
ATOM     19  C   UNL     1      35.180 -21.965 -18.787  0.00  0.00    +0.000 C 
ATOM     20  C   UNL     1      33.817 -22.576 -18.501  0.00  0.00    +0.000 C 
ENDBRANCH  18  19
ENDBRANCH  17  18
ENDBRANCH  16  17
ENDBRANCH  15  16
ENDBRANCH  14  15
ENDBRANCH   5  14
TORSDOF 7
ENDMDL
MODEL 2
REMARK VINA RESULT:      -8.3      1.555      2.757
REMARK  Name = 5288033
REMARK  7 active torsions:
REMARK  status: ('A' for Active; 'I' for Inactive)
REMARK    1  A    between atoms: C_5  and  C_14
REMARK    2  A    between atoms: C_6  and  O_12
REMARK    3  A    between atoms: C_14  and  C_15
REMARK    4  A    between atoms: C_15  and  C_16
REMARK    5  A    between atoms: C_16  and  C_17
REMARK    6  A    between atoms: C_17  and  C_18
REMARK    7  A    between atoms: C_18  and  C_19
REMARK                            x       y       z     vdW  Elec       q    Type
REMARK                         _______ _______ _______ _____ _____    ______ ____
ROOT
ATOM      1  S   UNL     1      33.300 -14.133 -24.766  0.00  0.00    -0.101 S 
ATOM      2  O   UNL     1      35.413 -18.756 -24.279  0.00  0.00    -0.284 OA
ATOM      3  O   UNL     1      34.303 -16.929 -25.873  0.00  0.00    -0.287 OA
ATOM      4  N   UNL     1      33.751 -14.011 -22.212  0.00  0.00    -0.258 NA
ATOM      5  C   UNL     1      35.216 -17.405 -22.301  0.00  0.00    +0.054 C 
ATOM      6  C   UNL     1      34.787 -16.212 -21.827  0.00  0.00    +0.147 C 
ATOM      7  C   UNL     1      35.055 -17.701 -23.772  0.00  0.00    +0.230 C 
ATOM      8  C   UNL     1      34.193 -15.230 -22.671  0.00  0.00    +0.105 C 
ATOM      9  C   UNL     1      34.032 -15.469 -24.014  0.00  0.00    +0.157 C 
ATOM     10  C   UNL     1      34.423 -16.668 -24.686  0.00  0.00    +0.227 C 
ATOM     11  C   UNL     1      33.257 -13.342 -23.235  0.00  0.00    +0.183 C 
ENDROOT
BRANCH   6  12
ATOM     12  O   UNL     1      34.874 -15.815 -20.510  0.00  0.00    -0.505 OA
ATOM     13  H   UNL     1      34.094 -15.633 -20.024  0.00  0.00    +0.292 HD
ENDBRANCH   6  12
BRANCH   5  14
ATOM     14  C   UNL     1      35.850 -18.498 -21.509  0.00  0.00    +0.033 C 
BRANCH  14  15
ATOM     15  C   UNL     1      35.000 -19.768 -21.426  0.00  0.00    +0.005 C 
BRANCH  15  16
ATOM     16  C   UNL     1      33.655 -19.614 -20.705  0.00  0.00    +0.000 C 
BRANCH  16  17
ATOM     17  C   UNL     1      33.304 -20.806 -19.812  0.00  0.00    +0.000 C 
BRANCH  17  18
ATOM     18  C   UNL     1      34.420 -21.854 -19.825  0.00  0.00    +0.000 C 
BRANCH  18  19
ATOM     19  C   UNL     1      35.067 -21.995 -18.448  0.00  0.00    +0.000 C 
ATOM     20  C   UNL     1      36.526 -21.566 -18.472  0.00  0.00    +0.000 C 
ENDBRANCH  18  19
ENDBRANCH  17  18
ENDBRANCH  16  17
ENDBRANCH  15  16
ENDBRANCH  14  15
ENDBRANCH   5  14
TORSDOF 7
ENDMDL
MODEL 3
REMARK VINA RESULT:      -8.2      3.807      8.035
REMARK  Name = 5288033
REMARK  7 active torsions:
REMARK  status: ('A' for Active; 'I' for Inactive)
REMARK    1  A    between atoms: C_5  and  C_14
REMARK    2  A    between atoms: C_6  and  O_12
REMARK    3  A    between atoms: C_14  and  C_15
REMARK    4  A    between atoms: C_15  and  C_16
REMARK    5  A    between atoms: C_16  and  C_17
REMARK    6  A    between atoms: C_17  and  C_18
REMARK    7  A    between atoms: C_18  and  C_19
REMARK                            x       y       z     vdW  Elec       q    Type
REMARK                         _______ _______ _______ _____ _____    ______ ____
ROOT
ATOM      1  S   UNL     1      35.518 -18.603 -22.912  0.00  0.00    -0.101 S 
ATOM      2  O   UNL     1      33.652 -15.349 -26.376  0.00  0.00    -0.284 OA
ATOM      3  O   UNL     1      34.700 -17.744 -25.852  0.00  0.00    -0.287 OA
ATOM      4  N   UNL     1      34.997 -16.657 -21.275  0.00  0.00    -0.258 NA
ATOM      5  C   UNL     1      33.725 -14.621 -24.086  0.00  0.00    +0.054 C 
ATOM      6  C   UNL     1      34.074 -14.986 -22.831  0.00  0.00    +0.147 C 
ATOM      7  C   UNL     1      33.939 -15.602 -25.214  0.00  0.00    +0.230 C 
ATOM      8  C   UNL     1      34.635 -16.264 -22.542  0.00  0.00    +0.105 C 
ATOM      9  C   UNL     1      34.843 -17.178 -23.545  0.00  0.00    +0.157 C 
ATOM     10  C   UNL     1      34.536 -16.966 -24.924  0.00  0.00    +0.227 C 
ATOM     11  C   UNL     1      35.479 -17.881 -21.347  0.00  0.00    +0.183 C 
ENDROOT
BRANCH   6  12
ATOM     12  O   UNL     1      33.932 -14.190 -21.715  0.00  0.00    -0.505 OA
ATOM     13  H   UNL     1      34.408 -13.385 -21.652  0.00  0.00    +0.292 HD
ENDBRANCH   6  12
BRANCH   5  14
ATOM     14  C   UNL     1      33.131 -13.316 -24.498  0.00  0.00    +0.033 C 
BRANCH  14  15
ATOM     15  C   UNL     1      33.990 -12.105 -24.121  0.00  0.00    +0.005 C 
BRANCH  15  16
ATOM     16  C   UNL     1      34.335 -11.157 -25.276  0.00  0.00    +0.000 C 
BRANCH  16  17
ATOM     17  C   UNL     1      35.011  -9.863 -24.818  0.00  0.00    +0.000 C 
BRANCH  17  18
ATOM     18  C   UNL     1      34.204  -9.180 -23.710  0.00  0.00    +0.000 C 
BRANCH  18  19
ATOM     19  C   UNL     1      34.718  -7.767 -23.439  0.00  0.00    +0.000 C 
ATOM     20  C   UNL     1      34.503  -6.857 -24.639  0.00  0.00    +0.000 C 
ENDBRANCH  18  19
ENDBRANCH  17  18
ENDBRANCH  16  17
ENDBRANCH  15  16
ENDBRANCH  14  15
ENDBRANCH   5  14
TORSDOF 7
ENDMDL
MODEL 4
REMARK VINA RESULT:      -8.1      3.647      7.069
REMARK  Name = 5288033
REMARK  7 active torsions:
REMARK  status: ('A' for Active; 'I' for Inactive)
REMARK    1  A    between atoms: C_5  and  C_14
REMARK    2  A    between atoms: C_6  and  O_12
REMARK    3  A    between atoms: C_14  and  C_15
REMARK    4  A    between atoms: C_15  and  C_16
REMARK    5  A    between atoms: C_16  and  C_17
REMARK    6  A    between atoms: C_17  and  C_18
REMARK    7  A    between atoms: C_18  and  C_19
REMARK                            x       y       z     vdW  Elec       q    Type
REMARK                         _______ _______ _______ _____ _____    ______ ____
ROOT
ATOM      1  S   UNL     1      35.228 -19.024 -23.120  0.00  0.00    -0.101 S 
ATOM      2  O   UNL     1      33.520 -14.705 -25.242  0.00  0.00    -0.284 OA
ATOM      3  O   UNL     1      34.148 -17.280 -25.537  0.00  0.00    -0.287 OA
ATOM      4  N   UNL     1      35.358 -17.547 -20.989  0.00  0.00    -0.258 NA
ATOM      5  C   UNL     1      34.088 -14.653 -22.907  0.00  0.00    +0.054 C 
ATOM      6  C   UNL     1      34.550 -15.396 -21.875  0.00  0.00    +0.147 C 
ATOM      7  C   UNL     1      33.929 -15.307 -24.258  0.00  0.00    +0.230 C 
ATOM      8  C   UNL     1      34.888 -16.772 -22.023  0.00  0.00    +0.105 C 
ATOM      9  C   UNL     1      34.755 -17.397 -23.239  0.00  0.00    +0.157 C 
ATOM     10  C   UNL     1      34.285 -16.771 -24.435  0.00  0.00    +0.227 C 
ATOM     11  C   UNL     1      35.575 -18.762 -21.451  0.00  0.00    +0.183 C 
ENDROOT
BRANCH   6  12
ATOM     12  O   UNL     1      34.741 -14.924 -20.594  0.00  0.00    -0.505 OA
ATOM     13  H   UNL     1      34.985 -15.516 -19.909  0.00  0.00    +0.292 HD
ENDBRANCH   6  12
BRANCH   5  14
ATOM     14  C   UNL     1      33.705 -13.212 -22.862  0.00  0.00    +0.033 C 
BRANCH  14  15
ATOM     15  C   UNL     1      32.243 -12.978 -22.471  0.00  0.00    +0.005 C 
BRANCH  15  16
ATOM     16  C   UNL     1      31.999 -12.680 -20.986  0.00  0.00    +0.000 C 
BRANCH  16  17
ATOM     17  C   UNL     1      31.080 -11.479 -20.751  0.00  0.00    +0.000 C 
BRANCH  17  18
ATOM     18  C   UNL     1      31.440 -10.753 -19.452  0.00  0.00    +0.000 C 
BRANCH  18  19
ATOM     19  C   UNL     1      32.041  -9.376 -19.733  0.00  0.00    +0.000 C 
ATOM     20  C   UNL     1      32.061  -9.072 -21.223  0.00  0.00    +0.000 C 
ENDBRANCH  18  19
ENDBRANCH  17  18
ENDBRANCH  16  17
ENDBRANCH  15  16
ENDBRANCH  14  15
ENDBRANCH   5  14
TORSDOF 7
ENDMDL
MODEL 5
REMARK VINA RESULT:      -7.9      5.850      9.093
REMARK  Name = 5288033
REMARK  7 active torsions:
REMARK  status: ('A' for Active; 'I' for Inactive)
REMARK    1  A    between atoms: C_5  and  C_14
REMARK    2  A    between atoms: C_6  and  O_12
REMARK    3  A    between atoms: C_14  and  C_15
REMARK    4  A    between atoms: C_15  and  C_16
REMARK    5  A    between atoms: C_16  and  C_17
REMARK    6  A    between atoms: C_17  and  C_18
REMARK    7  A    between atoms: C_18  and  C_19
REMARK                            x       y       z     vdW  Elec       q    Type
REMARK                         _______ _______ _______ _____ _____    ______ ____
ROOT
ATOM      1  S   UNL     1      35.553 -23.509 -14.290  0.00  0.00    -0.101 S 
ATOM      2  O   UNL     1      36.716 -21.468 -18.824  0.00  0.00    -0.284 OA
ATOM      3  O   UNL     1      37.518 -22.150 -16.373  0.00  0.00    -0.287 OA
ATOM      4  N   UNL     1      33.213 -23.793 -15.378  0.00  0.00    -0.258 NA
ATOM      5  C   UNL     1      34.468 -22.256 -18.498  0.00  0.00    +0.054 C 
ATOM      6  C   UNL     1      33.629 -22.835 -17.609  0.00  0.00    +0.147 C 
ATOM      7  C   UNL     1      35.895 -21.990 -18.081  0.00  0.00    +0.230 C 
ATOM      8  C   UNL     1      34.049 -23.202 -16.298  0.00  0.00    +0.105 C 
ATOM      9  C   UNL     1      35.339 -22.974 -15.888  0.00  0.00    +0.157 C 
ATOM     10  C   UNL     1      36.359 -22.374 -16.689  0.00  0.00    +0.227 C 
ATOM     11  C   UNL     1      33.901 -24.002 -14.274  0.00  0.00    +0.183 C 
ENDROOT
BRANCH   6  12
ATOM     12  O   UNL     1      32.306 -23.132 -17.859  0.00  0.00    -0.505 OA
ATOM     13  H   UNL     1      31.677 -23.084 -17.167  0.00  0.00    +0.292 HD
ENDBRANCH   6  12
BRANCH   5  14
ATOM     14  C   UNL     1      34.135 -21.835 -19.889  0.00  0.00    +0.033 C 
BRANCH  14  15
ATOM     15  C   UNL     1      33.281 -20.566 -19.958  0.00  0.00    +0.005 C 
BRANCH  15  16
ATOM     16  C   UNL     1      33.633 -19.596 -21.093  0.00  0.00    +0.000 C 
BRANCH  16  17
ATOM     17  C   UNL     1      35.109 -19.193 -21.111  0.00  0.00    +0.000 C 
BRANCH  17  18
ATOM     18  C   UNL     1      35.492 -18.557 -22.450  0.00  0.00    +0.000 C 
BRANCH  18  19
ATOM     19  C   UNL     1      34.845 -19.296 -23.621  0.00  0.00    +0.000 C 
ATOM     20  C   UNL     1      34.507 -18.346 -24.760  0.00  0.00    +0.000 C 
ENDBRANCH  18  19
ENDBRANCH  17  18
ENDBRANCH  16  17
ENDBRANCH  15  16
ENDBRANCH  14  15
ENDBRANCH   5  14
TORSDOF 7
ENDMDL
MODEL 6
REMARK VINA RESULT:      -7.8      7.916     11.560
REMARK  Name = 5288033
REMARK  7 active torsions:
REMARK  status: ('A' for Active; 'I' for Inactive)
REMARK    1  A    between atoms: C_5  and  C_14
REMARK    2  A    between atoms: C_6  and  O_12
REMARK    3  A    between atoms: C_14  and  C_15
REMARK    4  A    between atoms: C_15  and  C_16
REMARK    5  A    between atoms: C_16  and  C_17
REMARK    6  A    between atoms: C_17  and  C_18
REMARK    7  A    between atoms: C_18  and  C_19
REMARK                            x       y       z     vdW  Elec       q    Type
REMARK                         _______ _______ _______ _____ _____    ______ ____
ROOT
ATOM      1  S   UNL     1      39.041 -25.635 -13.078  0.00  0.00    -0.101 S 
ATOM      2  O   UNL     1      34.130 -24.262 -12.821  0.00  0.00    -0.284 OA
ATOM      3  O   UNL     1      36.191 -25.526 -11.696  0.00  0.00    -0.287 OA
ATOM      4  N   UNL     1      38.951 -24.347 -15.331  0.00  0.00    -0.258 NA
ATOM      5  C   UNL     1      35.384 -23.568 -14.751  0.00  0.00    +0.054 C 
ATOM      6  C   UNL     1      36.600 -23.614 -15.342  0.00  0.00    +0.147 C 
ATOM      7  C   UNL     1      35.197 -24.255 -13.420  0.00  0.00    +0.230 C 
ATOM      8  C   UNL     1      37.706 -24.287 -14.748  0.00  0.00    +0.105 C 
ATOM      9  C   UNL     1      37.570 -24.922 -13.539  0.00  0.00    +0.157 C 
ATOM     10  C   UNL     1      36.364 -24.978 -12.773  0.00  0.00    +0.227 C 
ATOM     11  C   UNL     1      39.743 -25.038 -14.535  0.00  0.00    +0.183 C 
ENDROOT
BRANCH   6  12
ATOM     12  O   UNL     1      36.905 -23.031 -16.553  0.00  0.00    -0.505 OA
ATOM     13  H   UNL     1      36.217 -22.777 -17.137  0.00  0.00    +0.292 HD
ENDBRANCH   6  12
BRANCH   5  14
ATOM     14  C   UNL     1      34.164 -22.892 -15.282  0.00  0.00    +0.033 C 
BRANCH  14  15
ATOM     15  C   UNL     1      33.445 -23.693 -16.371  0.00  0.00    +0.005 C 
BRANCH  15  16
ATOM     16  C   UNL     1      32.906 -22.868 -17.546  0.00  0.00    +0.000 C 
BRANCH  16  17
ATOM     17  C   UNL     1      33.926 -22.674 -18.670  0.00  0.00    +0.000 C 
BRANCH  17  18
ATOM     18  C   UNL     1      33.514 -21.529 -19.600  0.00  0.00    +0.000 C 
BRANCH  18  19
ATOM     19  C   UNL     1      34.724 -20.705 -20.037  0.00  0.00    +0.000 C 
ATOM     20  C   UNL     1      36.023 -21.312 -19.530  0.00  0.00    +0.000 C 
ENDBRANCH  18  19
ENDBRANCH  17  18
ENDBRANCH  16  17
ENDBRANCH  15  16
ENDBRANCH  14  15
ENDBRANCH   5  14
TORSDOF 7
ENDMDL
MODEL 7
REMARK VINA RESULT:      -7.8      5.777      9.127
REMARK  Name = 5288033
REMARK  7 active torsions:
REMARK  status: ('A' for Active; 'I' for Inactive)
REMARK    1  A    between atoms: C_5  and  C_14
REMARK    2  A    between atoms: C_6  and  O_12
REMARK    3  A    between atoms: C_14  and  C_15
REMARK    4  A    between atoms: C_15  and  C_16
REMARK    5  A    between atoms: C_16  and  C_17
REMARK    6  A    between atoms: C_17  and  C_18
REMARK    7  A    between atoms: C_18  and  C_19
REMARK                            x       y       z     vdW  Elec       q    Type
REMARK                         _______ _______ _______ _____ _____    ______ ____
ROOT
ATOM      1  S   UNL     1      35.780 -23.452 -14.324  0.00  0.00    -0.101 S 
ATOM      2  O   UNL     1      32.018 -23.042 -17.753  0.00  0.00    -0.284 OA
ATOM      3  O   UNL     1      32.776 -23.742 -15.293  0.00  0.00    -0.287 OA
ATOM      4  N   UNL     1      37.213 -22.476 -16.256  0.00  0.00    -0.258 NA
ATOM      5  C   UNL     1      34.220 -22.346 -18.422  0.00  0.00    +0.054 C 
ATOM      6  C   UNL     1      35.503 -22.222 -18.009  0.00  0.00    +0.147 C 
ATOM      7  C   UNL     1      33.197 -22.896 -17.458  0.00  0.00    +0.230 C 
ATOM      8  C   UNL     1      35.916 -22.594 -16.697  0.00  0.00    +0.105 C 
ATOM      9  C   UNL     1      35.011 -23.098 -15.797  0.00  0.00    +0.157 C 
ATOM     10  C   UNL     1      33.620 -23.298 -16.057  0.00  0.00    +0.227 C 
ATOM     11  C   UNL     1      37.263 -22.902 -15.009  0.00  0.00    +0.183 C 
ENDROOT
BRANCH   6  12
ATOM     12  O   UNL     1      36.532 -21.735 -18.786  0.00  0.00    -0.505 OA
ATOM     13  H   UNL     1      36.562 -21.934 -19.701  0.00  0.00    +0.292 HD
ENDBRANCH   6  12
BRANCH   5  14
ATOM     14  C   UNL     1      33.681 -21.987 -19.766  0.00  0.00    +0.033 C 
BRANCH  14  15
ATOM     15  C   UNL     1      33.210 -20.534 -19.871  0.00  0.00    +0.005 C 
BRANCH  15  16
ATOM     16  C   UNL     1      33.585 -19.813 -21.172  0.00  0.00    +0.000 C 
BRANCH  16  17
ATOM     17  C   UNL     1      35.058 -19.408 -21.239  0.00  0.00    +0.000 C 
BRANCH  17  18
ATOM     18  C   UNL     1      35.353 -18.602 -22.507  0.00  0.00    +0.000 C 
BRANCH  18  19
ATOM     19  C   UNL     1      34.729 -19.257 -23.739  0.00  0.00    +0.000 C 
ATOM     20  C   UNL     1      34.529 -18.252 -24.862  0.00  0.00    +0.000 C 
ENDBRANCH  18  19
ENDBRANCH  17  18
ENDBRANCH  16  17
ENDBRANCH  15  16
ENDBRANCH  14  15
ENDBRANCH   5  14
TORSDOF 7
ENDMDL
MODEL 8
REMARK VINA RESULT:      -7.8      3.391      6.463
REMARK  Name = 5288033
REMARK  7 active torsions:
REMARK  status: ('A' for Active; 'I' for Inactive)
REMARK    1  A    between atoms: C_5  and  C_14
REMARK    2  A    between atoms: C_6  and  O_12
REMARK    3  A    between atoms: C_14  and  C_15
REMARK    4  A    between atoms: C_15  and  C_16
REMARK    5  A    between atoms: C_16  and  C_17
REMARK    6  A    between atoms: C_17  and  C_18
REMARK    7  A    between atoms: C_18  and  C_19
REMARK                            x       y       z     vdW  Elec       q    Type
REMARK                         _______ _______ _______ _____ _____    ______ ____
ROOT
ATOM      1  S   UNL     1      35.100 -19.262 -23.837  0.00  0.00    -0.101 S 
ATOM      2  O   UNL     1      34.997 -15.961 -19.943  0.00  0.00    -0.284 OA
ATOM      3  O   UNL     1      35.558 -18.418 -20.817  0.00  0.00    -0.287 OA
ATOM      4  N   UNL     1      34.152 -17.239 -25.159  0.00  0.00    -0.258 NA
ATOM      5  C   UNL     1      34.242 -15.181 -22.089  0.00  0.00    +0.054 C 
ATOM      6  C   UNL     1      34.046 -15.541 -23.378  0.00  0.00    +0.147 C 
ATOM      7  C   UNL     1      34.793 -16.205 -21.125  0.00  0.00    +0.230 C 
ATOM      8  C   UNL     1      34.343 -16.851 -23.853  0.00  0.00    +0.105 C 
ATOM      9  C   UNL     1      34.844 -17.805 -23.003  0.00  0.00    +0.157 C 
ATOM     10  C   UNL     1      35.114 -17.605 -21.614  0.00  0.00    +0.227 C 
ATOM     11  C   UNL     1      34.519 -18.500 -25.270  0.00  0.00    +0.183 C 
ENDROOT
BRANCH   6  12
ATOM     12  O   UNL     1      33.551 -14.707 -24.357  0.00  0.00    -0.505 OA
ATOM     13  H   UNL     1      33.603 -14.961 -25.258  0.00  0.00    +0.292 HD
ENDBRANCH   6  12
BRANCH   5  14
ATOM     14  C   UNL     1      33.968 -13.843 -21.488  0.00  0.00    +0.033 C 
BRANCH  14  15
ATOM     15  C   UNL     1      32.486 -13.594 -21.197  0.00  0.00    +0.005 C 
BRANCH  15  16
ATOM     16  C   UNL     1      31.802 -12.563 -22.104  0.00  0.00    +0.000 C 
BRANCH  16  17
ATOM     17  C   UNL     1      31.286 -11.337 -21.348  0.00  0.00    +0.000 C 
BRANCH  17  18
ATOM     18  C   UNL     1      31.529 -11.473 -19.842  0.00  0.00    +0.000 C 
BRANCH  18  19
ATOM     19  C   UNL     1      31.443 -10.118 -19.141  0.00  0.00    +0.000 C 
ATOM     20  C   UNL     1      32.151  -9.033 -19.938  0.00  0.00    +0.000 C 
ENDBRANCH  18  19
ENDBRANCH  17  18
ENDBRANCH  16  17
ENDBRANCH  15  16
ENDBRANCH  14  15
ENDBRANCH   5  14
TORSDOF 7
ENDMDL
MODEL 9
REMARK VINA RESULT:      -7.7      7.971     11.586
REMARK  Name = 5288033
REMARK  7 active torsions:
REMARK  status: ('A' for Active; 'I' for Inactive)
REMARK    1  A    between atoms: C_5  and  C_14
REMARK    2  A    between atoms: C_6  and  O_12
REMARK    3  A    between atoms: C_14  and  C_15
REMARK    4  A    between atoms: C_15  and  C_16
REMARK    5  A    between atoms: C_16  and  C_17
REMARK    6  A    between atoms: C_17  and  C_18
REMARK    7  A    between atoms: C_18  and  C_19
REMARK                            x       y       z     vdW  Elec       q    Type
REMARK                         _______ _______ _______ _____ _____    ______ ____
ROOT
ATOM      1  S   UNL     1      38.821 -25.352 -13.145  0.00  0.00    -0.101 S 
ATOM      2  O   UNL     1      36.351 -22.448 -16.541  0.00  0.00    -0.284 OA
ATOM      3  O   UNL     1      38.662 -23.472 -15.692  0.00  0.00    -0.287 OA
ATOM      4  N   UNL     1      36.441 -25.656 -12.154  0.00  0.00    -0.258 NA
ATOM      5  C   UNL     1      35.051 -23.486 -14.805  0.00  0.00    +0.054 C 
ATOM      6  C   UNL     1      35.118 -24.288 -13.717  0.00  0.00    +0.147 C 
ATOM      7  C   UNL     1      36.325 -23.166 -15.550  0.00  0.00    +0.230 C 
ATOM      8  C   UNL     1      36.349 -24.839 -13.256  0.00  0.00    +0.105 C 
ATOM      9  C   UNL     1      37.525 -24.567 -13.912  0.00  0.00    +0.157 C 
ATOM     10  C   UNL     1      37.644 -23.743 -15.073  0.00  0.00    +0.227 C 
ATOM     11  C   UNL     1      37.706 -25.992 -11.996  0.00  0.00    +0.183 C 
ENDROOT
BRANCH   6  12
ATOM     12  O   UNL     1      34.036 -24.658 -12.949  0.00  0.00    -0.505 OA
ATOM     13  H   UNL     1      33.653 -25.506 -13.057  0.00  0.00    +0.292 HD
ENDBRANCH   6  12
BRANCH   5  14
ATOM     14  C   UNL     1      33.822 -22.860 -15.372  0.00  0.00    +0.033 C 
BRANCH  14  15
ATOM     15  C   UNL     1      33.225 -23.636 -16.548  0.00  0.00    +0.005 C 
BRANCH  15  16
ATOM     16  C   UNL     1      32.704 -22.778 -17.707  0.00  0.00    +0.000 C 
BRANCH  16  17
ATOM     17  C   UNL     1      33.783 -22.422 -18.732  0.00  0.00    +0.000 C 
BRANCH  17  18
ATOM     18  C   UNL     1      33.371 -21.209 -19.571  0.00  0.00    +0.000 C 
BRANCH  18  19
ATOM     19  C   UNL     1      34.579 -20.569 -20.253  0.00  0.00    +0.000 C 
ATOM     20  C   UNL     1      35.872 -21.267 -19.864  0.00  0.00    +0.000 C 
ENDBRANCH  18  19
ENDBRANCH  17  18
ENDBRANCH  16  17
ENDBRANCH  15  16
ENDBRANCH  14  15
ENDBRANCH   5  14
TORSDOF 7
ENDMDL
