MODEL 1
REMARK VINA RESULT:     -10.5      0.000      0.000
REMARK  Name = 10339710
REMARK  4 active torsions:
REMARK  status: ('A' for Active; 'I' for Inactive)
REMARK    1  A    between atoms: C_5  and  N_17
REMARK    2  A    between atoms: C_7  and  C_11
REMARK    3  A    between atoms: N_17  and  C_19
REMARK    4  A    between atoms: C_19  and  C_21
REMARK                            x       y       z     vdW  Elec       q    Type
REMARK                         _______ _______ _______ _____ _____    ______ ____
ROOT
ATOM      1 BR   UNL     1      28.524 -23.165 -16.842  0.00  0.00    -0.066 Br
ATOM      2  N   UNL     1      32.201 -24.036 -15.367  0.00  0.00    -0.152 N 
ATOM      3  N   UNL     1      31.941 -22.743 -17.382  0.00  0.00    -0.388 NA
ATOM      4  N   UNL     1      31.435 -24.660 -14.427  0.00  0.00    -0.173 NA
ATOM      5  C   UNL     1      33.601 -23.961 -15.423  0.00  0.00    +0.126 C 
ATOM      6  C   UNL     1      31.402 -23.428 -16.337  0.00  0.00    +0.200 C 
ATOM      7  C   UNL     1      33.239 -22.685 -17.442  0.00  0.00    +0.135 C 
ATOM      8  C   UNL     1      34.170 -23.293 -16.441  0.00  0.00    +0.064 C 
ATOM      9  C   UNL     1      30.096 -23.683 -15.987  0.00  0.00    +0.168 C 
ATOM     10  C   UNL     1      30.180 -24.440 -14.812  0.00  0.00    +0.112 C 
ENDROOT
BRANCH   7  11
ATOM     11  C   UNL     1      33.871 -21.950 -18.571  0.00  0.00    +0.030 C 
ATOM     12  C   UNL     1      33.082 -21.177 -19.421  0.00  0.00    +0.003 C 
ATOM     13  C   UNL     1      35.245 -22.039 -18.775  0.00  0.00    +0.003 C 
ATOM     14  C   UNL     1      33.674 -20.488 -20.479  0.00  0.00    +0.000 C 
ATOM     15  C   UNL     1      35.836 -21.350 -19.833  0.00  0.00    +0.000 C 
ATOM     16  C   UNL     1      35.051 -20.574 -20.686  0.00  0.00    +0.000 C 
ENDBRANCH   7  11
BRANCH   5  17
ATOM     17  N   UNL     1      34.306 -24.571 -14.424  0.00  0.00    -0.316 N 
ATOM     18  H   UNL     1      33.872 -24.683 -13.547  0.00  0.00    +0.148 HD
BRANCH  17  19
ATOM     19  C   UNL     1      35.649 -25.060 -14.588  0.00  0.00    +0.115 C 
BRANCH  19  21
ATOM     20  N   UNL     1      38.319 -23.422 -11.662  0.00  0.00    -0.242 NA
ATOM     21  C   UNL     1      36.585 -24.487 -13.563  0.00  0.00    +0.000 C 
ATOM     22  C   UNL     1      37.867 -24.996 -13.440  0.00  0.00    +0.018 C 
ATOM     23  C   UNL     1      36.159 -23.451 -12.748  0.00  0.00    +0.018 C 
ATOM     24  C   UNL     1      38.691 -24.432 -12.480  0.00  0.00    +0.099 C 
ATOM     25  C   UNL     1      37.060 -22.956 -11.818  0.00  0.00    +0.099 C 
ENDBRANCH  19  21
ENDBRANCH  17  19
ENDBRANCH   5  17
TORSDOF 4
ENDMDL
MODEL 2
REMARK VINA RESULT:     -10.4      2.871      7.084
REMARK  Name = 10339710
REMARK  4 active torsions:
REMARK  status: ('A' for Active; 'I' for Inactive)
REMARK    1  A    between atoms: C_5  and  N_17
REMARK    2  A    between atoms: C_7  and  C_11
REMARK    3  A    between atoms: N_17  and  C_19
REMARK    4  A    between atoms: C_19  and  C_21
REMARK                            x       y       z     vdW  Elec       q    Type
REMARK                         _______ _______ _______ _____ _____    ______ ____
ROOT
ATOM      1 BR   UNL     1      36.176 -23.572 -12.728  0.00  0.00    -0.066 Br
ATOM      2  N   UNL     1      35.165 -22.830 -16.586  0.00  0.00    -0.152 N 
ATOM      3  N   UNL     1      33.514 -23.523 -14.976  0.00  0.00    -0.388 NA
ATOM      4  N   UNL     1      36.501 -22.568 -16.656  0.00  0.00    -0.173 NA
ATOM      5  C   UNL     1      34.218 -22.749 -17.619  0.00  0.00    +0.126 C 
ATOM      6  C   UNL     1      34.799 -23.208 -15.293  0.00  0.00    +0.200 C 
ATOM      7  C   UNL     1      32.637 -23.462 -15.936  0.00  0.00    +0.135 C 
ATOM      8  C   UNL     1      32.938 -23.053 -17.343  0.00  0.00    +0.064 C 
ATOM      9  C   UNL     1      35.947 -23.179 -14.535  0.00  0.00    +0.168 C 
ATOM     10  C   UNL     1      36.954 -22.781 -15.423  0.00  0.00    +0.112 C 
ENDROOT
BRANCH   7  11
ATOM     11  C   UNL     1      31.221 -23.802 -15.634  0.00  0.00    +0.030 C 
ATOM     12  C   UNL     1      30.930 -24.891 -14.815  0.00  0.00    +0.003 C 
ATOM     13  C   UNL     1      30.193 -23.033 -16.172  0.00  0.00    +0.003 C 
ATOM     14  C   UNL     1      29.602 -25.211 -14.532  0.00  0.00    +0.000 C 
ATOM     15  C   UNL     1      28.865 -23.353 -15.889  0.00  0.00    +0.000 C 
ATOM     16  C   UNL     1      28.570 -24.441 -15.069  0.00  0.00    +0.000 C 
ENDBRANCH   7  11
BRANCH   5  17
ATOM     17  N   UNL     1      34.660 -22.354 -18.850  0.00  0.00    -0.316 N 
ATOM     18  H   UNL     1      35.566 -22.620 -19.129  0.00  0.00    +0.148 HD
BRANCH  17  19
ATOM     19  C   UNL     1      33.867 -21.571 -19.760  0.00  0.00    +0.115 C 
BRANCH  19  21
ATOM     20  N   UNL     1      36.106 -18.337 -21.464  0.00  0.00    -0.242 NA
ATOM     21  C   UNL     1      34.652 -20.438 -20.357  0.00  0.00    +0.000 C 
ATOM     22  C   UNL     1      36.032 -20.424 -20.247  0.00  0.00    +0.018 C 
ATOM     23  C   UNL     1      33.989 -19.415 -21.015  0.00  0.00    +0.018 C 
ATOM     24  C   UNL     1      36.710 -19.358 -20.814  0.00  0.00    +0.099 C 
ATOM     25  C   UNL     1      34.758 -18.393 -21.548  0.00  0.00    +0.099 C 
ENDBRANCH  19  21
ENDBRANCH  17  19
ENDBRANCH   5  17
TORSDOF 4
ENDMDL
MODEL 3
REMARK VINA RESULT:     -10.3      2.884      5.851
REMARK  Name = 10339710
REMARK  4 active torsions:
REMARK  status: ('A' for Active; 'I' for Inactive)
REMARK    1  A    between atoms: C_5  and  N_17
REMARK    2  A    between atoms: C_7  and  C_11
REMARK    3  A    between atoms: N_17  and  C_19
REMARK    4  A    between atoms: C_19  and  C_21
REMARK                            x       y       z     vdW  Elec       q    Type
REMARK                         _______ _______ _______ _____ _____    ______ ____
ROOT
ATOM      1 BR   UNL     1      39.375 -25.142 -14.392  0.00  0.00    -0.066 Br
ATOM      2  N   UNL     1      35.416 -24.441 -13.855  0.00  0.00    -0.152 N 
ATOM      3  N   UNL     1      36.562 -23.670 -15.828  0.00  0.00    -0.388 NA
ATOM      4  N   UNL     1      35.674 -25.121 -12.702  0.00  0.00    -0.173 NA
ATOM      5  C   UNL     1      34.188 -23.912 -14.284  0.00  0.00    +0.126 C 
ATOM      6  C   UNL     1      36.570 -24.315 -14.630  0.00  0.00    +0.200 C 
ATOM      7  C   UNL     1      35.427 -23.168 -16.220  0.00  0.00    +0.135 C 
ATOM      8  C   UNL     1      34.140 -23.268 -15.462  0.00  0.00    +0.064 C 
ATOM      9  C   UNL     1      37.580 -24.939 -13.934  0.00  0.00    +0.168 C 
ATOM     10  C   UNL     1      36.972 -25.411 -12.765  0.00  0.00    +0.112 C 
ENDROOT
BRANCH   7  11
ATOM     11  C   UNL     1      35.373 -22.451 -17.521  0.00  0.00    +0.030 C 
ATOM     12  C   UNL     1      36.510 -21.804 -18.003  0.00  0.00    +0.003 C 
ATOM     13  C   UNL     1      34.189 -22.427 -18.253  0.00  0.00    +0.003 C 
ATOM     14  C   UNL     1      36.461 -21.131 -19.223  0.00  0.00    +0.000 C 
ATOM     15  C   UNL     1      34.140 -21.754 -19.474  0.00  0.00    +0.000 C 
ATOM     16  C   UNL     1      35.276 -21.107 -19.959  0.00  0.00    +0.000 C 
ENDBRANCH   7  11
BRANCH   5  17
ATOM     17  N   UNL     1      33.105 -24.095 -13.471  0.00  0.00    -0.316 N 
ATOM     18  H   UNL     1      33.073 -24.903 -12.909  0.00  0.00    +0.148 HD
BRANCH  17  19
ATOM     19  C   UNL     1      32.008 -23.166 -13.394  0.00  0.00    +0.115 C 
BRANCH  19  21
ATOM     20  N   UNL     1      28.667 -24.436 -15.761  0.00  0.00    -0.242 NA
ATOM     21  C   UNL     1      30.837 -23.611 -14.223  0.00  0.00    +0.000 C 
ATOM     22  C   UNL     1      30.140 -22.685 -14.981  0.00  0.00    +0.018 C 
ATOM     23  C   UNL     1      30.464 -24.945 -14.225  0.00  0.00    +0.018 C 
ATOM     24  C   UNL     1      29.068 -23.145 -15.729  0.00  0.00    +0.099 C 
ATOM     25  C   UNL     1      29.378 -25.304 -15.007  0.00  0.00    +0.099 C 
ENDBRANCH  19  21
ENDBRANCH  17  19
ENDBRANCH   5  17
TORSDOF 4
ENDMDL
MODEL 4
REMARK VINA RESULT:      -9.9      7.522     10.704
REMARK  Name = 10339710
REMARK  4 active torsions:
REMARK  status: ('A' for Active; 'I' for Inactive)
REMARK    1  A    between atoms: C_5  and  N_17
REMARK    2  A    between atoms: C_7  and  C_11
REMARK    3  A    between atoms: N_17  and  C_19
REMARK    4  A    between atoms: C_19  and  C_21
REMARK                            x       y       z     vdW  Elec       q    Type
REMARK                         _______ _______ _______ _____ _____    ______ ____
ROOT
ATOM      1 BR   UNL     1      33.073 -14.164 -26.989  0.00  0.00    -0.066 Br
ATOM      2  N   UNL     1      33.932 -15.912 -23.431  0.00  0.00    -0.152 N 
ATOM      3  N   UNL     1      32.839 -13.769 -23.535  0.00  0.00    -0.388 NA
ATOM      4  N   UNL     1      34.429 -16.866 -24.268  0.00  0.00    -0.173 NA
ATOM      5  C   UNL     1      33.917 -15.923 -22.027  0.00  0.00    +0.126 C 
ATOM      6  C   UNL     1      33.394 -14.846 -24.153  0.00  0.00    +0.200 C 
ATOM      7  C   UNL     1      32.837 -13.772 -22.234  0.00  0.00    +0.135 C 
ATOM      8  C   UNL     1      33.377 -14.876 -21.380  0.00  0.00    +0.064 C 
ATOM      9  C   UNL     1      33.562 -15.149 -25.485  0.00  0.00    +0.168 C 
ATOM     10  C   UNL     1      34.200 -16.396 -25.492  0.00  0.00    +0.112 C 
ENDROOT
BRANCH   7  11
ATOM     11  C   UNL     1      32.244 -12.612 -21.516  0.00  0.00    +0.030 C 
ATOM     12  C   UNL     1      31.842 -11.487 -22.233  0.00  0.00    +0.003 C 
ATOM     13  C   UNL     1      32.095 -12.653 -20.133  0.00  0.00    +0.003 C 
ATOM     14  C   UNL     1      31.286 -10.398 -21.561  0.00  0.00    +0.000 C 
ATOM     15  C   UNL     1      31.539 -11.565 -19.461  0.00  0.00    +0.000 C 
ATOM     16  C   UNL     1      31.134 -10.438 -20.175  0.00  0.00    +0.000 C 
ENDBRANCH   7  11
BRANCH   5  17
ATOM     17  N   UNL     1      34.450 -17.014 -21.400  0.00  0.00    -0.316 N 
ATOM     18  H   UNL     1      35.327 -16.919 -20.962  0.00  0.00    +0.148 HD
BRANCH  17  19
ATOM     19  C   UNL     1      33.795 -18.294 -21.346  0.00  0.00    +0.115 C 
BRANCH  19  21
ATOM     20  N   UNL     1      36.347 -21.336 -19.732  0.00  0.00    -0.242 NA
ATOM     21  C   UNL     1      34.690 -19.360 -20.781  0.00  0.00    +0.000 C 
ATOM     22  C   UNL     1      36.064 -19.207 -20.842  0.00  0.00    +0.018 C 
ATOM     23  C   UNL     1      34.132 -20.488 -20.201  0.00  0.00    +0.018 C 
ATOM     24  C   UNL     1      36.846 -20.218 -20.307  0.00  0.00    +0.099 C 
ATOM     25  C   UNL     1      35.000 -21.442 -19.694  0.00  0.00    +0.099 C 
ENDBRANCH  19  21
ENDBRANCH  17  19
ENDBRANCH   5  17
TORSDOF 4
ENDMDL
MODEL 5
REMARK VINA RESULT:      -9.9      2.795      4.984
REMARK  Name = 10339710
REMARK  4 active torsions:
REMARK  status: ('A' for Active; 'I' for Inactive)
REMARK    1  A    between atoms: C_5  and  N_17
REMARK    2  A    between atoms: C_7  and  C_11
REMARK    3  A    between atoms: N_17  and  C_19
REMARK    4  A    between atoms: C_19  and  C_21
REMARK                            x       y       z     vdW  Elec       q    Type
REMARK                         _______ _______ _______ _____ _____    ______ ____
ROOT
ATOM      1 BR   UNL     1      35.775 -21.838 -18.734  0.00  0.00    -0.066 Br
ATOM      2  N   UNL     1      35.701 -23.046 -14.863  0.00  0.00    -0.152 N 
ATOM      3  N   UNL     1      33.714 -23.097 -16.222  0.00  0.00    -0.388 NA
ATOM      4  N   UNL     1      37.018 -22.704 -14.959  0.00  0.00    -0.173 NA
ATOM      5  C   UNL     1      35.027 -23.557 -13.743  0.00  0.00    +0.126 C 
ATOM      6  C   UNL     1      35.040 -22.830 -16.073  0.00  0.00    +0.200 C 
ATOM      7  C   UNL     1      33.085 -23.558 -15.180  0.00  0.00    +0.135 C 
ATOM      8  C   UNL     1      33.716 -23.832 -13.852  0.00  0.00    +0.064 C 
ATOM      9  C   UNL     1      35.978 -22.338 -16.951  0.00  0.00    +0.168 C 
ATOM     10  C   UNL     1      37.167 -22.283 -16.214  0.00  0.00    +0.112 C 
ENDROOT
BRANCH   7  11
ATOM     11  C   UNL     1      31.633 -23.858 -15.297  0.00  0.00    +0.030 C 
ATOM     12  C   UNL     1      30.823 -23.058 -16.101  0.00  0.00    +0.003 C 
ATOM     13  C   UNL     1      31.089 -24.935 -14.603  0.00  0.00    +0.003 C 
ATOM     14  C   UNL     1      29.461 -23.339 -16.211  0.00  0.00    +0.000 C 
ATOM     15  C   UNL     1      29.727 -25.216 -14.714  0.00  0.00    +0.000 C 
ATOM     16  C   UNL     1      28.913 -24.419 -15.518  0.00  0.00    +0.000 C 
ENDBRANCH   7  11
BRANCH   5  17
ATOM     17  N   UNL     1      35.755 -23.753 -12.603  0.00  0.00    -0.316 N 
ATOM     18  H   UNL     1      35.960 -22.973 -12.039  0.00  0.00    +0.148 HD
BRANCH  17  19
ATOM     19  C   UNL     1      36.235 -25.044 -12.185  0.00  0.00    +0.115 C 
BRANCH  19  21
ATOM     20  N   UNL     1      39.344 -26.506 -14.748  0.00  0.00    -0.242 NA
ATOM     21  C   UNL     1      37.325 -25.555 -13.083  0.00  0.00    +0.000 C 
ATOM     22  C   UNL     1      38.629 -25.132 -12.892  0.00  0.00    +0.018 C 
ATOM     23  C   UNL     1      37.017 -26.449 -14.095  0.00  0.00    +0.018 C 
ATOM     24  C   UNL     1      39.597 -25.634 -13.747  0.00  0.00    +0.099 C 
ATOM     25  C   UNL     1      38.057 -26.893 -14.896  0.00  0.00    +0.099 C 
ENDBRANCH  19  21
ENDBRANCH  17  19
ENDBRANCH   5  17
TORSDOF 4
ENDMDL
MODEL 6
REMARK VINA RESULT:      -9.9      1.859      6.549
REMARK  Name = 10339710
REMARK  4 active torsions:
REMARK  status: ('A' for Active; 'I' for Inactive)
REMARK    1  A    between atoms: C_5  and  N_17
REMARK    2  A    between atoms: C_7  and  C_11
REMARK    3  A    between atoms: N_17  and  C_19
REMARK    4  A    between atoms: C_19  and  C_21
REMARK                            x       y       z     vdW  Elec       q    Type
REMARK                         _______ _______ _______ _____ _____    ______ ____
ROOT
ATOM      1 BR   UNL     1      30.428 -24.362 -13.276  0.00  0.00    -0.066 Br
ATOM      2  N   UNL     1      32.631 -23.209 -16.481  0.00  0.00    -0.152 N 
ATOM      3  N   UNL     1      33.674 -24.155 -14.527  0.00  0.00    -0.388 NA
ATOM      4  N   UNL     1      31.390 -22.882 -16.941  0.00  0.00    -0.173 NA
ATOM      5  C   UNL     1      33.860 -23.057 -17.142  0.00  0.00    +0.126 C 
ATOM      6  C   UNL     1      32.560 -23.753 -15.198  0.00  0.00    +0.200 C 
ATOM      7  C   UNL     1      34.815 -24.001 -15.134  0.00  0.00    +0.135 C 
ATOM      8  C   UNL     1      34.983 -23.442 -16.511  0.00  0.00    +0.064 C 
ATOM      9  C   UNL     1      31.229 -23.767 -14.850  0.00  0.00    +0.168 C 
ATOM     10  C   UNL     1      30.563 -23.222 -15.954  0.00  0.00    +0.112 C 
ENDROOT
BRANCH   7  11
ATOM     11  C   UNL     1      36.058 -24.422 -14.436  0.00  0.00    +0.030 C 
ATOM     12  C   UNL     1      36.550 -23.660 -13.377  0.00  0.00    +0.003 C 
ATOM     13  C   UNL     1      36.727 -25.574 -14.841  0.00  0.00    +0.003 C 
ATOM     14  C   UNL     1      37.716 -24.054 -12.722  0.00  0.00    +0.000 C 
ATOM     15  C   UNL     1      37.893 -25.967 -14.186  0.00  0.00    +0.000 C 
ATOM     16  C   UNL     1      38.388 -25.208 -13.126  0.00  0.00    +0.000 C 
ENDBRANCH   7  11
BRANCH   5  17
ATOM     17  N   UNL     1      33.837 -22.530 -18.403  0.00  0.00    -0.316 N 
ATOM     18  H   UNL     1      32.964 -22.409 -18.843  0.00  0.00    +0.148 HD
BRANCH  17  19
ATOM     19  C   UNL     1      35.023 -22.142 -19.119  0.00  0.00    +0.115 C 
BRANCH  19  21
ATOM     20  N   UNL     1      34.376 -18.642 -21.509  0.00  0.00    -0.242 NA
ATOM     21  C   UNL     1      34.797 -20.915 -19.956  0.00  0.00    +0.000 C 
ATOM     22  C   UNL     1      35.881 -20.201 -20.437  0.00  0.00    +0.018 C 
ATOM     23  C   UNL     1      33.504 -20.508 -20.243  0.00  0.00    +0.018 C 
ATOM     24  C   UNL     1      35.620 -19.078 -21.204  0.00  0.00    +0.099 C 
ATOM     25  C   UNL     1      33.348 -19.371 -21.020  0.00  0.00    +0.099 C 
ENDBRANCH  19  21
ENDBRANCH  17  19
ENDBRANCH   5  17
TORSDOF 4
ENDMDL
MODEL 7
REMARK VINA RESULT:      -9.8      2.090      4.766
REMARK  Name = 10339710
REMARK  4 active torsions:
REMARK  status: ('A' for Active; 'I' for Inactive)
REMARK    1  A    between atoms: C_5  and  N_17
REMARK    2  A    between atoms: C_7  and  C_11
REMARK    3  A    between atoms: N_17  and  C_19
REMARK    4  A    between atoms: C_19  and  C_21
REMARK                            x       y       z     vdW  Elec       q    Type
REMARK                         _______ _______ _______ _____ _____    ______ ____
ROOT
ATOM      1 BR   UNL     1      32.949 -20.537 -20.730  0.00  0.00    -0.066 Br
ATOM      2  N   UNL     1      34.852 -22.477 -17.718  0.00  0.00    -0.152 N 
ATOM      3  N   UNL     1      32.448 -22.434 -17.850  0.00  0.00    -0.388 NA
ATOM      4  N   UNL     1      35.939 -22.011 -18.397  0.00  0.00    -0.173 NA
ATOM      5  C   UNL     1      34.839 -23.253 -16.548  0.00  0.00    +0.126 C 
ATOM      6  C   UNL     1      33.668 -22.088 -18.344  0.00  0.00    +0.200 C 
ATOM      7  C   UNL     1      32.435 -23.141 -16.757  0.00  0.00    +0.135 C 
ATOM      8  C   UNL     1      33.653 -23.613 -16.028  0.00  0.00    +0.064 C 
ATOM      9  C   UNL     1      34.031 -21.355 -19.451  0.00  0.00    +0.168 C 
ATOM     10  C   UNL     1      35.430 -21.342 -19.430  0.00  0.00    +0.112 C 
ENDROOT
BRANCH   7  11
ATOM     11  C   UNL     1      31.123 -23.537 -16.178  0.00  0.00    +0.030 C 
ATOM     12  C   UNL     1      29.965 -22.864 -16.562  0.00  0.00    +0.003 C 
ATOM     13  C   UNL     1      31.058 -24.577 -15.255  0.00  0.00    +0.003 C 
ATOM     14  C   UNL     1      28.735 -23.235 -16.020  0.00  0.00    +0.000 C 
ATOM     15  C   UNL     1      29.827 -24.948 -14.713  0.00  0.00    +0.000 C 
ATOM     16  C   UNL     1      28.666 -24.277 -15.095  0.00  0.00    +0.000 C 
ENDBRANCH   7  11
BRANCH   5  17
ATOM     17  N   UNL     1      36.045 -23.603 -16.010  0.00  0.00    -0.316 N 
ATOM     18  H   UNL     1      36.577 -24.295 -16.465  0.00  0.00    +0.148 HD
BRANCH  17  19
ATOM     19  C   UNL     1      36.578 -23.009 -14.812  0.00  0.00    +0.115 C 
BRANCH  19  21
ATOM     20  N   UNL     1      36.473 -25.725 -11.497  0.00  0.00    -0.242 NA
ATOM     21  C   UNL     1      36.541 -23.960 -13.650  0.00  0.00    +0.000 C 
ATOM     22  C   UNL     1      35.843 -23.619 -12.504  0.00  0.00    +0.018 C 
ATOM     23  C   UNL     1      37.206 -25.173 -13.733  0.00  0.00    +0.018 C 
ATOM     24  C   UNL     1      35.839 -24.531 -11.461  0.00  0.00    +0.099 C 
ATOM     25  C   UNL     1      37.141 -26.015 -12.635  0.00  0.00    +0.099 C 
ENDBRANCH  19  21
ENDBRANCH  17  19
ENDBRANCH   5  17
TORSDOF 4
ENDMDL
MODEL 8
REMARK VINA RESULT:      -9.7      2.428      7.142
REMARK  Name = 10339710
REMARK  4 active torsions:
REMARK  status: ('A' for Active; 'I' for Inactive)
REMARK    1  A    between atoms: C_5  and  N_17
REMARK    2  A    between atoms: C_7  and  C_11
REMARK    3  A    between atoms: N_17  and  C_19
REMARK    4  A    between atoms: C_19  and  C_21
REMARK                            x       y       z     vdW  Elec       q    Type
REMARK                         _______ _______ _______ _____ _____    ______ ____
ROOT
ATOM      1 BR   UNL     1      36.217 -21.540 -19.423  0.00  0.00    -0.066 Br
ATOM      2  N   UNL     1      33.419 -23.053 -16.906  0.00  0.00    -0.152 N 
ATOM      3  N   UNL     1      35.748 -23.008 -16.297  0.00  0.00    -0.388 NA
ATOM      4  N   UNL     1      32.609 -22.700 -17.945  0.00  0.00    -0.173 NA
ATOM      5  C   UNL     1      33.045 -23.643 -15.689  0.00  0.00    +0.126 C 
ATOM      6  C   UNL     1      34.751 -22.746 -17.185  0.00  0.00    +0.200 C 
ATOM      7  C   UNL     1      35.404 -23.568 -15.174  0.00  0.00    +0.135 C 
ATOM      8  C   UNL     1      34.003 -23.919 -14.786  0.00  0.00    +0.064 C 
ATOM      9  C   UNL     1      34.769 -22.180 -18.440  0.00  0.00    +0.168 C 
ATOM     10  C   UNL     1      33.432 -22.179 -18.853  0.00  0.00    +0.112 C 
ENDROOT
BRANCH   7  11
ATOM     11  C   UNL     1      36.463 -23.878 -14.176  0.00  0.00    +0.030 C 
ATOM     12  C   UNL     1      37.522 -24.713 -14.527  0.00  0.00    +0.003 C 
ATOM     13  C   UNL     1      36.392 -23.333 -12.897  0.00  0.00    +0.003 C 
ATOM     14  C   UNL     1      38.515 -25.004 -13.592  0.00  0.00    +0.000 C 
ATOM     15  C   UNL     1      37.385 -23.624 -11.962  0.00  0.00    +0.000 C 
ATOM     16  C   UNL     1      38.447 -24.459 -12.309  0.00  0.00    +0.000 C 
ENDBRANCH   7  11
BRANCH   5  17
ATOM     17  N   UNL     1      31.717 -23.896 -15.491  0.00  0.00    -0.316 N 
ATOM     18  H   UNL     1      31.351 -24.752 -15.812  0.00  0.00    +0.148 HD
BRANCH  17  19
ATOM     19  C   UNL     1      30.826 -22.975 -14.836  0.00  0.00    +0.115 C 
BRANCH  19  21
ATOM     20  N   UNL     1      27.028 -22.739 -16.809  0.00  0.00    -0.242 NA
ATOM     21  C   UNL     1      29.495 -22.892 -15.528  0.00  0.00    +0.000 C 
ATOM     22  C   UNL     1      29.290 -23.585 -16.709  0.00  0.00    +0.018 C 
ATOM     23  C   UNL     1      28.482 -22.124 -14.978  0.00  0.00    +0.018 C 
ATOM     24  C   UNL     1      28.046 -23.477 -17.308  0.00  0.00    +0.099 C 
ATOM     25  C   UNL     1      27.273 -22.081 -15.654  0.00  0.00    +0.099 C 
ENDBRANCH  19  21
ENDBRANCH  17  19
ENDBRANCH   5  17
TORSDOF 4
ENDMDL
MODEL 9
REMARK VINA RESULT:      -9.4      2.665      5.965
REMARK  Name = 10339710
REMARK  4 active torsions:
REMARK  status: ('A' for Active; 'I' for Inactive)
REMARK    1  A    between atoms: C_5  and  N_17
REMARK    2  A    between atoms: C_7  and  C_11
REMARK    3  A    between atoms: N_17  and  C_19
REMARK    4  A    between atoms: C_19  and  C_21
REMARK                            x       y       z     vdW  Elec       q    Type
REMARK                         _______ _______ _______ _____ _____    ______ ____
ROOT
ATOM      1 BR   UNL     1      38.201 -24.035 -15.315  0.00  0.00    -0.066 Br
ATOM      2  N   UNL     1      34.145 -23.960 -15.352  0.00  0.00    -0.152 N 
ATOM      3  N   UNL     1      35.428 -22.864 -17.070  0.00  0.00    -0.388 NA
ATOM      4  N   UNL     1      34.339 -24.694 -14.219  0.00  0.00    -0.173 NA
ATOM      5  C   UNL     1      32.924 -23.579 -15.929  0.00  0.00    +0.126 C 
ATOM      6  C   UNL     1      35.364 -23.602 -15.929  0.00  0.00    +0.200 C 
ATOM      7  C   UNL     1      34.296 -22.498 -17.599  0.00  0.00    +0.135 C 
ATOM      8  C   UNL     1      32.946 -22.848 -17.057  0.00  0.00    +0.064 C 
ATOM      9  C   UNL     1      36.349 -24.133 -15.128  0.00  0.00    +0.168 C 
ATOM     10  C   UNL     1      35.662 -24.788 -14.099  0.00  0.00    +0.112 C 
ENDROOT
BRANCH   7  11
ATOM     11  C   UNL     1      34.318 -21.686 -18.844  0.00  0.00    +0.030 C 
ATOM     12  C   UNL     1      33.122 -21.225 -19.392  0.00  0.00    +0.003 C 
ATOM     13  C   UNL     1      35.531 -21.390 -19.458  0.00  0.00    +0.003 C 
ATOM     14  C   UNL     1      33.142 -20.463 -20.559  0.00  0.00    +0.000 C 
ATOM     15  C   UNL     1      35.551 -20.628 -20.626  0.00  0.00    +0.000 C 
ATOM     16  C   UNL     1      34.357 -20.164 -21.177  0.00  0.00    +0.000 C 
ENDBRANCH   7  11
BRANCH   5  17
ATOM     17  N   UNL     1      31.778 -23.986 -15.307  0.00  0.00    -0.316 N 
ATOM     18  H   UNL     1      31.704 -23.859 -14.334  0.00  0.00    +0.148 HD
BRANCH  17  19
ATOM     19  C   UNL     1      30.672 -24.590 -16.003  0.00  0.00    +0.115 C 
BRANCH  19  21
ATOM     20  N   UNL     1      27.291 -21.964 -16.223  0.00  0.00    -0.242 NA
ATOM     21  C   UNL     1      29.487 -23.670 -16.079  0.00  0.00    +0.000 C 
ATOM     22  C   UNL     1      29.227 -22.795 -15.038  0.00  0.00    +0.018 C 
ATOM     23  C   UNL     1      28.663 -23.702 -17.192  0.00  0.00    +0.018 C 
ATOM     24  C   UNL     1      28.123 -21.967 -15.157  0.00  0.00    +0.099 C 
ATOM     25  C   UNL     1      27.584 -22.833 -17.215  0.00  0.00    +0.099 C 
ENDBRANCH  19  21
ENDBRANCH  17  19
ENDBRANCH   5  17
TORSDOF 4
ENDMDL
