MODEL 1
REMARK VINA RESULT:      -6.7      0.000      0.000
REMARK  Name = 5310993
REMARK  2 active torsions:
REMARK  status: ('A' for Active; 'I' for Inactive)
REMARK    1  A    between atoms: CA_6  and  C_10
REMARK    2  A    between atoms: C_10  and  O_11
REMARK                            x       y       z     vdW  Elec       q    Type
REMARK                         _______ _______ _______ _____ _____    ______ ____
ROOT
ATOM      1  O   UNL     1      36.670 -25.813 -11.645  0.00  0.00    -0.084 OA
ATOM      2  N   UNL     1      37.257 -25.337 -12.670  0.00  0.00    -0.203 N 
ATOM      3  N   UNL     1      38.570 -24.314 -14.919  0.00  0.00    -0.238 NA
ATOM      4  C   UNL     1      36.746 -24.256 -13.351  0.00  0.00    +0.083 C 
ATOM      5  C   UNL     1      38.427 -25.904 -13.119  0.00  0.00    +0.187 C 
ATOM      6  CA  UNL     1      39.049 -25.372 -14.234  0.00  0.00    +0.159 C 
ATOM      7  C   UNL     1      37.423 -23.777 -14.459  0.00  0.00    +0.114 C 
ATOM      8  C   UNL     1      35.481 -23.636 -12.873  0.00  0.00    +0.054 C 
ENDROOT
BRANCH   6  10
ATOM      9  OXT UNL     1      41.163 -26.475 -14.038  0.00  0.00    -0.244 OA
ATOM     10  C   UNL     1      40.285 -25.948 -14.732  0.00  0.00    +0.354 C 
BRANCH  10  11
ATOM     11  O   UNL     1      40.398 -25.856 -16.086  0.00  0.00    -0.476 OA
ATOM     12  H   UNL     1      39.782 -26.297 -16.639  0.00  0.00    +0.295 HD
ENDBRANCH  10  11
ENDBRANCH   6  10
TORSDOF 2
ENDMDL
MODEL 2
REMARK VINA RESULT:      -6.6      1.642      1.715
REMARK  Name = 5310993
REMARK  2 active torsions:
REMARK  status: ('A' for Active; 'I' for Inactive)
REMARK    1  A    between atoms: CA_6  and  C_10
REMARK    2  A    between atoms: C_10  and  O_11
REMARK                            x       y       z     vdW  Elec       q    Type
REMARK                         _______ _______ _______ _____ _____    ______ ____
ROOT
ATOM      1  O   UNL     1      38.208 -23.134 -11.621  0.00  0.00    -0.084 OA
ATOM      2  N   UNL     1      38.171 -24.190 -12.332  0.00  0.00    -0.203 N 
ATOM      3  N   UNL     1      38.119 -26.505 -13.903  0.00  0.00    -0.238 NA
ATOM      4  C   UNL     1      37.043 -24.978 -12.385  0.00  0.00    +0.083 C 
ATOM      5  C   UNL     1      39.271 -24.565 -13.067  0.00  0.00    +0.187 C 
ATOM      6  CA  UNL     1      39.209 -25.715 -13.832  0.00  0.00    +0.159 C 
ATOM      7  C   UNL     1      37.055 -26.115 -13.173  0.00  0.00    +0.114 C 
ATOM      8  C   UNL     1      35.849 -24.581 -11.593  0.00  0.00    +0.054 C 
ENDROOT
BRANCH   6  10
ATOM      9  OXT UNL     1      41.325 -26.772 -14.192  0.00  0.00    -0.244 OA
ATOM     10  C   UNL     1      40.354 -26.136 -14.619  0.00  0.00    +0.354 C 
BRANCH  10  11
ATOM     11  O   UNL     1      40.262 -25.755 -15.924  0.00  0.00    -0.476 OA
ATOM     12  H   UNL     1      39.516 -25.269 -16.219  0.00  0.00    +0.295 HD
ENDBRANCH  10  11
ENDBRANCH   6  10
TORSDOF 2
ENDMDL
MODEL 3
REMARK VINA RESULT:      -6.4      1.553      1.666
REMARK  Name = 5310993
REMARK  2 active torsions:
REMARK  status: ('A' for Active; 'I' for Inactive)
REMARK    1  A    between atoms: CA_6  and  C_10
REMARK    2  A    between atoms: C_10  and  O_11
REMARK                            x       y       z     vdW  Elec       q    Type
REMARK                         _______ _______ _______ _____ _____    ______ ____
ROOT
ATOM      1  O   UNL     1      35.680 -25.262 -15.330  0.00  0.00    -0.084 OA
ATOM      2  N   UNL     1      36.739 -25.116 -14.637  0.00  0.00    -0.203 N 
ATOM      3  N   UNL     1      39.083 -24.813 -13.139  0.00  0.00    -0.238 NA
ATOM      4  C   UNL     1      36.726 -24.432 -13.444  0.00  0.00    +0.083 C 
ATOM      5  C   UNL     1      37.929 -25.648 -15.078  0.00  0.00    +0.187 C 
ATOM      6  CA  UNL     1      39.067 -25.478 -14.312  0.00  0.00    +0.159 C 
ATOM      7  C   UNL     1      37.905 -24.302 -12.730  0.00  0.00    +0.114 C 
ATOM      8  C   UNL     1      35.445 -23.853 -12.958  0.00  0.00    +0.054 C 
ENDROOT
BRANCH   6  10
ATOM      9  OXT UNL     1      41.206 -26.508 -14.014  0.00  0.00    -0.244 OA
ATOM     10  C   UNL     1      40.337 -26.028 -14.751  0.00  0.00    +0.354 C 
BRANCH  10  11
ATOM     11  O   UNL     1      40.495 -25.966 -16.103  0.00  0.00    -0.476 OA
ATOM     12  H   UNL     1      40.216 -25.205 -16.573  0.00  0.00    +0.295 HD
ENDBRANCH  10  11
ENDBRANCH   6  10
TORSDOF 2
ENDMDL
MODEL 4
REMARK VINA RESULT:      -6.3      1.980      4.604
REMARK  Name = 5310993
REMARK  2 active torsions:
REMARK  status: ('A' for Active; 'I' for Inactive)
REMARK    1  A    between atoms: CA_6  and  C_10
REMARK    2  A    between atoms: C_10  and  O_11
REMARK                            x       y       z     vdW  Elec       q    Type
REMARK                         _______ _______ _______ _____ _____    ______ ____
ROOT
ATOM      1  O   UNL     1      38.046 -23.345 -15.442  0.00  0.00    -0.084 OA
ATOM      2  N   UNL     1      37.880 -24.072 -14.410  0.00  0.00    -0.203 N 
ATOM      3  N   UNL     1      37.488 -25.655 -12.135  0.00  0.00    -0.238 NA
ATOM      4  C   UNL     1      38.777 -25.063 -14.080  0.00  0.00    +0.083 C 
ATOM      5  C   UNL     1      36.788 -23.877 -13.597  0.00  0.00    +0.187 C 
ATOM      6  CA  UNL     1      36.626 -24.678 -12.482  0.00  0.00    +0.159 C 
ATOM      7  C   UNL     1      38.550 -25.826 -12.948  0.00  0.00    +0.114 C 
ATOM      8  C   UNL     1      39.961 -25.282 -14.952  0.00  0.00    +0.054 C 
ENDROOT
BRANCH   6  10
ATOM      9  OXT UNL     1      35.300 -25.080 -10.531  0.00  0.00    -0.244 OA
ATOM     10  C   UNL     1      35.483 -24.495 -11.605  0.00  0.00    +0.354 C 
BRANCH  10  11
ATOM     11  O   UNL     1      34.592 -23.584 -12.089  0.00  0.00    -0.476 OA
ATOM     12  H   UNL     1      34.034 -23.810 -12.808  0.00  0.00    +0.295 HD
ENDBRANCH  10  11
ENDBRANCH   6  10
TORSDOF 2
ENDMDL
MODEL 5
REMARK VINA RESULT:      -6.2     12.846     14.170
REMARK  Name = 5310993
REMARK  2 active torsions:
REMARK  status: ('A' for Active; 'I' for Inactive)
REMARK    1  A    between atoms: CA_6  and  C_10
REMARK    2  A    between atoms: C_10  and  O_11
REMARK                            x       y       z     vdW  Elec       q    Type
REMARK                         _______ _______ _______ _____ _____    ______ ____
ROOT
ATOM      1  O   UNL     1      34.647 -17.087 -25.807  0.00  0.00    -0.084 OA
ATOM      2  N   UNL     1      34.359 -16.404 -24.771  0.00  0.00    -0.203 N 
ATOM      3  N   UNL     1      33.741 -14.925 -22.477  0.00  0.00    -0.238 NA
ATOM      4  C   UNL     1      33.607 -15.254 -24.858  0.00  0.00    +0.083 C 
ATOM      5  C   UNL     1      34.800 -16.810 -23.534  0.00  0.00    +0.187 C 
ATOM      6  CA  UNL     1      34.475 -16.055 -22.422  0.00  0.00    +0.159 C 
ATOM      7  C   UNL     1      33.321 -14.549 -23.702  0.00  0.00    +0.114 C 
ATOM      8  C   UNL     1      33.125 -14.807 -26.192  0.00  0.00    +0.054 C 
ENDROOT
BRANCH   6  10
ATOM      9  OXT UNL     1      35.310 -17.592 -20.789  0.00  0.00    -0.244 OA
ATOM     10  C   UNL     1      34.927 -16.458 -21.102  0.00  0.00    +0.354 C 
BRANCH  10  11
ATOM     11  O   UNL     1      34.890 -15.437 -20.201  0.00  0.00    -0.476 OA
ATOM     12  H   UNL     1      34.476 -14.627 -20.427  0.00  0.00    +0.295 HD
ENDBRANCH  10  11
ENDBRANCH   6  10
TORSDOF 2
ENDMDL
MODEL 6
REMARK VINA RESULT:      -6.1      7.750      9.099
REMARK  Name = 5310993
REMARK  2 active torsions:
REMARK  status: ('A' for Active; 'I' for Inactive)
REMARK    1  A    between atoms: CA_6  and  C_10
REMARK    2  A    between atoms: C_10  and  O_11
REMARK                            x       y       z     vdW  Elec       q    Type
REMARK                         _______ _______ _______ _____ _____    ______ ____
ROOT
ATOM      1  O   UNL     1      36.824 -19.840 -20.249  0.00  0.00    -0.084 OA
ATOM      2  N   UNL     1      35.594 -20.169 -20.229  0.00  0.00    -0.203 N 
ATOM      3  N   UNL     1      32.898 -20.917 -20.165  0.00  0.00    -0.238 NA
ATOM      4  C   UNL     1      34.647 -19.441 -20.912  0.00  0.00    +0.083 C 
ATOM      5  C   UNL     1      35.187 -21.272 -19.514  0.00  0.00    +0.187 C 
ATOM      6  CA  UNL     1      33.847 -21.612 -19.505  0.00  0.00    +0.159 C 
ATOM      7  C   UNL     1      33.323 -19.841 -20.857  0.00  0.00    +0.114 C 
ATOM      8  C   UNL     1      35.076 -18.247 -21.687  0.00  0.00    +0.054 C 
ENDROOT
BRANCH   6  10
ATOM      9  OXT UNL     1      33.885 -23.901 -18.811  0.00  0.00    -0.244 OA
ATOM     10  C   UNL     1      33.388 -22.770 -18.760  0.00  0.00    +0.354 C 
BRANCH  10  11
ATOM     11  O   UNL     1      32.317 -22.490 -17.965  0.00  0.00    -0.476 OA
ATOM     12  H   UNL     1      31.478 -22.326 -18.350  0.00  0.00    +0.295 HD
ENDBRANCH  10  11
ENDBRANCH   6  10
TORSDOF 2
ENDMDL
MODEL 7
REMARK VINA RESULT:      -6.1      7.354      9.237
REMARK  Name = 5310993
REMARK  2 active torsions:
REMARK  status: ('A' for Active; 'I' for Inactive)
REMARK    1  A    between atoms: CA_6  and  C_10
REMARK    2  A    between atoms: C_10  and  O_11
REMARK                            x       y       z     vdW  Elec       q    Type
REMARK                         _______ _______ _______ _____ _____    ______ ____
ROOT
ATOM      1  O   UNL     1      30.797 -24.523 -13.179  0.00  0.00    -0.084 OA
ATOM      2  N   UNL     1      30.776 -23.989 -14.335  0.00  0.00    -0.203 N 
ATOM      3  N   UNL     1      30.696 -22.817 -16.874  0.00  0.00    -0.238 NA
ATOM      4  C   UNL     1      31.939 -23.665 -14.996  0.00  0.00    +0.083 C 
ATOM      5  C   UNL     1      29.574 -23.724 -14.949  0.00  0.00    +0.187 C 
ATOM      6  CA  UNL     1      29.573 -23.144 -16.204  0.00  0.00    +0.159 C 
ATOM      7  C   UNL     1      31.860 -23.087 -16.250  0.00  0.00    +0.114 C 
ATOM      8  C   UNL     1      33.243 -23.948 -14.340  0.00  0.00    +0.054 C 
ENDROOT
BRANCH   6  10
ATOM      9  OXT UNL     1      27.773 -21.745 -16.931  0.00  0.00    -0.244 OA
ATOM     10  C   UNL     1      28.320 -22.853 -16.878  0.00  0.00    +0.354 C 
BRANCH  10  11
ATOM     11  O   UNL     1      27.777 -23.952 -17.473  0.00  0.00    -0.476 OA
ATOM     12  H   UNL     1      27.210 -24.517 -16.986  0.00  0.00    +0.295 HD
ENDBRANCH  10  11
ENDBRANCH   6  10
TORSDOF 2
ENDMDL
MODEL 8
REMARK VINA RESULT:      -6.0      7.713      9.679
REMARK  Name = 5310993
REMARK  2 active torsions:
REMARK  status: ('A' for Active; 'I' for Inactive)
REMARK    1  A    between atoms: CA_6  and  C_10
REMARK    2  A    between atoms: C_10  and  O_11
REMARK                            x       y       z     vdW  Elec       q    Type
REMARK                         _______ _______ _______ _____ _____    ______ ____
ROOT
ATOM      1  O   UNL     1      32.603 -23.082 -15.656  0.00  0.00    -0.084 OA
ATOM      2  N   UNL     1      31.409 -23.511 -15.543  0.00  0.00    -0.203 N 
ATOM      3  N   UNL     1      28.776 -24.432 -15.319  0.00  0.00    -0.238 NA
ATOM      4  C   UNL     1      31.079 -24.477 -14.620  0.00  0.00    +0.083 C 
ATOM      5  C   UNL     1      30.417 -23.008 -16.353  0.00  0.00    +0.187 C 
ATOM      6  CA  UNL     1      29.127 -23.487 -16.214  0.00  0.00    +0.159 C 
ATOM      7  C   UNL     1      29.766 -24.908 -14.538  0.00  0.00    +0.114 C 
ATOM      8  C   UNL     1      32.144 -25.027 -13.740  0.00  0.00    +0.054 C 
ENDROOT
BRANCH   6  10
ATOM      9  OXT UNL     1      27.424 -23.631 -17.888  0.00  0.00    -0.244 OA
ATOM     10  C   UNL     1      28.059 -22.975 -17.055  0.00  0.00    +0.354 C 
BRANCH  10  11
ATOM     11  O   UNL     1      27.807 -21.654 -16.835  0.00  0.00    -0.476 OA
ATOM     12  H   UNL     1      28.351 -21.164 -16.249  0.00  0.00    +0.295 HD
ENDBRANCH  10  11
ENDBRANCH   6  10
TORSDOF 2
ENDMDL
MODEL 9
REMARK VINA RESULT:      -6.0     12.166     13.448
REMARK  Name = 5310993
REMARK  2 active torsions:
REMARK  status: ('A' for Active; 'I' for Inactive)
REMARK    1  A    between atoms: CA_6  and  C_10
REMARK    2  A    between atoms: C_10  and  O_11
REMARK                            x       y       z     vdW  Elec       q    Type
REMARK                         _______ _______ _______ _____ _____    ______ ____
ROOT
ATOM      1  O   UNL     1      35.165 -16.484 -20.449  0.00  0.00    -0.084 OA
ATOM      2  N   UNL     1      35.113 -16.873 -21.661  0.00  0.00    -0.203 N 
ATOM      3  N   UNL     1      34.985 -17.699 -24.332  0.00  0.00    -0.238 NA
ATOM      4  C   UNL     1      35.634 -18.087 -22.047  0.00  0.00    +0.083 C 
ATOM      5  C   UNL     1      34.529 -16.074 -22.617  0.00  0.00    +0.187 C 
ATOM      6  CA  UNL     1      34.483 -16.515 -23.926  0.00  0.00    +0.159 C 
ATOM      7  C   UNL     1      35.552 -18.462 -23.376  0.00  0.00    +0.114 C 
ATOM      8  C   UNL     1      36.269 -18.957 -21.022  0.00  0.00    +0.054 C 
ENDROOT
BRANCH   6  10
ATOM      9  OXT UNL     1      33.867 -15.946 -26.167  0.00  0.00    -0.244 OA
ATOM     10  C   UNL     1      33.872 -15.694 -24.957  0.00  0.00    +0.354 C 
BRANCH  10  11
ATOM     11  O   UNL     1      33.278 -14.576 -24.452  0.00  0.00    -0.476 OA
ATOM     12  H   UNL     1      33.047 -14.537 -23.545  0.00  0.00    +0.295 HD
ENDBRANCH  10  11
ENDBRANCH   6  10
TORSDOF 2
ENDMDL
