MODEL 1
REMARK VINA RESULT:      -5.0      0.000      0.000
REMARK  Name = 12647
REMARK  6 active torsions:
REMARK  status: ('A' for Active; 'I' for Inactive)
REMARK    1  A    between atoms: CA_1  and  N_2
REMARK    2  A    between atoms: CA_1  and  C_7
REMARK    3  A    between atoms: CA_1  and  C_10
REMARK    4  A    between atoms: C_7  and  O_8
REMARK    5  A    between atoms: C_10  and  C_11
REMARK    6  A    between atoms: C_11  and  O_12
REMARK                            x       y       z     vdW  Elec       q    Type
REMARK                         _______ _______ _______ _____ _____    ______ ____
ROOT
ATOM      1  CA  UNL     1      38.966 -25.163 -14.461  0.00  0.00    +0.038 C 
ENDROOT
BRANCH   1   2
ATOM      2  N   UNL     1      37.893 -25.773 -15.246  0.00  0.00    +0.389 N 
ATOM      3  H1  UNL     1      37.160 -26.107 -14.619  0.00  0.00    -0.088 HD
ATOM      4  H2  UNL     1      38.266 -26.557 -15.781  0.00  0.00    -0.088 HD
ATOM      5  H3  UNL     1      37.503 -25.080 -15.886  0.00  0.00    -0.088 HD
ENDBRANCH   1   2
BRANCH   1   7
ATOM      6  OXT UNL     1      40.970 -26.463 -13.947  0.00  0.00    -0.253 OA
ATOM      7  C   UNL     1      40.242 -25.927 -14.772  0.00  0.00    +0.293 C 
BRANCH   7   8
ATOM      8  O   UNL     1      40.494 -25.967 -16.108  0.00  0.00    -0.482 OA
ATOM      9  H   UNL     1      40.924 -26.711 -16.482  0.00  0.00    +0.295 HD
ENDBRANCH   7   8
ENDBRANCH   1   7
BRANCH   1  10
ATOM     10  C   UNL     1      38.682 -25.210 -12.952  0.00  0.00    +0.021 C 
BRANCH  10  11
ATOM     11  C   UNL     1      37.212 -25.391 -12.578  0.00  0.00    +0.136 C 
BRANCH  11  12
ATOM     12  O   UNL     1      36.827 -26.755 -12.667  0.00  0.00    -0.382 OA
ATOM     13  H   UNL     1      36.480 -27.049 -11.810  0.00  0.00    +0.210 HD
ENDBRANCH  11  12
ENDBRANCH  10  11
ENDBRANCH   1  10
TORSDOF 6
ENDMDL
MODEL 2
REMARK VINA RESULT:      -5.0      1.977      2.217
REMARK  Name = 12647
REMARK  6 active torsions:
REMARK  status: ('A' for Active; 'I' for Inactive)
REMARK    1  A    between atoms: CA_1  and  N_2
REMARK    2  A    between atoms: CA_1  and  C_7
REMARK    3  A    between atoms: CA_1  and  C_10
REMARK    4  A    between atoms: C_7  and  O_8
REMARK    5  A    between atoms: C_10  and  C_11
REMARK    6  A    between atoms: C_11  and  O_12
REMARK                            x       y       z     vdW  Elec       q    Type
REMARK                         _______ _______ _______ _____ _____    ______ ____
ROOT
ATOM      1  CA  UNL     1      38.705 -25.173 -14.517  0.00  0.00    +0.038 C 
ENDROOT
BRANCH   1   2
ATOM      2  N   UNL     1      38.045 -24.309 -15.496  0.00  0.00    +0.389 N 
ATOM      3  H1  UNL     1      37.433 -24.870 -16.088  0.00  0.00    -0.088 HD
ATOM      4  H2  UNL     1      38.749 -23.849 -16.073  0.00  0.00    -0.088 HD
ATOM      5  H3  UNL     1      37.492 -23.603 -15.009  0.00  0.00    -0.088 HD
ENDBRANCH   1   2
BRANCH   1   7
ATOM      6  OXT UNL     1      40.516 -26.085 -15.880  0.00  0.00    -0.253 OA
ATOM      7  C   UNL     1      40.143 -25.353 -14.973  0.00  0.00    +0.293 C 
BRANCH   7   8
ATOM      8  O   UNL     1      41.002 -24.582 -14.253  0.00  0.00    -0.482 OA
ATOM      9  H   UNL     1      40.815 -24.382 -13.357  0.00  0.00    +0.295 HD
ENDBRANCH   7   8
ENDBRANCH   1   7
BRANCH   1  10
ATOM     10  C   UNL     1      38.018 -26.542 -14.395  0.00  0.00    +0.021 C 
BRANCH  10  11
ATOM     11  C   UNL     1      36.690 -26.666 -15.138  0.00  0.00    +0.136 C 
BRANCH  11  12
ATOM     12  O   UNL     1      36.866 -27.304 -16.395  0.00  0.00    -0.382 OA
ATOM     13  H   UNL     1      36.766 -28.263 -16.287  0.00  0.00    +0.210 HD
ENDBRANCH  11  12
ENDBRANCH  10  11
ENDBRANCH   1  10
TORSDOF 6
ENDMDL
MODEL 3
REMARK VINA RESULT:      -4.8      1.719      1.719
REMARK  Name = 12647
REMARK  6 active torsions:
REMARK  status: ('A' for Active; 'I' for Inactive)
REMARK    1  A    between atoms: CA_1  and  N_2
REMARK    2  A    between atoms: CA_1  and  C_7
REMARK    3  A    between atoms: CA_1  and  C_10
REMARK    4  A    between atoms: C_7  and  O_8
REMARK    5  A    between atoms: C_10  and  C_11
REMARK    6  A    between atoms: C_11  and  O_12
REMARK                            x       y       z     vdW  Elec       q    Type
REMARK                         _______ _______ _______ _____ _____    ______ ____
ROOT
ATOM      1  CA  UNL     1      38.675 -25.061 -14.601  0.00  0.00    +0.038 C 
ENDROOT
BRANCH   1   2
ATOM      2  N   UNL     1      37.952 -26.123 -15.301  0.00  0.00    +0.389 N 
ATOM      3  H1  UNL     1      38.050 -25.995 -16.308  0.00  0.00    -0.088 HD
ATOM      4  H2  UNL     1      36.965 -26.089 -15.047  0.00  0.00    -0.088 HD
ATOM      5  H3  UNL     1      38.339 -27.030 -15.035  0.00  0.00    -0.088 HD
ENDBRANCH   1   2
BRANCH   1   7
ATOM      6  OXT UNL     1      41.082 -24.708 -14.370  0.00  0.00    -0.253 OA
ATOM      7  C   UNL     1      40.138 -25.179 -14.992  0.00  0.00    +0.293 C 
BRANCH   7   8
ATOM      8  O   UNL     1      40.300 -25.898 -16.136  0.00  0.00    -0.482 OA
ATOM      9  H   UNL     1      40.815 -26.680 -16.130  0.00  0.00    +0.295 HD
ENDBRANCH   7   8
ENDBRANCH   1   7
BRANCH   1  10
ATOM     10  C   UNL     1      38.529 -25.166 -13.076  0.00  0.00    +0.021 C 
BRANCH  10  11
ATOM     11  C   UNL     1      37.804 -23.996 -12.415  0.00  0.00    +0.136 C 
BRANCH  11  12
ATOM     12  O   UNL     1      38.699 -23.214 -11.638  0.00  0.00    -0.382 OA
ATOM     13  H   UNL     1      38.823 -22.349 -12.061  0.00  0.00    +0.210 HD
ENDBRANCH  11  12
ENDBRANCH  10  11
ENDBRANCH   1  10
TORSDOF 6
ENDMDL
MODEL 4
REMARK VINA RESULT:      -4.7      2.255      2.482
REMARK  Name = 12647
REMARK  6 active torsions:
REMARK  status: ('A' for Active; 'I' for Inactive)
REMARK    1  A    between atoms: CA_1  and  N_2
REMARK    2  A    between atoms: CA_1  and  C_7
REMARK    3  A    between atoms: CA_1  and  C_10
REMARK    4  A    between atoms: C_7  and  O_8
REMARK    5  A    between atoms: C_10  and  C_11
REMARK    6  A    between atoms: C_11  and  O_12
REMARK                            x       y       z     vdW  Elec       q    Type
REMARK                         _______ _______ _______ _____ _____    ______ ____
ROOT
ATOM      1  CA  UNL     1      36.710 -25.332 -14.838  0.00  0.00    +0.038 C 
ENDROOT
BRANCH   1   2
ATOM      2  N   UNL     1      35.281 -25.560 -14.624  0.00  0.00    +0.389 N 
ATOM      3  H1  UNL     1      35.153 -26.372 -14.020  0.00  0.00    -0.088 HD
ATOM      4  H2  UNL     1      34.825 -25.727 -15.521  0.00  0.00    -0.088 HD
ATOM      5  H3  UNL     1      34.868 -24.738 -14.181  0.00  0.00    -0.088 HD
ENDBRANCH   1   2
BRANCH   1   7
ATOM      6  OXT UNL     1      38.241 -27.219 -14.586  0.00  0.00    -0.253 OA
ATOM      7  C   UNL     1      37.332 -26.672 -15.194  0.00  0.00    +0.293 C 
BRANCH   7   8
ATOM      8  O   UNL     1      36.745 -27.226 -16.289  0.00  0.00    -0.482 OA
ATOM      9  H   UNL     1      35.881 -27.585 -16.228  0.00  0.00    +0.295 HD
ENDBRANCH   7   8
ENDBRANCH   1   7
BRANCH   1  10
ATOM     10  C   UNL     1      37.399 -24.749 -13.594  0.00  0.00    +0.021 C 
BRANCH  10  11
ATOM     11  C   UNL     1      36.687 -25.030 -12.273  0.00  0.00    +0.136 C 
BRANCH  11  12
ATOM     12  O   UNL     1      36.780 -26.403 -11.924  0.00  0.00    -0.382 OA
ATOM     13  H   UNL     1      36.295 -26.935 -12.575  0.00  0.00    +0.210 HD
ENDBRANCH  11  12
ENDBRANCH  10  11
ENDBRANCH   1  10
TORSDOF 6
ENDMDL
MODEL 5
REMARK VINA RESULT:      -4.6      9.770     11.303
REMARK  Name = 12647
REMARK  6 active torsions:
REMARK  status: ('A' for Active; 'I' for Inactive)
REMARK    1  A    between atoms: CA_1  and  N_2
REMARK    2  A    between atoms: CA_1  and  C_7
REMARK    3  A    between atoms: CA_1  and  C_10
REMARK    4  A    between atoms: C_7  and  O_8
REMARK    5  A    between atoms: C_10  and  C_11
REMARK    6  A    between atoms: C_11  and  O_12
REMARK                            x       y       z     vdW  Elec       q    Type
REMARK                         _______ _______ _______ _____ _____    ______ ____
ROOT
ATOM      1  CA  UNL     1      28.387 -23.472 -15.554  0.00  0.00    +0.038 C 
ENDROOT
BRANCH   1   2
ATOM      2  N   UNL     1      28.605 -24.409 -16.656  0.00  0.00    +0.389 N 
ATOM      3  H1  UNL     1      28.405 -23.945 -17.542  0.00  0.00    -0.088 HD
ATOM      4  H2  UNL     1      27.989 -25.214 -16.546  0.00  0.00    -0.088 HD
ATOM      5  H3  UNL     1      29.577 -24.722 -16.649  0.00  0.00    -0.088 HD
ENDBRANCH   1   2
BRANCH   1   7
ATOM      6  OXT UNL     1      26.267 -22.257 -15.582  0.00  0.00    -0.253 OA
ATOM      7  C   UNL     1      27.390 -22.433 -16.038  0.00  0.00    +0.293 C 
BRANCH   7   8
ATOM      8  O   UNL     1      27.893 -21.684 -17.055  0.00  0.00    -0.482 OA
ATOM      9  H   UNL     1      28.514 -21.005 -16.876  0.00  0.00    +0.295 HD
ENDBRANCH   7   8
ENDBRANCH   1   7
BRANCH   1  10
ATOM     10  C   UNL     1      29.687 -22.784 -15.110  0.00  0.00    +0.021 C 
BRANCH  10  11
ATOM     11  C   UNL     1      30.914 -23.114 -15.957  0.00  0.00    +0.136 C 
BRANCH  11  12
ATOM     12  O   UNL     1      30.865 -22.447 -17.210  0.00  0.00    -0.382 OA
ATOM     13  H   UNL     1      30.881 -21.487 -17.065  0.00  0.00    +0.210 HD
ENDBRANCH  11  12
ENDBRANCH  10  11
ENDBRANCH   1  10
TORSDOF 6
ENDMDL
MODEL 6
REMARK VINA RESULT:      -4.4      2.936      4.832
REMARK  Name = 12647
REMARK  6 active torsions:
REMARK  status: ('A' for Active; 'I' for Inactive)
REMARK    1  A    between atoms: CA_1  and  N_2
REMARK    2  A    between atoms: CA_1  and  C_7
REMARK    3  A    between atoms: CA_1  and  C_10
REMARK    4  A    between atoms: C_7  and  O_8
REMARK    5  A    between atoms: C_10  and  C_11
REMARK    6  A    between atoms: C_11  and  O_12
REMARK                            x       y       z     vdW  Elec       q    Type
REMARK                         _______ _______ _______ _____ _____    ______ ____
ROOT
ATOM      1  CA  UNL     1      35.798 -24.507 -12.180  0.00  0.00    +0.038 C 
ENDROOT
BRANCH   1   2
ATOM      2  N   UNL     1      35.872 -23.290 -12.988  0.00  0.00    +0.389 N 
ATOM      3  H1  UNL     1      36.352 -23.492 -13.865  0.00  0.00    -0.088 HD
ATOM      4  H2  UNL     1      36.385 -22.572 -12.476  0.00  0.00    -0.088 HD
ATOM      5  H3  UNL     1      34.928 -22.956 -13.187  0.00  0.00    -0.088 HD
ENDBRANCH   1   2
BRANCH   1   7
ATOM      6  OXT UNL     1      35.387 -24.524  -9.772  0.00  0.00    -0.253 OA
ATOM      7  C   UNL     1      36.016 -24.101 -10.733  0.00  0.00    +0.293 C 
BRANCH   7   8
ATOM      8  O   UNL     1      37.024 -23.196 -10.607  0.00  0.00    -0.482 OA
ATOM      9  H   UNL     1      36.843 -22.279 -10.679  0.00  0.00    +0.295 HD
ENDBRANCH   7   8
ENDBRANCH   1   7
BRANCH   1  10
ATOM     10  C   UNL     1      36.850 -25.546 -12.597  0.00  0.00    +0.021 C 
BRANCH  10  11
ATOM     11  C   UNL     1      37.967 -25.010 -13.491  0.00  0.00    +0.136 C 
BRANCH  11  12
ATOM     12  O   UNL     1      38.846 -24.168 -12.761  0.00  0.00    -0.382 OA
ATOM     13  H   UNL     1      38.554 -23.247 -12.843  0.00  0.00    +0.210 HD
ENDBRANCH  11  12
ENDBRANCH  10  11
ENDBRANCH   1  10
TORSDOF 6
ENDMDL
MODEL 7
REMARK VINA RESULT:      -4.4     11.803     12.501
REMARK  Name = 12647
REMARK  6 active torsions:
REMARK  status: ('A' for Active; 'I' for Inactive)
REMARK    1  A    between atoms: CA_1  and  N_2
REMARK    2  A    between atoms: CA_1  and  C_7
REMARK    3  A    between atoms: CA_1  and  C_10
REMARK    4  A    between atoms: C_7  and  O_8
REMARK    5  A    between atoms: C_10  and  C_11
REMARK    6  A    between atoms: C_11  and  O_12
REMARK                            x       y       z     vdW  Elec       q    Type
REMARK                         _______ _______ _______ _____ _____    ______ ____
ROOT
ATOM      1  CA  UNL     1      41.252 -14.253 -15.920  0.00  0.00    +0.038 C 
ENDROOT
BRANCH   1   2
ATOM      2  N   UNL     1      41.071 -13.510 -14.673  0.00  0.00    +0.389 N 
ATOM      3  H1  UNL     1      41.294 -14.113 -13.882  0.00  0.00    -0.088 HD
ATOM      4  H2  UNL     1      40.103 -13.196 -14.601  0.00  0.00    -0.088 HD
ATOM      5  H3  UNL     1      41.691 -12.699 -14.668  0.00  0.00    -0.088 HD
ENDBRANCH   1   2
BRANCH   1   7
ATOM      6  OXT UNL     1      42.225 -16.474 -15.617  0.00  0.00    -0.253 OA
ATOM      7  C   UNL     1      41.254 -15.731 -15.566  0.00  0.00    +0.293 C 
BRANCH   7   8
ATOM      8  O   UNL     1      40.027 -16.156 -15.162  0.00  0.00    -0.482 OA
ATOM      9  H   UNL     1      39.328 -15.540 -15.056  0.00  0.00    +0.295 HD
ENDBRANCH   7   8
ENDBRANCH   1   7
BRANCH   1  10
ATOM     10  C   UNL     1      42.561 -13.883 -16.634  0.00  0.00    +0.021 C 
BRANCH  10  11
ATOM     11  C   UNL     1      42.569 -12.506 -17.292  0.00  0.00    +0.136 C 
BRANCH  11  12
ATOM     12  O   UNL     1      42.770 -11.481 -16.330  0.00  0.00    -0.382 OA
ATOM     13  H   UNL     1      42.888 -10.631 -16.783  0.00  0.00    +0.210 HD
ENDBRANCH  11  12
ENDBRANCH  10  11
ENDBRANCH   1  10
TORSDOF 6
ENDMDL
MODEL 8
REMARK VINA RESULT:      -4.4      2.512      3.448
REMARK  Name = 12647
REMARK  6 active torsions:
REMARK  status: ('A' for Active; 'I' for Inactive)
REMARK    1  A    between atoms: CA_1  and  N_2
REMARK    2  A    between atoms: CA_1  and  C_7
REMARK    3  A    between atoms: CA_1  and  C_10
REMARK    4  A    between atoms: C_7  and  O_8
REMARK    5  A    between atoms: C_10  and  C_11
REMARK    6  A    between atoms: C_11  and  O_12
REMARK                            x       y       z     vdW  Elec       q    Type
REMARK                         _______ _______ _______ _____ _____    ______ ____
ROOT
ATOM      1  CA  UNL     1      38.469 -24.697 -13.430  0.00  0.00    +0.038 C 
ENDROOT
BRANCH   1   2
ATOM      2  N   UNL     1      39.041 -26.039 -13.319  0.00  0.00    +0.389 N 
ATOM      3  H1  UNL     1      38.347 -26.674 -12.925  0.00  0.00    -0.088 HD
ATOM      4  H2  UNL     1      39.860 -26.010 -12.712  0.00  0.00    -0.088 HD
ATOM      5  H3  UNL     1      39.316 -26.369 -14.245  0.00  0.00    -0.088 HD
ENDBRANCH   1   2
BRANCH   1   7
ATOM      6  OXT UNL     1      37.405 -24.856 -11.236  0.00  0.00    -0.253 OA
ATOM      7  C   UNL     1      38.111 -24.243 -12.025  0.00  0.00    +0.293 C 
BRANCH   7   8
ATOM      8  O   UNL     1      38.686 -23.049 -11.718  0.00  0.00    -0.482 OA
ATOM      9  H   UNL     1      38.204 -22.253 -11.830  0.00  0.00    +0.295 HD
ENDBRANCH   7   8
ENDBRANCH   1   7
BRANCH   1  10
ATOM     10  C   UNL     1      37.219 -24.670 -14.324  0.00  0.00    +0.021 C 
BRANCH  10  11
ATOM     11  C   UNL     1      36.676 -26.043 -14.715  0.00  0.00    +0.136 C 
BRANCH  11  12
ATOM     12  O   UNL     1      37.397 -26.583 -15.812  0.00  0.00    -0.382 OA
ATOM     13  H   UNL     1      37.450 -27.548 -15.720  0.00  0.00    +0.210 HD
ENDBRANCH  11  12
ENDBRANCH  10  11
ENDBRANCH   1  10
TORSDOF 6
ENDMDL
MODEL 9
REMARK VINA RESULT:      -4.4      9.938     10.787
REMARK  Name = 12647
REMARK  6 active torsions:
REMARK  status: ('A' for Active; 'I' for Inactive)
REMARK    1  A    between atoms: CA_1  and  N_2
REMARK    2  A    between atoms: CA_1  and  C_7
REMARK    3  A    between atoms: CA_1  and  C_10
REMARK    4  A    between atoms: C_7  and  O_8
REMARK    5  A    between atoms: C_10  and  C_11
REMARK    6  A    between atoms: C_11  and  O_12
REMARK                            x       y       z     vdW  Elec       q    Type
REMARK                         _______ _______ _______ _____ _____    ______ ____
ROOT
ATOM      1  CA  UNL     1      29.558 -23.195 -16.260  0.00  0.00    +0.038 C 
ENDROOT
BRANCH   1   2
ATOM      2  N   UNL     1      29.386 -22.512 -14.978  0.00  0.00    +0.389 N 
ATOM      3  H1  UNL     1      30.299 -22.339 -14.559  0.00  0.00    -0.088 HD
ATOM      4  H2  UNL     1      28.829 -23.095 -14.353  0.00  0.00    -0.088 HD
ATOM      5  H3  UNL     1      28.907 -21.623 -15.127  0.00  0.00    -0.088 HD
ENDBRANCH   1   2
BRANCH   1   7
ATOM      6  OXT UNL     1      27.647 -23.985 -17.562  0.00  0.00    -0.253 OA
ATOM      7  C   UNL     1      28.247 -23.067 -17.017  0.00  0.00    +0.293 C 
BRANCH   7   8
ATOM      8  O   UNL     1      27.784 -21.788 -17.017  0.00  0.00    -0.482 OA
ATOM      9  H   UNL     1      28.378 -21.075 -16.884  0.00  0.00    +0.295 HD
ENDBRANCH   7   8
ENDBRANCH   1   7
BRANCH   1  10
ATOM     10  C   UNL     1      29.920 -24.677 -16.085  0.00  0.00    +0.021 C 
BRANCH  10  11
ATOM     11  C   UNL     1      29.856 -25.192 -14.648  0.00  0.00    +0.136 C 
BRANCH  11  12
ATOM     12  O   UNL     1      28.520 -25.486 -14.270  0.00  0.00    -0.382 OA
ATOM     13  H   UNL     1      28.523 -26.158 -13.569  0.00  0.00    +0.210 HD
ENDBRANCH  11  12
ENDBRANCH  10  11
ENDBRANCH   1  10
TORSDOF 6
ENDMDL
