MODEL 1
REMARK VINA RESULT:      -9.6      0.000      0.000
REMARK  Name = 46937157
REMARK  6 active torsions:
REMARK  status: ('A' for Active; 'I' for Inactive)
REMARK    1  A    between atoms: C_5  and  O_19
REMARK    2  A    between atoms: C_7  and  O_21
REMARK    3  A    between atoms: C_8  and  O_23
REMARK    4  A    between atoms: C_9  and  C_25
REMARK    5  A    between atoms: C_10  and  C_12
REMARK    6  A    between atoms: C_25  and  O_26
REMARK                            x       y       z     vdW  Elec       q    Type
REMARK                         _______ _______ _______ _____ _____    ______ ____
ROOT
ATOM      1  O   UNL     1      36.975 -24.670 -15.450  0.00  0.00    -0.328 OA
ATOM      2  O   UNL     1      36.570 -22.381 -14.946  0.00  0.00    -0.260 OA
ATOM      3  N   UNL     1      36.711 -21.584 -16.167  0.00  0.00    -0.184 NA
ATOM      4  C   UNL     1      35.981 -23.647 -15.284  0.00  0.00    +0.234 C 
ATOM      5  C   UNL     1      34.977 -24.081 -14.207  0.00  0.00    +0.193 C 
ATOM      6  C   UNL     1      35.323 -23.410 -16.631  0.00  0.00    +0.083 C 
ATOM      7  C   UNL     1      35.685 -24.405 -12.892  0.00  0.00    +0.171 C 
ATOM      8  C   UNL     1      36.827 -25.396 -13.124  0.00  0.00    +0.169 C 
ATOM      9  C   UNL     1      37.736 -24.927 -14.266  0.00  0.00    +0.176 C 
ATOM     10  C   UNL     1      36.308 -22.456 -17.277  0.00  0.00    +0.107 C 
ATOM     11  H   UNL     1      37.679 -21.286 -16.285  0.00  0.00    +0.155 HD
ENDROOT
BRANCH  10  12
ATOM     12  C   UNL     1      35.745 -21.698 -18.455  0.00  0.00    -0.006 C 
ATOM     13  C   UNL     1      34.388 -21.797 -18.764  0.00  0.00    -0.003 C 
ATOM     14  C   UNL     1      36.581 -20.900 -19.236  0.00  0.00    -0.003 C 
ATOM     15  C   UNL     1      33.867 -21.097 -19.851  0.00  0.00    -0.005 C 
ATOM     16  C   UNL     1      36.060 -20.200 -20.324  0.00  0.00    -0.005 C 
ATOM     17  C   UNL     1      34.703 -20.298 -20.632  0.00  0.00    -0.022 C 
ATOM     18  C   UNL     1      34.145 -19.547 -21.793  0.00  0.00    +0.031 C 
ENDBRANCH  10  12
BRANCH   5  19
ATOM     19  O   UNL     1      34.021 -23.046 -13.986  0.00  0.00    -0.378 OA
ATOM     20  H   UNL     1      34.036 -22.787 -13.052  0.00  0.00    +0.211 HD
ENDBRANCH   5  19
BRANCH   7  21
ATOM     21  O   UNL     1      34.733 -24.990 -12.003  0.00  0.00    -0.379 OA
ATOM     22  H   UNL     1      34.684 -24.464 -11.189  0.00  0.00    +0.211 HD
ENDBRANCH   7  21
BRANCH   8  23
ATOM     23  O   UNL     1      37.569 -25.505 -11.912  0.00  0.00    -0.379 OA
ATOM     24  H   UNL     1      37.150 -24.960 -11.227  0.00  0.00    +0.211 HD
ENDBRANCH   8  23
BRANCH   9  25
ATOM     25  C   UNL     1      38.785 -25.975 -14.630  0.00  0.00    +0.169 C 
BRANCH  25  26
ATOM     26  O   UNL     1      38.183 -27.254 -14.569  0.00  0.00    -0.379 OA
ATOM     27  H   UNL     1      38.617 -27.784 -13.883  0.00  0.00    +0.211 HD
ENDBRANCH  25  26
ENDBRANCH   9  25
TORSDOF 6
ENDMDL
MODEL 2
REMARK VINA RESULT:      -9.5      1.395      2.818
REMARK  Name = 46937157
REMARK  6 active torsions:
REMARK  status: ('A' for Active; 'I' for Inactive)
REMARK    1  A    between atoms: C_5  and  O_19
REMARK    2  A    between atoms: C_7  and  O_21
REMARK    3  A    between atoms: C_8  and  O_23
REMARK    4  A    between atoms: C_9  and  C_25
REMARK    5  A    between atoms: C_10  and  C_12
REMARK    6  A    between atoms: C_25  and  O_26
REMARK                            x       y       z     vdW  Elec       q    Type
REMARK                         _______ _______ _______ _____ _____    ______ ____
ROOT
ATOM      1  O   UNL     1      36.329 -23.661 -13.671  0.00  0.00    -0.328 OA
ATOM      2  O   UNL     1      35.965 -25.097 -15.532  0.00  0.00    -0.260 OA
ATOM      3  N   UNL     1      35.177 -24.389 -16.544  0.00  0.00    -0.184 NA
ATOM      4  C   UNL     1      36.862 -24.165 -14.906  0.00  0.00    +0.234 C 
ATOM      5  C   UNL     1      38.225 -24.817 -14.645  0.00  0.00    +0.193 C 
ATOM      6  C   UNL     1      36.948 -23.008 -15.886  0.00  0.00    +0.083 C 
ATOM      7  C   UNL     1      38.119 -25.912 -13.584  0.00  0.00    +0.171 C 
ATOM      8  C   UNL     1      37.425 -25.379 -12.328  0.00  0.00    +0.169 C 
ATOM      9  C   UNL     1      36.112 -24.675 -12.685  0.00  0.00    +0.176 C 
ATOM     10  C   UNL     1      35.531 -22.970 -16.423  0.00  0.00    +0.107 C 
ATOM     11  H   UNL     1      34.180 -24.521 -16.371  0.00  0.00    +0.155 HD
ENDROOT
BRANCH  10  12
ATOM     12  C   UNL     1      35.387 -22.208 -17.718  0.00  0.00    -0.006 C 
ATOM     13  C   UNL     1      34.151 -22.156 -18.364  0.00  0.00    -0.003 C 
ATOM     14  C   UNL     1      36.489 -21.555 -18.270  0.00  0.00    -0.003 C 
ATOM     15  C   UNL     1      34.018 -21.452 -19.560  0.00  0.00    -0.005 C 
ATOM     16  C   UNL     1      36.356 -20.850 -19.466  0.00  0.00    -0.005 C 
ATOM     17  C   UNL     1      35.120 -20.799 -20.111  0.00  0.00    -0.022 C 
ATOM     18  C   UNL     1      34.977 -20.042 -21.388  0.00  0.00    +0.031 C 
ENDBRANCH  10  12
BRANCH   5  19
ATOM     19  O   UNL     1      38.736 -25.379 -15.852  0.00  0.00    -0.378 OA
ATOM     20  H   UNL     1      39.705 -25.414 -15.807  0.00  0.00    +0.211 HD
ENDBRANCH   5  19
BRANCH   7  21
ATOM     21  O   UNL     1      39.440 -26.335 -13.242  0.00  0.00    -0.379 OA
ATOM     22  H   UNL     1      39.945 -25.578 -12.906  0.00  0.00    +0.211 HD
ENDBRANCH   7  21
BRANCH   8  23
ATOM     23  O   UNL     1      37.177 -26.483 -11.461  0.00  0.00    -0.379 OA
ATOM     24  H   UNL     1      36.383 -26.956 -11.759  0.00  0.00    +0.211 HD
ENDBRANCH   8  23
BRANCH   9  25
ATOM     25  C   UNL     1      35.481 -23.990 -11.474  0.00  0.00    +0.169 C 
BRANCH  25  26
ATOM     26  O   UNL     1      35.209 -24.973 -10.493  0.00  0.00    -0.379 OA
ATOM     27  H   UNL     1      35.944 -25.012  -9.861  0.00  0.00    +0.211 HD
ENDBRANCH  25  26
ENDBRANCH   9  25
TORSDOF 6
ENDMDL
MODEL 3
REMARK VINA RESULT:      -9.0      3.474      4.425
REMARK  Name = 46937157
REMARK  6 active torsions:
REMARK  status: ('A' for Active; 'I' for Inactive)
REMARK    1  A    between atoms: C_5  and  O_19
REMARK    2  A    between atoms: C_7  and  O_21
REMARK    3  A    between atoms: C_8  and  O_23
REMARK    4  A    between atoms: C_9  and  C_25
REMARK    5  A    between atoms: C_10  and  C_12
REMARK    6  A    between atoms: C_25  and  O_26
REMARK                            x       y       z     vdW  Elec       q    Type
REMARK                         _______ _______ _______ _____ _____    ______ ____
ROOT
ATOM      1  O   UNL     1      36.078 -25.507 -14.412  0.00  0.00    -0.328 OA
ATOM      2  O   UNL     1      35.831 -23.158 -14.684  0.00  0.00    -0.260 OA
ATOM      3  N   UNL     1      34.622 -22.885 -15.465  0.00  0.00    -0.184 NA
ATOM      4  C   UNL     1      35.588 -24.289 -13.832  0.00  0.00    +0.234 C 
ATOM      5  C   UNL     1      36.237 -24.080 -12.458  0.00  0.00    +0.193 C 
ATOM      6  C   UNL     1      34.074 -24.383 -13.754  0.00  0.00    +0.083 C 
ATOM      7  C   UNL     1      37.761 -24.087 -12.561  0.00  0.00    +0.171 C 
ATOM      8  C   UNL     1      38.245 -25.334 -13.304  0.00  0.00    +0.169 C 
ATOM      9  C   UNL     1      37.493 -25.512 -14.627  0.00  0.00    +0.176 C 
ATOM     10  C   UNL     1      33.679 -23.966 -15.156  0.00  0.00    +0.107 C 
ATOM     11  H   UNL     1      34.840 -22.879 -16.462  0.00  0.00    +0.155 HD
ENDROOT
BRANCH  10  12
ATOM     12  C   UNL     1      32.233 -23.551 -15.287  0.00  0.00    -0.006 C 
ATOM     13  C   UNL     1      31.732 -23.152 -16.526  0.00  0.00    -0.003 C 
ATOM     14  C   UNL     1      31.399 -23.566 -14.170  0.00  0.00    -0.003 C 
ATOM     15  C   UNL     1      30.396 -22.769 -16.648  0.00  0.00    -0.005 C 
ATOM     16  C   UNL     1      30.064 -23.183 -14.291  0.00  0.00    -0.005 C 
ATOM     17  C   UNL     1      29.562 -22.784 -15.530  0.00  0.00    -0.022 C 
ATOM     18  C   UNL     1      28.133 -22.379 -15.661  0.00  0.00    +0.031 C 
ENDBRANCH  10  12
BRANCH   5  19
ATOM     19  O   UNL     1      35.807 -22.841 -11.899  0.00  0.00    -0.378 OA
ATOM     20  H   UNL     1      36.580 -22.281 -11.722  0.00  0.00    +0.211 HD
ENDBRANCH   5  19
BRANCH   7  21
ATOM     21  O   UNL     1      38.300 -24.094 -11.239  0.00  0.00    -0.379 OA
ATOM     22  H   UNL     1      38.252 -24.991 -10.874  0.00  0.00    +0.211 HD
ENDBRANCH   7  21
BRANCH   8  23
ATOM     23  O   UNL     1      39.643 -25.190 -13.543  0.00  0.00    -0.379 OA
ATOM     24  H   UNL     1      40.127 -25.302 -12.710  0.00  0.00    +0.211 HD
ENDBRANCH   8  23
BRANCH   9  25
ATOM     25  C   UNL     1      37.836 -26.834 -15.309  0.00  0.00    +0.169 C 
BRANCH  25  26
ATOM     26  O   UNL     1      36.806 -27.146 -16.228  0.00  0.00    -0.379 OA
ATOM     27  H   UNL     1      36.690 -26.408 -16.846  0.00  0.00    +0.211 HD
ENDBRANCH  25  26
ENDBRANCH   9  25
TORSDOF 6
ENDMDL
MODEL 4
REMARK VINA RESULT:      -8.9      3.563      4.938
REMARK  Name = 46937157
REMARK  6 active torsions:
REMARK  status: ('A' for Active; 'I' for Inactive)
REMARK    1  A    between atoms: C_5  and  O_19
REMARK    2  A    between atoms: C_7  and  O_21
REMARK    3  A    between atoms: C_8  and  O_23
REMARK    4  A    between atoms: C_9  and  C_25
REMARK    5  A    between atoms: C_10  and  C_12
REMARK    6  A    between atoms: C_25  and  O_26
REMARK                            x       y       z     vdW  Elec       q    Type
REMARK                         _______ _______ _______ _____ _____    ______ ____
ROOT
ATOM      1  O   UNL     1      35.854 -23.393 -13.431  0.00  0.00    -0.328 OA
ATOM      2  O   UNL     1      34.443 -25.305 -13.523  0.00  0.00    -0.260 OA
ATOM      3  N   UNL     1      33.042 -24.874 -13.528  0.00  0.00    -0.184 NA
ATOM      4  C   UNL     1      35.221 -24.363 -14.280  0.00  0.00    +0.234 C 
ATOM      5  C   UNL     1      36.286 -25.087 -15.111  0.00  0.00    +0.193 C 
ATOM      6  C   UNL     1      34.201 -23.639 -15.142  0.00  0.00    +0.083 C 
ATOM      7  C   UNL     1      37.348 -25.723 -14.215  0.00  0.00    +0.171 C 
ATOM      8  C   UNL     1      37.909 -24.694 -13.231  0.00  0.00    +0.169 C 
ATOM      9  C   UNL     1      36.778 -23.962 -12.499  0.00  0.00    +0.176 C 
ATOM     10  C   UNL     1      33.014 -23.571 -14.202  0.00  0.00    +0.107 C 
ATOM     11  H   UNL     1      32.697 -24.786 -12.572  0.00  0.00    +0.155 HD
ENDROOT
BRANCH  10  12
ATOM     12  C   UNL     1      31.702 -23.285 -14.892  0.00  0.00    -0.006 C 
ATOM     13  C   UNL     1      31.680 -22.997 -16.257  0.00  0.00    -0.003 C 
ATOM     14  C   UNL     1      30.512 -23.311 -14.166  0.00  0.00    -0.003 C 
ATOM     15  C   UNL     1      30.469 -22.733 -16.895  0.00  0.00    -0.005 C 
ATOM     16  C   UNL     1      29.300 -23.047 -14.804  0.00  0.00    -0.005 C 
ATOM     17  C   UNL     1      29.278 -22.758 -16.168  0.00  0.00    -0.022 C 
ATOM     18  C   UNL     1      27.982 -22.481 -16.851  0.00  0.00    +0.031 C 
ENDBRANCH  10  12
BRANCH   5  19
ATOM     19  O   UNL     1      35.678 -26.099 -15.912  0.00  0.00    -0.378 OA
ATOM     20  H   UNL     1      36.110 -26.950 -15.740  0.00  0.00    +0.211 HD
ENDBRANCH   5  19
BRANCH   7  21
ATOM     21  O   UNL     1      38.409 -26.200 -15.044  0.00  0.00    -0.379 OA
ATOM     22  H   UNL     1      39.059 -26.670 -14.499  0.00  0.00    +0.211 HD
ENDBRANCH   7  21
BRANCH   8  23
ATOM     23  O   UNL     1      38.739 -25.382 -12.299  0.00  0.00    -0.379 OA
ATOM     24  H   UNL     1      39.027 -26.226 -12.684  0.00  0.00    +0.211 HD
ENDBRANCH   8  23
BRANCH   9  25
ATOM     25  C   UNL     1      37.301 -22.817 -11.635  0.00  0.00    +0.169 C 
BRANCH  25  26
ATOM     26  O   UNL     1      38.706 -22.745 -11.787  0.00  0.00    -0.379 OA
ATOM     27  H   UNL     1      39.099 -23.605 -11.570  0.00  0.00    +0.211 HD
ENDBRANCH  25  26
ENDBRANCH   9  25
TORSDOF 6
ENDMDL
MODEL 5
REMARK VINA RESULT:      -8.9      8.052     12.107
REMARK  Name = 46937157
REMARK  6 active torsions:
REMARK  status: ('A' for Active; 'I' for Inactive)
REMARK    1  A    between atoms: C_5  and  O_19
REMARK    2  A    between atoms: C_7  and  O_21
REMARK    3  A    between atoms: C_8  and  O_23
REMARK    4  A    between atoms: C_9  and  C_25
REMARK    5  A    between atoms: C_10  and  C_12
REMARK    6  A    between atoms: C_25  and  O_26
REMARK                            x       y       z     vdW  Elec       q    Type
REMARK                         _______ _______ _______ _____ _____    ______ ____
ROOT
ATOM      1  O   UNL     1      33.296 -14.762 -23.224  0.00  0.00    -0.328 OA
ATOM      2  O   UNL     1      35.440 -15.698 -23.646  0.00  0.00    -0.260 OA
ATOM      3  N   UNL     1      35.837 -16.533 -22.509  0.00  0.00    -0.184 NA
ATOM      4  C   UNL     1      34.024 -15.831 -23.847  0.00  0.00    +0.234 C 
ATOM      5  C   UNL     1      33.692 -15.870 -25.344  0.00  0.00    +0.193 C 
ATOM      6  C   UNL     1      33.662 -17.123 -23.136  0.00  0.00    +0.083 C 
ATOM      7  C   UNL     1      33.978 -14.524 -26.008  0.00  0.00    +0.171 C 
ATOM      8  C   UNL     1      33.297 -13.389 -25.241  0.00  0.00    +0.169 C 
ATOM      9  C   UNL     1      33.617 -13.469 -23.745  0.00  0.00    +0.176 C 
ATOM     10  C   UNL     1      34.597 -17.076 -21.944  0.00  0.00    +0.107 C 
ATOM     11  H   UNL     1      36.327 -15.971 -21.813  0.00  0.00    +0.155 HD
ENDROOT
BRANCH  10  12
ATOM     12  C   UNL     1      34.787 -18.410 -21.262  0.00  0.00    -0.006 C 
ATOM     13  C   UNL     1      36.073 -18.873 -20.984  0.00  0.00    -0.003 C 
ATOM     14  C   UNL     1      33.678 -19.178 -20.911  0.00  0.00    -0.003 C 
ATOM     15  C   UNL     1      36.249 -20.105 -20.354  0.00  0.00    -0.005 C 
ATOM     16  C   UNL     1      33.854 -20.410 -20.281  0.00  0.00    -0.005 C 
ATOM     17  C   UNL     1      35.140 -20.873 -20.002  0.00  0.00    -0.022 C 
ATOM     18  C   UNL     1      35.328 -22.188 -19.325  0.00  0.00    +0.031 C 
ENDBRANCH  10  12
BRANCH   5  19
ATOM     19  O   UNL     1      34.458 -16.886 -25.988  0.00  0.00    -0.378 OA
ATOM     20  H   UNL     1      35.038 -17.314 -25.338  0.00  0.00    +0.211 HD
ENDBRANCH   5  19
BRANCH   7  21
ATOM     21  O   UNL     1      33.463 -14.562 -27.340  0.00  0.00    -0.379 OA
ATOM     22  H   UNL     1      33.160 -13.676 -27.595  0.00  0.00    +0.211 HD
ENDBRANCH   7  21
BRANCH   8  23
ATOM     23  O   UNL     1      33.757 -12.153 -25.782  0.00  0.00    -0.379 OA
ATOM     24  H   UNL     1      34.467 -11.800 -25.222  0.00  0.00    +0.211 HD
ENDBRANCH   8  23
BRANCH   9  25
ATOM     25  C   UNL     1      32.819 -12.451 -22.933  0.00  0.00    +0.169 C 
BRANCH  25  26
ATOM     26  O   UNL     1      31.699 -13.106 -22.367  0.00  0.00    -0.379 OA
ATOM     27  H   UNL     1      31.180 -12.471 -21.851  0.00  0.00    +0.211 HD
ENDBRANCH  25  26
ENDBRANCH   9  25
TORSDOF 6
ENDMDL
MODEL 6
REMARK VINA RESULT:      -8.5      5.723      9.459
REMARK  Name = 46937157
REMARK  6 active torsions:
REMARK  status: ('A' for Active; 'I' for Inactive)
REMARK    1  A    between atoms: C_5  and  O_19
REMARK    2  A    between atoms: C_7  and  O_21
REMARK    3  A    between atoms: C_8  and  O_23
REMARK    4  A    between atoms: C_9  and  C_25
REMARK    5  A    between atoms: C_10  and  C_12
REMARK    6  A    between atoms: C_25  and  O_26
REMARK                            x       y       z     vdW  Elec       q    Type
REMARK                         _______ _______ _______ _____ _____    ______ ____
ROOT
ATOM      1  O   UNL     1      35.210 -19.396 -23.216  0.00  0.00    -0.328 OA
ATOM      2  O   UNL     1      33.605 -18.943 -21.522  0.00  0.00    -0.260 OA
ATOM      3  N   UNL     1      33.531 -20.084 -20.607  0.00  0.00    -0.184 NA
ATOM      4  C   UNL     1      34.967 -18.774 -21.945  0.00  0.00    +0.234 C 
ATOM      5  C   UNL     1      35.328 -17.286 -22.027  0.00  0.00    +0.193 C 
ATOM      6  C   UNL     1      35.781 -19.515 -20.898  0.00  0.00    +0.083 C 
ATOM      7  C   UNL     1      34.562 -16.594 -23.153  0.00  0.00    +0.171 C 
ATOM      8  C   UNL     1      34.732 -17.357 -24.469  0.00  0.00    +0.169 C 
ATOM      9  C   UNL     1      34.429 -18.847 -24.282  0.00  0.00    +0.176 C 
ATOM     10  C   UNL     1      34.869 -20.685 -20.588  0.00  0.00    +0.107 C 
ATOM     11  H   UNL     1      32.843 -20.761 -20.940  0.00  0.00    +0.155 HD
ENDROOT
BRANCH  10  12
ATOM     12  C   UNL     1      35.190 -21.384 -19.289  0.00  0.00    -0.006 C 
ATOM     13  C   UNL     1      36.458 -21.254 -18.722  0.00  0.00    -0.003 C 
ATOM     14  C   UNL     1      34.220 -22.160 -18.656  0.00  0.00    -0.003 C 
ATOM     15  C   UNL     1      36.755 -21.900 -17.522  0.00  0.00    -0.005 C 
ATOM     16  C   UNL     1      34.517 -22.805 -17.456  0.00  0.00    -0.005 C 
ATOM     17  C   UNL     1      35.785 -22.675 -16.888  0.00  0.00    -0.022 C 
ATOM     18  C   UNL     1      36.101 -23.362 -15.603  0.00  0.00    +0.031 C 
ENDBRANCH  10  12
BRANCH   5  19
ATOM     19  O   UNL     1      35.031 -16.643 -20.789  0.00  0.00    -0.378 OA
ATOM     20  H   UNL     1      35.816 -16.169 -20.474  0.00  0.00    +0.211 HD
ENDBRANCH   5  19
BRANCH   7  21
ATOM     21  O   UNL     1      35.087 -15.275 -23.308  0.00  0.00    -0.379 OA
ATOM     22  H   UNL     1      34.512 -14.642 -22.849  0.00  0.00    +0.211 HD
ENDBRANCH   7  21
BRANCH   8  23
ATOM     23  O   UNL     1      33.845 -16.786 -25.427  0.00  0.00    -0.379 OA
ATOM     24  H   UNL     1      33.846 -15.820 -25.333  0.00  0.00    +0.211 HD
ENDBRANCH   8  23
BRANCH   9  25
ATOM     25  C   UNL     1      34.750 -19.659 -25.534  0.00  0.00    +0.169 C 
BRANCH  25  26
ATOM     26  O   UNL     1      35.116 -20.968 -25.139  0.00  0.00    -0.379 OA
ATOM     27  H   UNL     1      35.541 -20.935 -24.268  0.00  0.00    +0.211 HD
ENDBRANCH  25  26
ENDBRANCH   9  25
TORSDOF 6
ENDMDL
MODEL 7
REMARK VINA RESULT:      -8.2      2.440      4.073
REMARK  Name = 46937157
REMARK  6 active torsions:
REMARK  status: ('A' for Active; 'I' for Inactive)
REMARK    1  A    between atoms: C_5  and  O_19
REMARK    2  A    between atoms: C_7  and  O_21
REMARK    3  A    between atoms: C_8  and  O_23
REMARK    4  A    between atoms: C_9  and  C_25
REMARK    5  A    between atoms: C_10  and  C_12
REMARK    6  A    between atoms: C_25  and  O_26
REMARK                            x       y       z     vdW  Elec       q    Type
REMARK                         _______ _______ _______ _____ _____    ______ ____
ROOT
ATOM      1  O   UNL     1      32.478 -22.876 -16.014  0.00  0.00    -0.328 OA
ATOM      2  O   UNL     1      33.709 -24.135 -17.612  0.00  0.00    -0.260 OA
ATOM      3  N   UNL     1      33.634 -23.470 -18.915  0.00  0.00    -0.184 NA
ATOM      4  C   UNL     1      33.771 -23.134 -16.583  0.00  0.00    +0.234 C 
ATOM      5  C   UNL     1      34.741 -23.558 -15.474  0.00  0.00    +0.193 C 
ATOM      6  C   UNL     1      34.224 -21.878 -17.306  0.00  0.00    +0.083 C 
ATOM      7  C   UNL     1      34.207 -24.766 -14.705  0.00  0.00    +0.171 C 
ATOM      8  C   UNL     1      32.776 -24.511 -14.227  0.00  0.00    +0.169 C 
ATOM      9  C   UNL     1      31.893 -24.017 -15.378  0.00  0.00    +0.176 C 
ATOM     10  C   UNL     1      33.520 -22.033 -18.639  0.00  0.00    +0.107 C 
ATOM     11  H   UNL     1      32.817 -23.797 -19.432  0.00  0.00    +0.155 HD
ENDROOT
BRANCH  10  12
ATOM     12  C   UNL     1      34.090 -21.168 -19.737  0.00  0.00    -0.006 C 
ATOM     13  C   UNL     1      33.240 -20.403 -20.535  0.00  0.00    -0.003 C 
ATOM     14  C   UNL     1      35.468 -21.134 -19.954  0.00  0.00    -0.003 C 
ATOM     15  C   UNL     1      33.766 -19.603 -21.549  0.00  0.00    -0.005 C 
ATOM     16  C   UNL     1      35.994 -20.334 -20.968  0.00  0.00    -0.005 C 
ATOM     17  C   UNL     1      35.144 -19.569 -21.766  0.00  0.00    -0.022 C 
ATOM     18  C   UNL     1      35.707 -18.711 -22.847  0.00  0.00    +0.031 C 
ENDBRANCH  10  12
BRANCH   5  19
ATOM     19  O   UNL     1      36.012 -23.880 -16.034  0.00  0.00    -0.378 OA
ATOM     20  H   UNL     1      36.306 -24.740 -15.695  0.00  0.00    +0.211 HD
ENDBRANCH   5  19
BRANCH   7  21
ATOM     21  O   UNL     1      35.046 -24.983 -13.570  0.00  0.00    -0.379 OA
ATOM     22  H   UNL     1      35.684 -24.255 -13.497  0.00  0.00    +0.211 HD
ENDBRANCH   7  21
BRANCH   8  23
ATOM     23  O   UNL     1      32.264 -25.731 -13.698  0.00  0.00    -0.379 OA
ATOM     24  H   UNL     1      31.878 -26.258 -14.415  0.00  0.00    +0.211 HD
ENDBRANCH   8  23
BRANCH   9  25
ATOM     25  C   UNL     1      30.506 -23.596 -14.897  0.00  0.00    +0.169 C 
BRANCH  25  26
ATOM     26  O   UNL     1      29.729 -24.762 -14.695  0.00  0.00    -0.379 OA
ATOM     27  H   UNL     1      29.124 -24.622 -13.950  0.00  0.00    +0.211 HD
ENDBRANCH  25  26
ENDBRANCH   9  25
TORSDOF 6
ENDMDL
MODEL 8
REMARK VINA RESULT:      -8.1      9.614     13.254
REMARK  Name = 46937157
REMARK  6 active torsions:
REMARK  status: ('A' for Active; 'I' for Inactive)
REMARK    1  A    between atoms: C_5  and  O_19
REMARK    2  A    between atoms: C_7  and  O_21
REMARK    3  A    between atoms: C_8  and  O_23
REMARK    4  A    between atoms: C_9  and  C_25
REMARK    5  A    between atoms: C_10  and  C_12
REMARK    6  A    between atoms: C_25  and  O_26
REMARK                            x       y       z     vdW  Elec       q    Type
REMARK                         _______ _______ _______ _____ _____    ______ ____
ROOT
ATOM      1  O   UNL     1      34.471 -14.646 -22.612  0.00  0.00    -0.328 OA
ATOM      2  O   UNL     1      32.334 -14.233 -23.567  0.00  0.00    -0.260 OA
ATOM      3  N   UNL     1      31.838 -12.935 -23.103  0.00  0.00    -0.184 NA
ATOM      4  C   UNL     1      33.756 -14.147 -23.752  0.00  0.00    +0.234 C 
ATOM      5  C   UNL     1      34.186 -14.923 -25.004  0.00  0.00    +0.193 C 
ATOM      6  C   UNL     1      34.032 -12.658 -23.866  0.00  0.00    +0.083 C 
ATOM      7  C   UNL     1      33.983 -16.426 -24.818  0.00  0.00    +0.171 C 
ATOM      8  C   UNL     1      34.644 -16.903 -23.523  0.00  0.00    +0.169 C 
ATOM      9  C   UNL     1      34.223 -16.028 -22.338  0.00  0.00    +0.176 C 
ATOM     10  C   UNL     1      33.021 -12.095 -22.887  0.00  0.00    +0.107 C 
ATOM     11  H   UNL     1      31.319 -13.046 -22.232  0.00  0.00    +0.155 HD
ENDROOT
BRANCH  10  12
ATOM     12  C   UNL     1      32.748 -10.621 -23.070  0.00  0.00    -0.006 C 
ATOM     13  C   UNL     1      33.713  -9.800 -23.653  0.00  0.00    -0.003 C 
ATOM     14  C   UNL     1      31.530 -10.081 -22.656  0.00  0.00    -0.003 C 
ATOM     15  C   UNL     1      33.460  -8.439 -23.822  0.00  0.00    -0.005 C 
ATOM     16  C   UNL     1      31.278  -8.720 -22.826  0.00  0.00    -0.005 C 
ATOM     17  C   UNL     1      32.243  -7.899 -23.409  0.00  0.00    -0.022 C 
ATOM     18  C   UNL     1      31.971  -6.444 -23.594  0.00  0.00    +0.031 C 
ENDBRANCH  10  12
BRANCH   5  19
ATOM     19  O   UNL     1      33.436 -14.482 -26.133  0.00  0.00    -0.378 OA
ATOM     20  H   UNL     1      32.668 -15.061 -26.257  0.00  0.00    +0.211 HD
ENDBRANCH   5  19
BRANCH   7  21
ATOM     21  O   UNL     1      34.585 -17.099 -25.924  0.00  0.00    -0.379 OA
ATOM     22  H   UNL     1      35.466 -17.418 -25.669  0.00  0.00    +0.211 HD
ENDBRANCH   7  21
BRANCH   8  23
ATOM     23  O   UNL     1      34.256 -18.257 -23.304  0.00  0.00    -0.379 OA
ATOM     24  H   UNL     1      34.673 -18.825 -23.971  0.00  0.00    +0.211 HD
ENDBRANCH   8  23
BRANCH   9  25
ATOM     25  C   UNL     1      34.993 -16.376 -21.066  0.00  0.00    +0.169 C 
BRANCH  25  26
ATOM     26  O   UNL     1      34.896 -15.285 -20.170  0.00  0.00    -0.379 OA
ATOM     27  H   UNL     1      34.632 -14.489 -20.656  0.00  0.00    +0.211 HD
ENDBRANCH  25  26
ENDBRANCH   9  25
TORSDOF 6
ENDMDL
MODEL 9
REMARK VINA RESULT:      -7.9     11.035     14.122
REMARK  Name = 46937157
REMARK  6 active torsions:
REMARK  status: ('A' for Active; 'I' for Inactive)
REMARK    1  A    between atoms: C_5  and  O_19
REMARK    2  A    between atoms: C_7  and  O_21
REMARK    3  A    between atoms: C_8  and  O_23
REMARK    4  A    between atoms: C_9  and  C_25
REMARK    5  A    between atoms: C_10  and  C_12
REMARK    6  A    between atoms: C_25  and  O_26
REMARK                            x       y       z     vdW  Elec       q    Type
REMARK                         _______ _______ _______ _____ _____    ______ ____
ROOT
ATOM      1  O   UNL     1      32.705 -13.784 -24.838  0.00  0.00    -0.328 OA
ATOM      2  O   UNL     1      34.663 -12.688 -24.052  0.00  0.00    -0.260 OA
ATOM      3  N   UNL     1      34.418 -11.245 -23.988  0.00  0.00    -0.184 NA
ATOM      4  C   UNL     1      33.459 -13.380 -23.685  0.00  0.00    +0.234 C 
ATOM      5  C   UNL     1      33.782 -14.611 -22.830  0.00  0.00    +0.193 C 
ATOM      6  C   UNL     1      32.643 -12.345 -22.931  0.00  0.00    +0.083 C 
ATOM      7  C   UNL     1      34.518 -15.673 -23.647  0.00  0.00    +0.171 C 
ATOM      8  C   UNL     1      33.756 -15.984 -24.936  0.00  0.00    +0.169 C 
ATOM      9  C   UNL     1      33.404 -14.698 -25.690  0.00  0.00    +0.176 C 
ATOM     10  C   UNL     1      32.989 -11.082 -23.696  0.00  0.00    +0.107 C 
ATOM     11  H   UNL     1      34.649 -10.807 -24.880  0.00  0.00    +0.155 HD
ENDROOT
BRANCH  10  12
ATOM     12  C   UNL     1      32.675  -9.808 -22.949  0.00  0.00    -0.006 C 
ATOM     13  C   UNL     1      32.119  -9.868 -21.671  0.00  0.00    -0.003 C 
ATOM     14  C   UNL     1      32.940  -8.572 -23.536  0.00  0.00    -0.003 C 
ATOM     15  C   UNL     1      31.829  -8.692 -20.981  0.00  0.00    -0.005 C 
ATOM     16  C   UNL     1      32.650  -7.395 -22.846  0.00  0.00    -0.005 C 
ATOM     17  C   UNL     1      32.094  -7.455 -21.568  0.00  0.00    -0.022 C 
ATOM     18  C   UNL     1      31.788  -6.197 -20.828  0.00  0.00    +0.031 C 
ENDBRANCH  10  12
BRANCH   5  19
ATOM     19  O   UNL     1      34.586 -14.233 -21.714  0.00  0.00    -0.378 OA
ATOM     20  H   UNL     1      35.523 -14.276 -21.962  0.00  0.00    +0.211 HD
ENDBRANCH   5  19
BRANCH   7  21
ATOM     21  O   UNL     1      34.608 -16.861 -22.860  0.00  0.00    -0.379 OA
ATOM     22  H   UNL     1      34.694 -16.623 -21.923  0.00  0.00    +0.211 HD
ENDBRANCH   7  21
BRANCH   8  23
ATOM     23  O   UNL     1      34.579 -16.822 -25.743  0.00  0.00    -0.379 OA
ATOM     24  H   UNL     1      34.356 -16.691 -26.678  0.00  0.00    +0.211 HD
ENDBRANCH   8  23
BRANCH   9  25
ATOM     25  C   UNL     1      32.501 -14.966 -26.892  0.00  0.00    +0.169 C 
BRANCH  25  26
ATOM     26  O   UNL     1      32.123 -16.330 -26.875  0.00  0.00    -0.379 OA
ATOM     27  H   UNL     1      32.206 -16.699 -27.767  0.00  0.00    +0.211 HD
ENDBRANCH  25  26
ENDBRANCH   9  25
TORSDOF 6
ENDMDL
