MODEL 1
REMARK VINA RESULT:     -10.0      0.000      0.000
REMARK  Name = 644213
REMARK  3 active torsions:
REMARK  status: ('A' for Active; 'I' for Inactive)
REMARK    1  A    between atoms: C_2  and  C_10
REMARK    2  A    between atoms: C_4  and  N_20
REMARK    3  A    between atoms: N_9  and  C_12
REMARK                            x       y       z     vdW  Elec       q    Type
REMARK                         _______ _______ _______ _____ _____    ______ ____
ROOT
ATOM      1 CL   UNL     1      32.949 -14.930 -20.072  0.00  0.00    -0.082 Cl
ATOM      2  C   UNL     1      34.032 -16.313 -22.159  0.00  0.00    +0.066 C 
ATOM      3  C   UNL     1      34.307 -16.498 -23.513  0.00  0.00    +0.029 C 
ATOM      4  C   UNL     1      33.861 -15.564 -24.449  0.00  0.00    +0.143 C 
ATOM      5  C   UNL     1      33.311 -15.195 -21.739  0.00  0.00    +0.062 C 
ATOM      6  C   UNL     1      33.140 -14.446 -24.029  0.00  0.00    +0.025 C 
ATOM      7  C   UNL     1      32.865 -14.262 -22.675  0.00  0.00    +0.013 C 
ENDROOT
BRANCH   2  10
ATOM      8  O   UNL     1      35.273 -16.960 -20.301  0.00  0.00    -0.270 OA
ATOM      9  N   UNL     1      34.052 -18.619 -21.422  0.00  0.00    -0.280 N 
ATOM     10  C   UNL     1      34.516 -17.315 -21.217  0.00  0.00    +0.250 C 
ATOM     11  H   UNL     1      33.455 -18.744 -22.196  0.00  0.00    +0.155 HD
BRANCH   9  12
ATOM     12  C   UNL     1      34.328 -19.783 -20.662  0.00  0.00    +0.051 C 
ATOM     13  C   UNL     1      33.278 -20.488 -20.101  0.00  0.00    +0.015 C 
ATOM     14  C   UNL     1      35.641 -20.187 -20.500  0.00  0.00    +0.015 C 
ATOM     15  C   UNL     1      33.550 -21.634 -19.354  0.00  0.00    +0.001 C 
ATOM     16  C   UNL     1      35.914 -21.333 -19.752  0.00  0.00    +0.001 C 
ATOM     17  C   UNL     1      34.868 -22.057 -19.179  0.00  0.00    +0.000 C 
ENDBRANCH   9  12
ENDBRANCH   2  10
BRANCH   4  20
ATOM     18  O   UNL     1      33.564 -15.021 -26.670  0.00  0.00    -0.126 OA
ATOM     19  O   UNL     1      34.952 -16.646 -26.169  0.00  0.00    -0.126 OA
ATOM     20  N   UNL     1      34.139 -15.753 -25.829  0.00  0.00    +0.058 N 
ENDBRANCH   4  20
TORSDOF 3
ENDMDL
MODEL 2
REMARK VINA RESULT:      -9.8      3.047      7.092
REMARK  Name = 644213
REMARK  3 active torsions:
REMARK  status: ('A' for Active; 'I' for Inactive)
REMARK    1  A    between atoms: C_2  and  C_10
REMARK    2  A    between atoms: C_4  and  N_20
REMARK    3  A    between atoms: N_9  and  C_12
REMARK                            x       y       z     vdW  Elec       q    Type
REMARK                         _______ _______ _______ _____ _____    ______ ____
ROOT
ATOM      1 CL   UNL     1      37.507 -19.044 -21.233  0.00  0.00    -0.082 Cl
ATOM      2  C   UNL     1      34.939 -19.827 -20.748  0.00  0.00    +0.066 C 
ATOM      3  C   UNL     1      33.987 -20.654 -20.153  0.00  0.00    +0.029 C 
ATOM      4  C   UNL     1      34.393 -21.701 -19.325  0.00  0.00    +0.143 C 
ATOM      5  C   UNL     1      36.297 -20.045 -20.515  0.00  0.00    +0.062 C 
ATOM      6  C   UNL     1      35.751 -21.919 -19.092  0.00  0.00    +0.025 C 
ATOM      7  C   UNL     1      36.703 -21.092 -19.686  0.00  0.00    +0.013 C 
ENDROOT
BRANCH   2  10
ATOM      8  O   UNL     1      34.133 -19.010 -22.772  0.00  0.00    -0.270 OA
ATOM      9  N   UNL     1      34.416 -17.479 -21.018  0.00  0.00    -0.280 N 
ATOM     10  C   UNL     1      34.470 -18.747 -21.608  0.00  0.00    +0.250 C 
ATOM     11  H   UNL     1      34.718 -17.429 -20.082  0.00  0.00    +0.155 HD
BRANCH   9  12
ATOM     12  C   UNL     1      33.984 -16.258 -21.592  0.00  0.00    +0.051 C 
ATOM     13  C   UNL     1      32.851 -15.640 -21.092  0.00  0.00    +0.015 C 
ATOM     14  C   UNL     1      34.705 -15.711 -22.639  0.00  0.00    +0.015 C 
ATOM     15  C   UNL     1      32.426 -14.438 -21.657  0.00  0.00    +0.001 C 
ATOM     16  C   UNL     1      34.280 -14.509 -23.204  0.00  0.00    +0.001 C 
ATOM     17  C   UNL     1      33.140 -13.871 -22.712  0.00  0.00    +0.000 C 
ENDBRANCH   9  12
ENDBRANCH   2  10
BRANCH   4  20
ATOM     18  O   UNL     1      33.700 -23.756 -18.543  0.00  0.00    -0.126 OA
ATOM     19  O   UNL     1      32.320 -22.056 -18.380  0.00  0.00    -0.126 OA
ATOM     20  N   UNL     1      33.424 -22.545 -18.720  0.00  0.00    +0.058 N 
ENDBRANCH   4  20
TORSDOF 3
ENDMDL
MODEL 3
REMARK VINA RESULT:      -9.7      2.254      2.847
REMARK  Name = 644213
REMARK  3 active torsions:
REMARK  status: ('A' for Active; 'I' for Inactive)
REMARK    1  A    between atoms: C_2  and  C_10
REMARK    2  A    between atoms: C_4  and  N_20
REMARK    3  A    between atoms: N_9  and  C_12
REMARK                            x       y       z     vdW  Elec       q    Type
REMARK                         _______ _______ _______ _____ _____    ______ ____
ROOT
ATOM      1 CL   UNL     1      35.097 -19.060 -24.371  0.00  0.00    -0.082 Cl
ATOM      2  C   UNL     1      34.418 -16.996 -22.722  0.00  0.00    +0.066 C 
ATOM      3  C   UNL     1      33.975 -15.697 -22.482  0.00  0.00    +0.029 C 
ATOM      4  C   UNL     1      33.665 -14.857 -23.552  0.00  0.00    +0.143 C 
ATOM      5  C   UNL     1      34.551 -17.458 -24.031  0.00  0.00    +0.062 C 
ATOM      6  C   UNL     1      33.798 -15.319 -24.862  0.00  0.00    +0.025 C 
ATOM      7  C   UNL     1      34.241 -16.618 -25.101  0.00  0.00    +0.013 C 
ENDROOT
BRANCH   2  10
ATOM      8  O   UNL     1      35.371 -17.350 -20.629  0.00  0.00    -0.270 OA
ATOM      9  N   UNL     1      34.251 -19.151 -21.631  0.00  0.00    -0.280 N 
ATOM     10  C   UNL     1      34.733 -17.838 -21.574  0.00  0.00    +0.250 C 
ATOM     11  H   UNL     1      33.761 -19.392 -22.450  0.00  0.00    +0.155 HD
BRANCH   9  12
ATOM     12  C   UNL     1      34.378 -20.179 -20.664  0.00  0.00    +0.051 C 
ATOM     13  C   UNL     1      35.640 -20.647 -20.338  0.00  0.00    +0.015 C 
ATOM     14  C   UNL     1      33.239 -20.690 -20.068  0.00  0.00    +0.015 C 
ATOM     15  C   UNL     1      35.765 -21.658 -19.386  0.00  0.00    +0.001 C 
ATOM     16  C   UNL     1      33.365 -21.701 -19.115  0.00  0.00    +0.001 C 
ATOM     17  C   UNL     1      34.628 -22.185 -18.773  0.00  0.00    +0.000 C 
ENDBRANCH   9  12
ENDBRANCH   2  10
BRANCH   4  20
ATOM     18  O   UNL     1      33.788 -12.579 -23.890  0.00  0.00    -0.126 OA
ATOM     19  O   UNL     1      32.257 -13.351 -22.519  0.00  0.00    -0.126 OA
ATOM     20  N   UNL     1      33.215 -13.532 -23.308  0.00  0.00    +0.058 N 
ENDBRANCH   4  20
TORSDOF 3
ENDMDL
MODEL 4
REMARK VINA RESULT:      -9.2      6.631      9.635
REMARK  Name = 644213
REMARK  3 active torsions:
REMARK  status: ('A' for Active; 'I' for Inactive)
REMARK    1  A    between atoms: C_2  and  C_10
REMARK    2  A    between atoms: C_4  and  N_20
REMARK    3  A    between atoms: N_9  and  C_12
REMARK                            x       y       z     vdW  Elec       q    Type
REMARK                         _______ _______ _______ _____ _____    ______ ____
ROOT
ATOM      1 CL   UNL     1      33.235 -24.683 -14.262  0.00  0.00    -0.082 Cl
ATOM      2  C   UNL     1      31.568 -23.502 -16.070  0.00  0.00    +0.066 C 
ATOM      3  C   UNL     1      30.308 -23.229 -16.598  0.00  0.00    +0.029 C 
ATOM      4  C   UNL     1      29.169 -23.775 -16.005  0.00  0.00    +0.143 C 
ATOM      5  C   UNL     1      31.692 -24.320 -14.947  0.00  0.00    +0.062 C 
ATOM      6  C   UNL     1      29.293 -24.593 -14.882  0.00  0.00    +0.025 C 
ATOM      7  C   UNL     1      30.553 -24.866 -14.353  0.00  0.00    +0.013 C 
ENDROOT
BRANCH   2  10
ATOM      8  O   UNL     1      33.814 -22.895 -16.121  0.00  0.00    -0.270 OA
ATOM      9  N   UNL     1      32.517 -22.423 -18.018  0.00  0.00    -0.280 N 
ATOM     10  C   UNL     1      32.730 -22.911 -16.724  0.00  0.00    +0.250 C 
ATOM     11  H   UNL     1      31.598 -22.506 -18.362  0.00  0.00    +0.155 HD
BRANCH   9  12
ATOM     12  C   UNL     1      33.453 -21.825 -18.898  0.00  0.00    +0.051 C 
ATOM     13  C   UNL     1      33.039 -20.793 -19.723  0.00  0.00    +0.015 C 
ATOM     14  C   UNL     1      34.757 -22.285 -18.912  0.00  0.00    +0.015 C 
ATOM     15  C   UNL     1      33.960 -20.203 -20.589  0.00  0.00    +0.001 C 
ATOM     16  C   UNL     1      35.678 -21.696 -19.778  0.00  0.00    +0.001 C 
ATOM     17  C   UNL     1      35.280 -20.654 -20.616  0.00  0.00    +0.000 C 
ENDBRANCH   9  12
ENDBRANCH   2  10
BRANCH   4  20
ATOM     18  O   UNL     1      27.601 -23.928 -17.688  0.00  0.00    -0.126 OA
ATOM     19  O   UNL     1      27.068 -22.835 -15.861  0.00  0.00    -0.126 OA
ATOM     20  N   UNL     1      27.884 -23.499 -16.544  0.00  0.00    +0.058 N 
ENDBRANCH   4  20
TORSDOF 3
ENDMDL
MODEL 5
REMARK VINA RESULT:      -9.1      3.882      7.850
REMARK  Name = 644213
REMARK  3 active torsions:
REMARK  status: ('A' for Active; 'I' for Inactive)
REMARK    1  A    between atoms: C_2  and  C_10
REMARK    2  A    between atoms: C_4  and  N_20
REMARK    3  A    between atoms: N_9  and  C_12
REMARK                            x       y       z     vdW  Elec       q    Type
REMARK                         _______ _______ _______ _____ _____    ______ ____
ROOT
ATOM      1 CL   UNL     1      32.899 -14.436 -26.353  0.00  0.00    -0.082 Cl
ATOM      2  C   UNL     1      33.790 -14.652 -23.784  0.00  0.00    +0.066 C 
ATOM      3  C   UNL     1      34.402 -15.342 -22.739  0.00  0.00    +0.029 C 
ATOM      4  C   UNL     1      34.874 -16.640 -22.942  0.00  0.00    +0.143 C 
ATOM      5  C   UNL     1      33.651 -15.256 -25.033  0.00  0.00    +0.062 C 
ATOM      6  C   UNL     1      34.735 -17.244 -24.191  0.00  0.00    +0.025 C 
ATOM      7  C   UNL     1      34.123 -16.554 -25.236  0.00  0.00    +0.013 C 
ENDROOT
BRANCH   2  10
ATOM      8  O   UNL     1      32.258 -13.149 -22.886  0.00  0.00    -0.270 OA
ATOM      9  N   UNL     1      34.114 -12.264 -24.016  0.00  0.00    -0.280 N 
ATOM     10  C   UNL     1      33.310 -13.300 -23.526  0.00  0.00    +0.250 C 
ATOM     11  H   UNL     1      34.921 -12.544 -24.506  0.00  0.00    +0.155 HD
BRANCH   9  12
ATOM     12  C   UNL     1      33.918 -10.866 -23.898  0.00  0.00    +0.051 C 
ATOM     13  C   UNL     1      32.727 -10.393 -23.374  0.00  0.00    +0.015 C 
ATOM     14  C   UNL     1      34.922 -10.006 -24.307  0.00  0.00    +0.015 C 
ATOM     15  C   UNL     1      32.535  -9.016 -23.258  0.00  0.00    +0.001 C 
ATOM     16  C   UNL     1      34.729  -8.630 -24.191  0.00  0.00    +0.001 C 
ATOM     17  C   UNL     1      33.536  -8.134 -23.665  0.00  0.00    +0.000 C 
ENDBRANCH   9  12
ENDBRANCH   2  10
BRANCH   4  20
ATOM     18  O   UNL     1      36.307 -18.262 -22.148  0.00  0.00    -0.126 OA
ATOM     19  O   UNL     1      35.217 -17.029 -20.695  0.00  0.00    -0.126 OA
ATOM     20  N   UNL     1      35.496 -17.345 -21.877  0.00  0.00    +0.058 N 
ENDBRANCH   4  20
TORSDOF 3
ENDMDL
MODEL 6
REMARK VINA RESULT:      -9.0      6.478     10.570
REMARK  Name = 644213
REMARK  3 active torsions:
REMARK  status: ('A' for Active; 'I' for Inactive)
REMARK    1  A    between atoms: C_2  and  C_10
REMARK    2  A    between atoms: C_4  and  N_20
REMARK    3  A    between atoms: N_9  and  C_12
REMARK                            x       y       z     vdW  Elec       q    Type
REMARK                         _______ _______ _______ _____ _____    ______ ____
ROOT
ATOM      1 CL   UNL     1      34.406 -23.353 -14.676  0.00  0.00    -0.082 Cl
ATOM      2  C   UNL     1      36.993 -23.432 -15.537  0.00  0.00    +0.066 C 
ATOM      3  C   UNL     1      38.293 -23.932 -15.508  0.00  0.00    +0.029 C 
ATOM      4  C   UNL     1      38.630 -24.948 -14.612  0.00  0.00    +0.143 C 
ATOM      5  C   UNL     1      36.027 -23.946 -14.672  0.00  0.00    +0.062 C 
ATOM      6  C   UNL     1      37.664 -25.462 -13.747  0.00  0.00    +0.025 C 
ATOM      7  C   UNL     1      36.364 -24.962 -13.777  0.00  0.00    +0.013 C 
ENDROOT
BRANCH   2  10
ATOM      8  O   UNL     1      37.237 -21.266 -16.351  0.00  0.00    -0.270 OA
ATOM      9  N   UNL     1      35.794 -22.707 -17.511  0.00  0.00    -0.280 N 
ATOM     10  C   UNL     1      36.687 -22.369 -16.488  0.00  0.00    +0.250 C 
ATOM     11  H   UNL     1      35.439 -23.625 -17.485  0.00  0.00    +0.155 HD
BRANCH   9  12
ATOM     12  C   UNL     1      35.334 -21.899 -18.580  0.00  0.00    +0.051 C 
ATOM     13  C   UNL     1      36.254 -21.209 -19.351  0.00  0.00    +0.015 C 
ATOM     14  C   UNL     1      33.975 -21.818 -18.830  0.00  0.00    +0.015 C 
ATOM     15  C   UNL     1      35.801 -20.414 -20.403  0.00  0.00    +0.001 C 
ATOM     16  C   UNL     1      33.522 -21.023 -19.883  0.00  0.00    +0.001 C 
ATOM     17  C   UNL     1      34.436 -20.322 -20.671  0.00  0.00    +0.000 C 
ENDBRANCH   9  12
ENDBRANCH   2  10
BRANCH   4  20
ATOM     18  O   UNL     1      40.137 -26.688 -14.740  0.00  0.00    -0.126 OA
ATOM     19  O   UNL     1      40.908 -24.662 -14.395  0.00  0.00    -0.126 OA
ATOM     20  N   UNL     1      39.955 -25.458 -14.581  0.00  0.00    +0.058 N 
ENDBRANCH   4  20
TORSDOF 3
ENDMDL
MODEL 7
REMARK VINA RESULT:      -9.0      6.443     10.464
REMARK  Name = 644213
REMARK  3 active torsions:
REMARK  status: ('A' for Active; 'I' for Inactive)
REMARK    1  A    between atoms: C_2  and  C_10
REMARK    2  A    between atoms: C_4  and  N_20
REMARK    3  A    between atoms: N_9  and  C_12
REMARK                            x       y       z     vdW  Elec       q    Type
REMARK                         _______ _______ _______ _____ _____    ______ ____
ROOT
ATOM      1 CL   UNL     1      34.411 -23.317 -14.768  0.00  0.00    -0.082 Cl
ATOM      2  C   UNL     1      37.011 -23.396 -15.592  0.00  0.00    +0.066 C 
ATOM      3  C   UNL     1      38.310 -23.898 -15.545  0.00  0.00    +0.029 C 
ATOM      4  C   UNL     1      38.633 -24.915 -14.647  0.00  0.00    +0.143 C 
ATOM      5  C   UNL     1      36.032 -23.911 -14.742  0.00  0.00    +0.062 C 
ATOM      6  C   UNL     1      37.655 -25.430 -13.797  0.00  0.00    +0.025 C 
ATOM      7  C   UNL     1      36.355 -24.928 -13.844  0.00  0.00    +0.013 C 
ENDROOT
BRANCH   2  10
ATOM      8  O   UNL     1      37.290 -21.238 -16.416  0.00  0.00    -0.270 OA
ATOM      9  N   UNL     1      35.815 -22.657 -17.563  0.00  0.00    -0.280 N 
ATOM     10  C   UNL     1      36.719 -22.332 -16.545  0.00  0.00    +0.250 C 
ATOM     11  H   UNL     1      35.444 -23.568 -17.531  0.00  0.00    +0.155 HD
BRANCH   9  12
ATOM     12  C   UNL     1      35.363 -21.844 -18.632  0.00  0.00    +0.051 C 
ATOM     13  C   UNL     1      34.006 -21.753 -18.885  0.00  0.00    +0.015 C 
ATOM     14  C   UNL     1      36.290 -21.160 -19.399  0.00  0.00    +0.015 C 
ATOM     15  C   UNL     1      33.561 -20.953 -19.938  0.00  0.00    +0.001 C 
ATOM     16  C   UNL     1      35.846 -20.360 -20.452  0.00  0.00    +0.001 C 
ATOM     17  C   UNL     1      34.481 -20.256 -20.721  0.00  0.00    +0.000 C 
ENDBRANCH   9  12
ENDBRANCH   2  10
BRANCH   4  20
ATOM     18  O   UNL     1      40.908 -24.629 -14.406  0.00  0.00    -0.126 OA
ATOM     19  O   UNL     1      40.140 -26.658 -14.744  0.00  0.00    -0.126 OA
ATOM     20  N   UNL     1      39.958 -25.425 -14.597  0.00  0.00    +0.058 N 
ENDBRANCH   4  20
TORSDOF 3
ENDMDL
MODEL 8
REMARK VINA RESULT:      -9.0      3.075      6.712
REMARK  Name = 644213
REMARK  3 active torsions:
REMARK  status: ('A' for Active; 'I' for Inactive)
REMARK    1  A    between atoms: C_2  and  C_10
REMARK    2  A    between atoms: C_4  and  N_20
REMARK    3  A    between atoms: N_9  and  C_12
REMARK                            x       y       z     vdW  Elec       q    Type
REMARK                         _______ _______ _______ _____ _____    ______ ____
ROOT
ATOM      1 CL   UNL     1      35.119 -15.803 -24.238  0.00  0.00    -0.082 Cl
ATOM      2  C   UNL     1      34.273 -16.798 -21.843  0.00  0.00    +0.066 C 
ATOM      3  C   UNL     1      33.989 -17.845 -20.967  0.00  0.00    +0.029 C 
ATOM      4  C   UNL     1      34.187 -19.166 -21.371  0.00  0.00    +0.143 C 
ATOM      5  C   UNL     1      34.756 -17.070 -23.123  0.00  0.00    +0.062 C 
ATOM      6  C   UNL     1      34.670 -19.438 -22.651  0.00  0.00    +0.025 C 
ATOM      7  C   UNL     1      34.954 -18.391 -23.527  0.00  0.00    +0.013 C 
ENDROOT
BRANCH   2  10
ATOM      8  O   UNL     1      34.899 -14.902 -20.649  0.00  0.00    -0.270 OA
ATOM      9  N   UNL     1      32.873 -14.823 -21.830  0.00  0.00    -0.280 N 
ATOM     10  C   UNL     1      34.049 -15.435 -21.379  0.00  0.00    +0.250 C 
ATOM     11  H   UNL     1      32.296 -15.377 -22.404  0.00  0.00    +0.155 HD
BRANCH   9  12
ATOM     12  C   UNL     1      32.406 -13.511 -21.567  0.00  0.00    +0.051 C 
ATOM     13  C   UNL     1      32.135 -13.140 -20.261  0.00  0.00    +0.015 C 
ATOM     14  C   UNL     1      32.233 -12.632 -22.621  0.00  0.00    +0.015 C 
ATOM     15  C   UNL     1      31.676 -11.849 -20.003  0.00  0.00    +0.001 C 
ATOM     16  C   UNL     1      31.774 -11.340 -22.362  0.00  0.00    +0.001 C 
ATOM     17  C   UNL     1      31.496 -10.948 -21.053  0.00  0.00    +0.000 C 
ENDBRANCH   9  12
ENDBRANCH   2  10
BRANCH   4  20
ATOM     18  O   UNL     1      34.839 -20.784 -19.864  0.00  0.00    -0.126 OA
ATOM     19  O   UNL     1      32.703 -20.593 -20.333  0.00  0.00    -0.126 OA
ATOM     20  N   UNL     1      33.896 -20.233 -20.480  0.00  0.00    +0.058 N 
ENDBRANCH   4  20
TORSDOF 3
ENDMDL
MODEL 9
REMARK VINA RESULT:      -9.0      9.298     12.037
REMARK  Name = 644213
REMARK  3 active torsions:
REMARK  status: ('A' for Active; 'I' for Inactive)
REMARK    1  A    between atoms: C_2  and  C_10
REMARK    2  A    between atoms: C_4  and  N_20
REMARK    3  A    between atoms: N_9  and  C_12
REMARK                            x       y       z     vdW  Elec       q    Type
REMARK                         _______ _______ _______ _____ _____    ______ ____
ROOT
ATOM      1 CL   UNL     1      35.365 -24.556 -12.026  0.00  0.00    -0.082 Cl
ATOM      2  C   UNL     1      36.840 -25.261 -14.210  0.00  0.00    +0.066 C 
ATOM      3  C   UNL     1      38.030 -25.631 -14.834  0.00  0.00    +0.029 C 
ATOM      4  C   UNL     1      39.201 -25.756 -14.085  0.00  0.00    +0.143 C 
ATOM      5  C   UNL     1      36.818 -25.017 -12.837  0.00  0.00    +0.062 C 
ATOM      6  C   UNL     1      39.179 -25.512 -12.712  0.00  0.00    +0.025 C 
ATOM      7  C   UNL     1      37.989 -25.142 -12.088  0.00  0.00    +0.013 C 
ENDROOT
BRANCH   2  10
ATOM      8  O   UNL     1      35.312 -26.094 -15.754  0.00  0.00    -0.270 OA
ATOM      9  N   UNL     1      34.938 -23.937 -14.910  0.00  0.00    -0.280 N 
ATOM     10  C   UNL     1      35.642 -25.141 -15.032  0.00  0.00    +0.250 C 
ATOM     11  H   UNL     1      35.327 -23.274 -14.295  0.00  0.00    +0.155 HD
BRANCH   9  12
ATOM     12  C   UNL     1      33.739 -23.549 -15.558  0.00  0.00    +0.051 C 
ATOM     13  C   UNL     1      33.773 -23.224 -16.903  0.00  0.00    +0.015 C 
ATOM     14  C   UNL     1      32.562 -23.504 -14.831  0.00  0.00    +0.015 C 
ATOM     15  C   UNL     1      32.592 -22.843 -17.541  0.00  0.00    +0.001 C 
ATOM     16  C   UNL     1      31.382 -23.122 -15.469  0.00  0.00    +0.001 C 
ATOM     17  C   UNL     1      31.397 -22.792 -16.824  0.00  0.00    +0.000 C 
ENDBRANCH   9  12
ENDBRANCH   2  10
BRANCH   4  20
ATOM     18  O   UNL     1      40.560 -25.888 -15.943  0.00  0.00    -0.126 OA
ATOM     19  O   UNL     1      41.307 -26.693 -14.043  0.00  0.00    -0.126 OA
ATOM     20  N   UNL     1      40.414 -26.131 -14.721  0.00  0.00    +0.058 N 
ENDBRANCH   4  20
TORSDOF 3
ENDMDL
