MODEL 1
REMARK VINA RESULT:     -11.5      0.000      0.000
REMARK  Name = 11979006
REMARK  7 active torsions:
REMARK  status: ('A' for Active; 'I' for Inactive)
REMARK    1  A    between atoms: C_1  and  N_2
REMARK    2  A    between atoms: C_1  and  C_22
REMARK    3  A    between atoms: C_3  and  N_9
REMARK    4  A    between atoms: C_4  and  O_18
REMARK    5  A    between atoms: C_10  and  C_14
REMARK    6  A    between atoms: N_21  and  C_25
REMARK    7  A    between atoms: C_28  and  N_32
REMARK                            x       y       z     vdW  Elec       q    Type
REMARK                         _______ _______ _______ _____ _____    ______ ____
ROOT
ATOM      1  C   UNL     1      33.324 -13.445 -25.058  0.00  0.00    +0.010 C 
ENDROOT
BRANCH   1   2
ATOM      2  N   UNL     1      33.944 -12.250 -24.505  0.00  0.00    +0.396 N 
ATOM      3  C   UNL     1      33.818 -10.080 -23.718  0.00  0.00    +0.076 C 
ATOM      4  C   UNL     1      34.780 -10.077 -24.908  0.00  0.00    +0.106 C 
ATOM      5  C   UNL     1      32.966 -11.323 -23.936  0.00  0.00    -0.054 C 
ATOM      6  C   UNL     1      34.675 -11.477 -25.516  0.00  0.00    -0.045 C 
ATOM      7  H   UNL     1      34.574 -12.608 -23.788  0.00  0.00    -0.079 HD
BRANCH   3   9
ATOM      8  O   UNL     1      34.776  -7.517 -23.038  0.00  0.00    -0.270 OA
ATOM      9  N   UNL     1      33.029  -8.881 -23.645  0.00  0.00    -0.302 N 
ATOM     10  C   UNL     1      33.579  -7.644 -23.299  0.00  0.00    +0.252 C 
ATOM     11  H   UNL     1      32.067  -8.933 -23.844  0.00  0.00    +0.150 HD
BRANCH  10  14
ATOM     12 CL   UNL     1      30.593  -3.332 -24.873  0.00  0.00    -0.075 Cl
ATOM     13  S   UNL     1      32.441  -5.652 -24.745  0.00  0.00    -0.071 S 
ATOM     14  C   UNL     1      32.650  -6.504 -23.298  0.00  0.00    +0.084 C 
ATOM     15  C   UNL     1      31.924  -6.038 -22.258  0.00  0.00    +0.012 C 
ATOM     16  C   UNL     1      31.143  -4.914 -22.655  0.00  0.00    +0.019 C 
ATOM     17  C   UNL     1      31.329  -4.598 -23.982  0.00  0.00    +0.087 C 
ENDBRANCH  10  14
ENDBRANCH   3   9
BRANCH   4  18
ATOM     18  O   UNL     1      36.100  -9.826 -24.444  0.00  0.00    -0.385 OA
ATOM     19  H   UNL     1      36.061  -9.362 -23.593  0.00  0.00    +0.210 HD
ENDBRANCH   4  18
ENDBRANCH   1   2
BRANCH   1  22
ATOM     20  O   UNL     1      32.228 -14.447 -23.156  0.00  0.00    -0.277 OA
ATOM     21  N   UNL     1      34.178 -15.425 -24.026  0.00  0.00    -0.284 N 
ATOM     22  C   UNL     1      33.156 -14.480 -23.959  0.00  0.00    +0.205 C 
ATOM     23  H   UNL     1      34.840 -15.298 -24.744  0.00  0.00    +0.155 HD
BRANCH  21  25
ATOM     24  F   UNL     1      34.338 -17.995 -25.065  0.00  0.00    -0.203 F 
ATOM     25  C   UNL     1      34.376 -16.545 -23.184  0.00  0.00    +0.078 C 
ATOM     26  C   UNL     1      34.450 -17.811 -23.742  0.00  0.00    +0.155 C 
ATOM     27  C   UNL     1      34.491 -16.349 -21.818  0.00  0.00    +0.018 C 
ATOM     28  C   UNL     1      34.763 -18.733 -21.530  0.00  0.00    +0.061 C 
ATOM     29  C   UNL     1      34.645 -18.913 -22.909  0.00  0.00    +0.046 C 
ATOM     30  C   UNL     1      34.686 -17.451 -20.985  0.00  0.00    +0.017 C 
BRANCH  28  32
ATOM     31  O   UNL     1      32.658 -20.323 -20.344  0.00  0.00    -0.269 OA
ATOM     32  N   UNL     1      34.965 -19.879 -20.665  0.00  0.00    -0.233 N 
ATOM     33  C   UNL     1      33.845 -20.603 -20.178  0.00  0.00    +0.257 C 
ATOM     34  C   UNL     1      36.253 -20.264 -20.290  0.00  0.00    +0.072 C 
ATOM     35  C   UNL     1      34.144 -21.798 -19.331  0.00  0.00    +0.059 C 
ATOM     36  C   UNL     1      36.492 -21.319 -19.504  0.00  0.00    +0.017 C 
ATOM     37  C   UNL     1      35.403 -22.112 -19.017  0.00  0.00    +0.006 C 
ENDBRANCH  28  32
ENDBRANCH  21  25
ENDBRANCH   1  22
TORSDOF 7
ENDMDL
MODEL 2
REMARK VINA RESULT:     -11.0      4.558      7.611
REMARK  Name = 11979006
REMARK  7 active torsions:
REMARK  status: ('A' for Active; 'I' for Inactive)
REMARK    1  A    between atoms: C_1  and  N_2
REMARK    2  A    between atoms: C_1  and  C_22
REMARK    3  A    between atoms: C_3  and  N_9
REMARK    4  A    between atoms: C_4  and  O_18
REMARK    5  A    between atoms: C_10  and  C_14
REMARK    6  A    between atoms: N_21  and  C_25
REMARK    7  A    between atoms: C_28  and  N_32
REMARK                            x       y       z     vdW  Elec       q    Type
REMARK                         _______ _______ _______ _____ _____    ______ ____
ROOT
ATOM      1  C   UNL     1      34.679 -20.329 -21.238  0.00  0.00    +0.010 C 
ENDROOT
BRANCH   1   2
ATOM      2  N   UNL     1      35.074 -19.065 -21.842  0.00  0.00    +0.396 N 
ATOM      3  C   UNL     1      34.871 -16.773 -22.059  0.00  0.00    +0.076 C 
ATOM      4  C   UNL     1      34.593 -17.386 -23.433  0.00  0.00    +0.106 C 
ATOM      5  C   UNL     1      34.593 -17.909 -21.085  0.00  0.00    -0.054 C 
ATOM      6  C   UNL     1      34.537 -18.897 -23.197  0.00  0.00    -0.045 C 
ATOM      7  H   UNL     1      36.093 -19.103 -21.850  0.00  0.00    -0.079 HD
BRANCH   3   9
ATOM      8  O   UNL     1      34.626 -14.519 -23.736  0.00  0.00    -0.270 OA
ATOM      9  N   UNL     1      34.059 -15.616 -21.798  0.00  0.00    -0.302 N 
ATOM     10  C   UNL     1      33.990 -14.535 -22.681  0.00  0.00    +0.252 C 
ATOM     11  H   UNL     1      33.533 -15.583 -20.967  0.00  0.00    +0.150 HD
BRANCH  10  14
ATOM     12 CL   UNL     1      31.226  -9.809 -22.622  0.00  0.00    -0.075 Cl
ATOM     13  S   UNL     1      33.005 -12.086 -23.301  0.00  0.00    -0.071 S 
ATOM     14  C   UNL     1      33.091 -13.440 -22.290  0.00  0.00    +0.084 C 
ATOM     15  C   UNL     1      32.304 -13.377 -21.193  0.00  0.00    +0.012 C 
ATOM     16  C   UNL     1      31.580 -12.150 -21.165  0.00  0.00    +0.019 C 
ATOM     17  C   UNL     1      31.866 -11.355 -22.253  0.00  0.00    +0.087 C 
ENDBRANCH  10  14
ENDBRANCH   3   9
BRANCH   4  18
ATOM     18  O   UNL     1      35.652 -17.052 -24.320  0.00  0.00    -0.385 OA
ATOM     19  H   UNL     1      35.327 -17.070 -25.234  0.00  0.00    +0.210 HD
ENDBRANCH   4  18
ENDBRANCH   1   2
BRANCH   1  22
ATOM     20  O   UNL     1      36.645 -20.055 -19.865  0.00  0.00    -0.277 OA
ATOM     21  N   UNL     1      34.968 -21.562 -19.211  0.00  0.00    -0.284 N 
ATOM     22  C   UNL     1      35.566 -20.614 -20.038  0.00  0.00    +0.205 C 
ATOM     23  H   UNL     1      34.092 -21.904 -19.504  0.00  0.00    +0.155 HD
BRANCH  21  25
ATOM     24  F   UNL     1      33.367 -23.090 -17.534  0.00  0.00    -0.203 F 
ATOM     25  C   UNL     1      35.471 -22.093 -17.999  0.00  0.00    +0.078 C 
ATOM     26  C   UNL     1      34.640 -22.850 -17.191  0.00  0.00    +0.155 C 
ATOM     27  C   UNL     1      36.788 -21.842 -17.649  0.00  0.00    +0.018 C 
ATOM     28  C   UNL     1      36.463 -23.127 -15.629  0.00  0.00    +0.061 C 
ATOM     29  C   UNL     1      35.140 -23.371 -15.997  0.00  0.00    +0.046 C 
ATOM     30  C   UNL     1      37.287 -22.362 -16.455  0.00  0.00    +0.017 C 
BRANCH  28  32
ATOM     31  O   UNL     1      37.519 -25.798 -15.282  0.00  0.00    -0.269 OA
ATOM     32  N   UNL     1      36.981 -23.669 -14.388  0.00  0.00    -0.233 N 
ATOM     33  C   UNL     1      37.510 -24.986 -14.357  0.00  0.00    +0.257 C 
ATOM     34  C   UNL     1      36.944 -22.912 -13.215  0.00  0.00    +0.072 C 
ATOM     35  C   UNL     1      38.067 -25.448 -13.048  0.00  0.00    +0.059 C 
ATOM     36  C   UNL     1      37.419 -23.361 -12.049  0.00  0.00    +0.017 C 
ATOM     37  C   UNL     1      38.004 -24.667 -11.968  0.00  0.00    +0.006 C 
ENDBRANCH  28  32
ENDBRANCH  21  25
ENDBRANCH   1  22
TORSDOF 7
ENDMDL
MODEL 3
REMARK VINA RESULT:     -10.8      5.080     11.572
REMARK  Name = 11979006
REMARK  7 active torsions:
REMARK  status: ('A' for Active; 'I' for Inactive)
REMARK    1  A    between atoms: C_1  and  N_2
REMARK    2  A    between atoms: C_1  and  C_22
REMARK    3  A    between atoms: C_3  and  N_9
REMARK    4  A    between atoms: C_4  and  O_18
REMARK    5  A    between atoms: C_10  and  C_14
REMARK    6  A    between atoms: N_21  and  C_25
REMARK    7  A    between atoms: C_28  and  N_32
REMARK                            x       y       z     vdW  Elec       q    Type
REMARK                         _______ _______ _______ _____ _____    ______ ____
ROOT
ATOM      1  C   UNL     1      33.883 -15.480 -24.716  0.00  0.00    +0.010 C 
ENDROOT
BRANCH   1   2
ATOM      2  N   UNL     1      34.491 -15.589 -23.398  0.00  0.00    +0.396 N 
ATOM      3  C   UNL     1      35.150 -16.838 -21.568  0.00  0.00    +0.076 C 
ATOM      4  C   UNL     1      34.161 -15.784 -21.067  0.00  0.00    +0.106 C 
ATOM      5  C   UNL     1      34.829 -16.970 -23.050  0.00  0.00    -0.054 C 
ATOM      6  C   UNL     1      33.602 -15.122 -22.328  0.00  0.00    -0.045 C 
ATOM      7  H   UNL     1      35.328 -15.010 -23.464  0.00  0.00    -0.079 HD
BRANCH   3   9
ATOM      8  O   UNL     1      37.094 -18.878 -21.479  0.00  0.00    -0.270 OA
ATOM      9  N   UNL     1      35.025 -18.087 -20.868  0.00  0.00    -0.302 N 
ATOM     10  C   UNL     1      36.037 -19.051 -20.871  0.00  0.00    +0.252 C 
ATOM     11  H   UNL     1      34.198 -18.271 -20.368  0.00  0.00    +0.150 HD
BRANCH  10  14
ATOM     12 CL   UNL     1      33.518 -23.249 -18.418  0.00  0.00    -0.075 Cl
ATOM     13  S   UNL     1      34.177 -20.812 -19.981  0.00  0.00    -0.071 S 
ATOM     14  C   UNL     1      35.774 -20.263 -20.081  0.00  0.00    +0.084 C 
ATOM     15  C   UNL     1      36.674 -21.013 -19.406  0.00  0.00    +0.012 C 
ATOM     16  C   UNL     1      36.029 -22.109 -18.762  0.00  0.00    +0.019 C 
ATOM     17  C   UNL     1      34.672 -22.120 -18.993  0.00  0.00    +0.087 C 
ENDBRANCH  10  14
ENDBRANCH   3   9
BRANCH   4  18
ATOM     18  O   UNL     1      34.852 -14.836 -20.263  0.00  0.00    -0.385 OA
ATOM     19  H   UNL     1      34.238 -14.448 -19.621  0.00  0.00    +0.210 HD
ENDBRANCH   4  18
ENDBRANCH   1   2
BRANCH   1  22
ATOM     20  O   UNL     1      32.364 -13.890 -25.709  0.00  0.00    -0.277 OA
ATOM     21  N   UNL     1      33.679 -13.253 -23.870  0.00  0.00    -0.284 N 
ATOM     22  C   UNL     1      33.206 -14.126 -24.848  0.00  0.00    +0.205 C 
ATOM     23  H   UNL     1      34.357 -13.616 -23.255  0.00  0.00    +0.155 HD
BRANCH  21  25
ATOM     24  F   UNL     1      34.949 -11.174 -25.202  0.00  0.00    -0.203 F 
ATOM     25  C   UNL     1      33.300 -11.906 -23.658  0.00  0.00    +0.078 C 
ATOM     26  C   UNL     1      33.958 -10.898 -24.342  0.00  0.00    +0.155 C 
ATOM     27  C   UNL     1      32.275 -11.627 -22.768  0.00  0.00    +0.018 C 
ATOM     28  C   UNL     1      32.553  -9.273 -23.237  0.00  0.00    +0.061 C 
ATOM     29  C   UNL     1      33.582  -9.572 -24.130  0.00  0.00    +0.046 C 
ATOM     30  C   UNL     1      31.900 -10.301 -22.556  0.00  0.00    +0.017 C 
BRANCH  28  32
ATOM     31  O   UNL     1      32.973  -7.787 -20.791  0.00  0.00    -0.269 OA
ATOM     32  N   UNL     1      32.163  -7.894 -23.016  0.00  0.00    -0.233 N 
ATOM     33  C   UNL     1      32.462  -7.263 -21.780  0.00  0.00    +0.257 C 
ATOM     34  C   UNL     1      31.473  -7.186 -24.003  0.00  0.00    +0.072 C 
ATOM     35  C   UNL     1      32.067  -5.826 -21.654  0.00  0.00    +0.059 C 
ATOM     36  C   UNL     1      31.102  -5.911 -23.853  0.00  0.00    +0.017 C 
ATOM     37  C   UNL     1      31.416  -5.210 -22.643  0.00  0.00    +0.006 C 
ENDBRANCH  28  32
ENDBRANCH  21  25
ENDBRANCH   1  22
TORSDOF 7
ENDMDL
MODEL 4
REMARK VINA RESULT:     -10.7      6.973     13.637
REMARK  Name = 11979006
REMARK  7 active torsions:
REMARK  status: ('A' for Active; 'I' for Inactive)
REMARK    1  A    between atoms: C_1  and  N_2
REMARK    2  A    between atoms: C_1  and  C_22
REMARK    3  A    between atoms: C_3  and  N_9
REMARK    4  A    between atoms: C_4  and  O_18
REMARK    5  A    between atoms: C_10  and  C_14
REMARK    6  A    between atoms: N_21  and  C_25
REMARK    7  A    between atoms: C_28  and  N_32
REMARK                            x       y       z     vdW  Elec       q    Type
REMARK                         _______ _______ _______ _____ _____    ______ ____
ROOT
ATOM      1  C   UNL     1      35.852 -20.710 -20.455  0.00  0.00    +0.010 C 
ENDROOT
BRANCH   1   2
ATOM      2  N   UNL     1      35.408 -21.154 -19.142  0.00  0.00    +0.396 N 
ATOM      3  C   UNL     1      35.811 -22.163 -17.102  0.00  0.00    +0.076 C 
ATOM      4  C   UNL     1      34.697 -22.956 -17.789  0.00  0.00    +0.106 C 
ATOM      5  C   UNL     1      36.525 -21.461 -18.248  0.00  0.00    -0.054 C 
ATOM      6  C   UNL     1      34.608 -22.383 -19.205  0.00  0.00    -0.045 C 
ATOM      7  H   UNL     1      34.858 -20.371 -18.790  0.00  0.00    -0.079 HD
BRANCH   3   9
ATOM      8  O   UNL     1      35.329 -23.118 -14.493  0.00  0.00    -0.270 OA
ATOM      9  N   UNL     1      36.693 -23.002 -16.339  0.00  0.00    -0.302 N 
ATOM     10  C   UNL     1      36.382 -23.436 -15.047  0.00  0.00    +0.252 C 
ATOM     11  H   UNL     1      37.547 -23.282 -16.739  0.00  0.00    +0.150 HD
BRANCH  10  14
ATOM     12 CL   UNL     1      40.884 -26.393 -14.058  0.00  0.00    -0.075 Cl
ATOM     13  S   UNL     1      38.807 -24.633 -15.244  0.00  0.00    -0.071 S 
ATOM     14  C   UNL     1      37.371 -24.316 -14.407  0.00  0.00    +0.084 C 
ATOM     15  C   UNL     1      37.273 -24.920 -13.202  0.00  0.00    +0.012 C 
ATOM     16  C   UNL     1      38.439 -25.694 -12.934  0.00  0.00    +0.019 C 
ATOM     17  C   UNL     1      39.354 -25.626 -13.961  0.00  0.00    +0.087 C 
ENDBRANCH  10  14
ENDBRANCH   3   9
BRANCH   4  18
ATOM     18  O   UNL     1      33.477 -22.758 -17.087  0.00  0.00    -0.385 OA
ATOM     19  H   UNL     1      33.179 -23.601 -16.713  0.00  0.00    +0.210 HD
ENDBRANCH   4  18
ENDBRANCH   1   2
BRANCH   1  22
ATOM     20  O   UNL     1      33.746 -19.827 -21.234  0.00  0.00    -0.277 OA
ATOM     21  N   UNL     1      35.604 -18.405 -21.040  0.00  0.00    -0.284 N 
ATOM     22  C   UNL     1      34.923 -19.618 -20.959  0.00  0.00    +0.205 C 
ATOM     23  H   UNL     1      36.552 -18.421 -20.773  0.00  0.00    +0.155 HD
BRANCH  21  25
ATOM     24  F   UNL     1      35.324 -17.801 -23.736  0.00  0.00    -0.203 F 
ATOM     25  C   UNL     1      35.095 -17.154 -21.462  0.00  0.00    +0.078 C 
ATOM     26  C   UNL     1      34.970 -16.892 -22.816  0.00  0.00    +0.155 C 
ATOM     27  C   UNL     1      34.731 -16.218 -20.508  0.00  0.00    +0.018 C 
ATOM     28  C   UNL     1      34.097 -14.703 -22.281  0.00  0.00    +0.061 C 
ATOM     29  C   UNL     1      34.467 -15.658 -23.228  0.00  0.00    +0.046 C 
ATOM     30  C   UNL     1      34.229 -14.984 -20.920  0.00  0.00    +0.017 C 
BRANCH  28  32
ATOM     31  O   UNL     1      31.870 -13.313 -21.066  0.00  0.00    -0.269 OA
ATOM     32  N   UNL     1      33.575 -13.420 -22.710  0.00  0.00    -0.233 N 
ATOM     33  C   UNL     1      32.499 -12.822 -22.002  0.00  0.00    +0.257 C 
ATOM     34  C   UNL     1      34.108 -12.778 -23.828  0.00  0.00    +0.072 C 
ATOM     35  C   UNL     1      32.054 -11.478 -22.483  0.00  0.00    +0.059 C 
ATOM     36  C   UNL     1      33.670 -11.590 -24.257  0.00  0.00    +0.017 C 
ATOM     37  C   UNL     1      32.615 -10.919 -23.557  0.00  0.00    +0.006 C 
ENDBRANCH  28  32
ENDBRANCH  21  25
ENDBRANCH   1  22
TORSDOF 7
ENDMDL
MODEL 5
REMARK VINA RESULT:     -10.7      2.965      5.287
REMARK  Name = 11979006
REMARK  7 active torsions:
REMARK  status: ('A' for Active; 'I' for Inactive)
REMARK    1  A    between atoms: C_1  and  N_2
REMARK    2  A    between atoms: C_1  and  C_22
REMARK    3  A    between atoms: C_3  and  N_9
REMARK    4  A    between atoms: C_4  and  O_18
REMARK    5  A    between atoms: C_10  and  C_14
REMARK    6  A    between atoms: N_21  and  C_25
REMARK    7  A    between atoms: C_28  and  N_32
REMARK                            x       y       z     vdW  Elec       q    Type
REMARK                         _______ _______ _______ _____ _____    ______ ____
ROOT
ATOM      1  C   UNL     1      35.324 -18.230 -23.503  0.00  0.00    +0.010 C 
ENDROOT
BRANCH   1   2
ATOM      2  N   UNL     1      34.370 -17.161 -23.250  0.00  0.00    +0.396 N 
ATOM      3  C   UNL     1      33.685 -14.964 -23.465  0.00  0.00    +0.076 C 
ATOM      4  C   UNL     1      33.814 -15.256 -21.968  0.00  0.00    +0.106 C 
ATOM      5  C   UNL     1      34.580 -16.005 -24.122  0.00  0.00    -0.054 C 
ATOM      6  C   UNL     1      34.459 -16.640 -21.881  0.00  0.00    -0.045 C 
ATOM      7  H   UNL     1      33.463 -17.593 -23.423  0.00  0.00    -0.079 HD
BRANCH   3   9
ATOM      8  O   UNL     1      32.133 -12.649 -23.037  0.00  0.00    -0.270 OA
ATOM      9  N   UNL     1      34.071 -13.620 -23.798  0.00  0.00    -0.302 N 
ATOM     10  C   UNL     1      33.244 -12.521 -23.555  0.00  0.00    +0.252 C 
ATOM     11  H   UNL     1      34.950 -13.468 -24.214  0.00  0.00    +0.150 HD
BRANCH  10  14
ATOM     12 CL   UNL     1      34.154  -7.128 -23.836  0.00  0.00    -0.075 Cl
ATOM     13  S   UNL     1      33.133  -9.838 -23.179  0.00  0.00    -0.071 S 
ATOM     14  C   UNL     1      33.792 -11.207 -23.922  0.00  0.00    +0.084 C 
ATOM     15  C   UNL     1      34.782 -10.950 -24.805  0.00  0.00    +0.012 C 
ATOM     16  C   UNL     1      35.028  -9.548 -24.888  0.00  0.00    +0.019 C 
ATOM     17  C   UNL     1      34.201  -8.828 -24.055  0.00  0.00    +0.087 C 
ENDBRANCH  10  14
ENDBRANCH   3   9
BRANCH   4  18
ATOM     18  O   UNL     1      32.520 -15.263 -21.378  0.00  0.00    -0.385 OA
ATOM     19  H   UNL     1      32.303 -14.371 -21.065  0.00  0.00    +0.210 HD
ENDBRANCH   4  18
ENDBRANCH   1   2
BRANCH   1  22
ATOM     20  O   UNL     1      36.845 -18.407 -21.638  0.00  0.00    -0.277 OA
ATOM     21  N   UNL     1      34.930 -19.764 -21.712  0.00  0.00    -0.284 N 
ATOM     22  C   UNL     1      35.813 -18.793 -22.180  0.00  0.00    +0.205 C 
ATOM     23  H   UNL     1      34.145 -19.945 -22.278  0.00  0.00    +0.155 HD
BRANCH  21  25
ATOM     24  F   UNL     1      32.669 -20.773 -20.457  0.00  0.00    -0.203 F 
ATOM     25  C   UNL     1      35.029 -20.520 -20.520  0.00  0.00    +0.078 C 
ATOM     26  C   UNL     1      33.877 -21.006 -19.925  0.00  0.00    +0.155 C 
ATOM     27  C   UNL     1      36.280 -20.758 -19.975  0.00  0.00    +0.018 C 
ATOM     28  C   UNL     1      35.231 -21.999 -18.187  0.00  0.00    +0.061 C 
ATOM     29  C   UNL     1      33.978 -21.751 -18.750  0.00  0.00    +0.046 C 
ATOM     30  C   UNL     1      36.381 -21.502 -18.799  0.00  0.00    +0.017 C 
BRANCH  28  32
ATOM     31  O   UNL     1      33.058 -23.432 -16.925  0.00  0.00    -0.269 OA
ATOM     32  N   UNL     1      35.335 -22.773 -16.965  0.00  0.00    -0.233 N 
ATOM     33  C   UNL     1      34.200 -23.465 -16.467  0.00  0.00    +0.257 C 
ATOM     34  C   UNL     1      36.539 -22.824 -16.260  0.00  0.00    +0.072 C 
ATOM     35  C   UNL     1      34.407 -24.277 -15.228  0.00  0.00    +0.059 C 
ATOM     36  C   UNL     1      36.690 -23.532 -15.136  0.00  0.00    +0.017 C 
ATOM     37  C   UNL     1      35.590 -24.285 -14.610  0.00  0.00    +0.006 C 
ENDBRANCH  28  32
ENDBRANCH  21  25
ENDBRANCH   1  22
TORSDOF 7
ENDMDL
MODEL 6
REMARK VINA RESULT:     -10.7      7.209     13.744
REMARK  Name = 11979006
REMARK  7 active torsions:
REMARK  status: ('A' for Active; 'I' for Inactive)
REMARK    1  A    between atoms: C_1  and  N_2
REMARK    2  A    between atoms: C_1  and  C_22
REMARK    3  A    between atoms: C_3  and  N_9
REMARK    4  A    between atoms: C_4  and  O_18
REMARK    5  A    between atoms: C_10  and  C_14
REMARK    6  A    between atoms: N_21  and  C_25
REMARK    7  A    between atoms: C_28  and  N_32
REMARK                            x       y       z     vdW  Elec       q    Type
REMARK                         _______ _______ _______ _____ _____    ______ ____
ROOT
ATOM      1  C   UNL     1      35.424 -21.189 -20.457  0.00  0.00    +0.010 C 
ENDROOT
BRANCH   1   2
ATOM      2  N   UNL     1      35.040 -21.486 -19.086  0.00  0.00    +0.396 N 
ATOM      3  C   UNL     1      35.521 -22.310 -16.980  0.00  0.00    +0.076 C 
ATOM      4  C   UNL     1      34.343 -23.119 -17.527  0.00  0.00    +0.106 C 
ATOM      5  C   UNL     1      36.194 -21.750 -18.226  0.00  0.00    -0.054 C 
ATOM      6  C   UNL     1      34.195 -22.682 -18.985  0.00  0.00    -0.045 C 
ATOM      7  H   UNL     1      34.538 -20.652 -18.784  0.00  0.00    -0.079 HD
BRANCH   3   9
ATOM      8  O   UNL     1      35.030 -23.213 -14.355  0.00  0.00    -0.270 OA
ATOM      9  N   UNL     1      36.415 -23.106 -16.185  0.00  0.00    -0.302 N 
ATOM     10  C   UNL     1      36.099 -23.516 -14.887  0.00  0.00    +0.252 C 
ATOM     11  H   UNL     1      37.281 -23.372 -16.568  0.00  0.00    +0.150 HD
BRANCH  10  14
ATOM     12 CL   UNL     1      40.668 -26.317 -13.764  0.00  0.00    -0.075 Cl
ATOM     13  S   UNL     1      38.561 -24.644 -15.019  0.00  0.00    -0.071 S 
ATOM     14  C   UNL     1      37.102 -24.353 -14.213  0.00  0.00    +0.084 C 
ATOM     15  C   UNL     1      37.002 -24.936 -12.998  0.00  0.00    +0.012 C 
ATOM     16  C   UNL     1      38.185 -25.670 -12.695  0.00  0.00    +0.019 C 
ATOM     17  C   UNL     1      39.115 -25.594 -13.708  0.00  0.00    +0.087 C 
ENDBRANCH  10  14
ENDBRANCH   3   9
BRANCH   4  18
ATOM     18  O   UNL     1      33.172 -22.806 -16.784  0.00  0.00    -0.385 OA
ATOM     19  H   UNL     1      32.555 -22.312 -17.346  0.00  0.00    +0.210 HD
ENDBRANCH   4  18
ENDBRANCH   1   2
BRANCH   1  22
ATOM     20  O   UNL     1      33.519 -19.711 -20.548  0.00  0.00    -0.277 OA
ATOM     21  N   UNL     1      35.405 -19.262 -21.873  0.00  0.00    -0.284 N 
ATOM     22  C   UNL     1      34.648 -19.979 -20.948  0.00  0.00    +0.205 C 
ATOM     23  H   UNL     1      36.300 -19.623 -22.074  0.00  0.00    +0.155 HD
BRANCH  21  25
ATOM     24  F   UNL     1      35.127 -16.850 -20.527  0.00  0.00    -0.203 F 
ATOM     25  C   UNL     1      35.040 -18.079 -22.557  0.00  0.00    +0.078 C 
ATOM     26  C   UNL     1      34.912 -16.895 -21.850  0.00  0.00    +0.155 C 
ATOM     27  C   UNL     1      34.819 -18.131 -23.924  0.00  0.00    +0.018 C 
ATOM     28  C   UNL     1      34.324 -15.766 -23.903  0.00  0.00    +0.061 C 
ATOM     29  C   UNL     1      34.551 -15.731 -22.527  0.00  0.00    +0.046 C 
ATOM     30  C   UNL     1      34.458 -16.967 -24.601  0.00  0.00    +0.017 C 
BRANCH  28  32
ATOM     31  O   UNL     1      33.400 -15.642 -26.641  0.00  0.00    -0.269 OA
ATOM     32  N   UNL     1      33.949 -14.555 -24.607  0.00  0.00    -0.233 N 
ATOM     33  C   UNL     1      33.471 -14.632 -25.942  0.00  0.00    +0.257 C 
ATOM     34  C   UNL     1      34.075 -13.309 -23.989  0.00  0.00    +0.072 C 
ATOM     35  C   UNL     1      33.062 -13.342 -26.577  0.00  0.00    +0.059 C 
ATOM     36  C   UNL     1      33.732 -12.166 -24.591  0.00  0.00    +0.017 C 
ATOM     37  C   UNL     1      33.203 -12.187 -25.923  0.00  0.00    +0.006 C 
ENDBRANCH  28  32
ENDBRANCH  21  25
ENDBRANCH   1  22
TORSDOF 7
ENDMDL
MODEL 7
REMARK VINA RESULT:     -10.6      4.909      8.493
REMARK  Name = 11979006
REMARK  7 active torsions:
REMARK  status: ('A' for Active; 'I' for Inactive)
REMARK    1  A    between atoms: C_1  and  N_2
REMARK    2  A    between atoms: C_1  and  C_22
REMARK    3  A    between atoms: C_3  and  N_9
REMARK    4  A    between atoms: C_4  and  O_18
REMARK    5  A    between atoms: C_10  and  C_14
REMARK    6  A    between atoms: N_21  and  C_25
REMARK    7  A    between atoms: C_28  and  N_32
REMARK                            x       y       z     vdW  Elec       q    Type
REMARK                         _______ _______ _______ _____ _____    ______ ____
ROOT
ATOM      1  C   UNL     1      33.082 -20.997 -20.460  0.00  0.00    +0.010 C 
ENDROOT
BRANCH   1   2
ATOM      2  N   UNL     1      34.026 -19.900 -20.614  0.00  0.00    +0.396 N 
ATOM      3  C   UNL     1      34.604 -17.828 -21.461  0.00  0.00    +0.076 C 
ATOM      4  C   UNL     1      35.629 -18.836 -21.986  0.00  0.00    +0.106 C 
ATOM      5  C   UNL     1      33.391 -18.681 -21.116  0.00  0.00    -0.054 C 
ATOM      6  C   UNL     1      35.094 -20.208 -21.573  0.00  0.00    -0.045 C 
ATOM      7  H   UNL     1      34.400 -19.762 -19.676  0.00  0.00    -0.079 HD
BRANCH   3   9
ATOM      8  O   UNL     1      34.505 -15.059 -20.937  0.00  0.00    -0.270 OA
ATOM      9  N   UNL     1      34.298 -16.803 -22.420  0.00  0.00    -0.302 N 
ATOM     10  C   UNL     1      34.269 -15.447 -22.082  0.00  0.00    +0.252 C 
ATOM     11  H   UNL     1      34.102 -17.064 -23.348  0.00  0.00    +0.150 HD
BRANCH  10  14
ATOM     12 CL   UNL     1      33.031 -13.395 -27.006  0.00  0.00    -0.075 Cl
ATOM     13  S   UNL     1      33.647 -15.170 -24.707  0.00  0.00    -0.071 S 
ATOM     14  C   UNL     1      33.972 -14.516 -23.181  0.00  0.00    +0.084 C 
ATOM     15  C   UNL     1      33.926 -13.166 -23.122  0.00  0.00    +0.012 C 
ATOM     16  C   UNL     1      33.605 -12.620 -24.399  0.00  0.00    +0.019 C 
ATOM     17  C   UNL     1      33.427 -13.599 -25.351  0.00  0.00    +0.087 C 
ENDBRANCH  10  14
ENDBRANCH   3   9
BRANCH   4  18
ATOM     18  O   UNL     1      36.890 -18.582 -21.381  0.00  0.00    -0.385 OA
ATOM     19  H   UNL     1      37.239 -19.405 -21.003  0.00  0.00    +0.210 HD
ENDBRANCH   4  18
ENDBRANCH   1   2
BRANCH   1  22
ATOM     20  O   UNL     1      32.345 -22.017 -18.402  0.00  0.00    -0.277 OA
ATOM     21  N   UNL     1      34.641 -21.752 -18.813  0.00  0.00    -0.284 N 
ATOM     22  C   UNL     1      33.282 -21.647 -19.102  0.00  0.00    +0.205 C 
ATOM     23  H   UNL     1      35.259 -21.404 -19.497  0.00  0.00    +0.155 HD
BRANCH  21  25
ATOM     24  F   UNL     1      37.266 -21.157 -18.130  0.00  0.00    -0.203 F 
ATOM     25  C   UNL     1      35.239 -22.298 -17.652  0.00  0.00    +0.078 C 
ATOM     26  C   UNL     1      36.550 -21.977 -17.346  0.00  0.00    +0.155 C 
ATOM     27  C   UNL     1      34.495 -23.144 -16.846  0.00  0.00    +0.018 C 
ATOM     28  C   UNL     1      36.401 -23.371 -15.378  0.00  0.00    +0.061 C 
ATOM     29  C   UNL     1      37.136 -22.517 -16.201  0.00  0.00    +0.046 C 
ATOM     30  C   UNL     1      35.080 -23.685 -15.702  0.00  0.00    +0.017 C 
BRANCH  28  32
ATOM     31  O   UNL     1      37.673 -25.963 -15.218  0.00  0.00    -0.269 OA
ATOM     32  N   UNL     1      37.010 -23.933 -14.189  0.00  0.00    -0.233 N 
ATOM     33  C   UNL     1      37.640 -25.204 -14.250  0.00  0.00    +0.257 C 
ATOM     34  C   UNL     1      36.963 -23.243 -12.976  0.00  0.00    +0.072 C 
ATOM     35  C   UNL     1      38.285 -25.688 -12.990  0.00  0.00    +0.059 C 
ATOM     36  C   UNL     1      37.519 -23.713 -11.855  0.00  0.00    +0.017 C 
ATOM     37  C   UNL     1      38.206 -24.971 -11.867  0.00  0.00    +0.006 C 
ENDBRANCH  28  32
ENDBRANCH  21  25
ENDBRANCH   1  22
TORSDOF 7
ENDMDL
MODEL 8
REMARK VINA RESULT:     -10.5      1.513      2.130
REMARK  Name = 11979006
REMARK  7 active torsions:
REMARK  status: ('A' for Active; 'I' for Inactive)
REMARK    1  A    between atoms: C_1  and  N_2
REMARK    2  A    between atoms: C_1  and  C_22
REMARK    3  A    between atoms: C_3  and  N_9
REMARK    4  A    between atoms: C_4  and  O_18
REMARK    5  A    between atoms: C_10  and  C_14
REMARK    6  A    between atoms: N_21  and  C_25
REMARK    7  A    between atoms: C_28  and  N_32
REMARK                            x       y       z     vdW  Elec       q    Type
REMARK                         _______ _______ _______ _____ _____    ______ ____
ROOT
ATOM      1  C   UNL     1      33.244 -11.362 -24.502  0.00  0.00    +0.010 C 
ENDROOT
BRANCH   1   2
ATOM      2  N   UNL     1      33.486 -10.139 -23.750  0.00  0.00    +0.396 N 
ATOM      3  C   UNL     1      33.060  -7.909 -23.318  0.00  0.00    +0.076 C 
ATOM      4  C   UNL     1      34.543  -8.027 -23.677  0.00  0.00    +0.106 C 
ATOM      5  C   UNL     1      32.429  -9.146 -23.942  0.00  0.00    -0.054 C 
ATOM      6  C   UNL     1      34.730  -9.470 -24.149  0.00  0.00    -0.045 C 
ATOM      7  H   UNL     1      33.528 -10.450 -22.780  0.00  0.00    -0.079 HD
BRANCH   3   9
ATOM      8  O   UNL     1      32.282  -5.711 -21.731  0.00  0.00    -0.270 OA
ATOM      9  N   UNL     1      32.471  -6.690 -23.802  0.00  0.00    -0.302 N 
ATOM     10  C   UNL     1      32.112  -5.643 -22.949  0.00  0.00    +0.252 C 
ATOM     11  H   UNL     1      32.316  -6.589 -24.768  0.00  0.00    +0.150 HD
BRANCH  10  14
ATOM     12 CL   UNL     1      30.448  -2.033 -26.716  0.00  0.00    -0.075 Cl
ATOM     13  S   UNL     1      31.553  -4.390 -25.289  0.00  0.00    -0.071 S 
ATOM     14  C   UNL     1      31.551  -4.448 -23.598  0.00  0.00    +0.084 C 
ATOM     15  C   UNL     1      31.020  -3.361 -22.995  0.00  0.00    +0.012 C 
ATOM     16  C   UNL     1      30.584  -2.413 -23.966  0.00  0.00    +0.019 C 
ATOM     17  C   UNL     1      30.814  -2.847 -25.252  0.00  0.00    +0.087 C 
ENDBRANCH  10  14
ENDBRANCH   3   9
BRANCH   4  18
ATOM     18  O   UNL     1      35.328  -7.768 -22.521  0.00  0.00    -0.385 OA
ATOM     19  H   UNL     1      36.256  -7.978 -22.707  0.00  0.00    +0.210 HD
ENDBRANCH   4  18
ENDBRANCH   1   2
BRANCH   1  22
ATOM     20  O   UNL     1      32.343 -12.583 -22.626  0.00  0.00    -0.277 OA
ATOM     21  N   UNL     1      34.110 -13.499 -23.871  0.00  0.00    -0.284 N 
ATOM     22  C   UNL     1      33.158 -12.536 -23.542  0.00  0.00    +0.205 C 
ATOM     23  H   UNL     1      34.683 -13.296 -24.646  0.00  0.00    +0.155 HD
BRANCH  21  25
ATOM     24  F   UNL     1      34.291 -15.867 -25.310  0.00  0.00    -0.203 F 
ATOM     25  C   UNL     1      34.350 -14.734 -23.223  0.00  0.00    +0.078 C 
ATOM     26  C   UNL     1      34.433 -15.893 -23.976  0.00  0.00    +0.155 C 
ATOM     27  C   UNL     1      34.496 -14.755 -21.846  0.00  0.00    +0.018 C 
ATOM     28  C   UNL     1      34.819 -17.148 -21.948  0.00  0.00    +0.061 C 
ATOM     29  C   UNL     1      34.670 -17.108 -23.335  0.00  0.00    +0.046 C 
ATOM     30  C   UNL     1      34.731 -15.971 -21.204  0.00  0.00    +0.017 C 
BRANCH  28  32
ATOM     31  O   UNL     1      32.775 -18.927 -20.936  0.00  0.00    -0.269 OA
ATOM     32  N   UNL     1      35.063 -18.412 -21.281  0.00  0.00    -0.233 N 
ATOM     33  C   UNL     1      33.969 -19.215 -20.865  0.00  0.00    +0.257 C 
ATOM     34  C   UNL     1      36.369 -18.836 -21.025  0.00  0.00    +0.072 C 
ATOM     35  C   UNL     1      34.311 -20.524 -20.228  0.00  0.00    +0.059 C 
ATOM     36  C   UNL     1      36.647 -19.997 -20.424  0.00  0.00    +0.017 C 
ATOM     37  C   UNL     1      35.583 -20.869 -20.021  0.00  0.00    +0.006 C 
ENDBRANCH  28  32
ENDBRANCH  21  25
ENDBRANCH   1  22
TORSDOF 7
ENDMDL
MODEL 9
REMARK VINA RESULT:     -10.4      7.022     13.696
REMARK  Name = 11979006
REMARK  7 active torsions:
REMARK  status: ('A' for Active; 'I' for Inactive)
REMARK    1  A    between atoms: C_1  and  N_2
REMARK    2  A    between atoms: C_1  and  C_22
REMARK    3  A    between atoms: C_3  and  N_9
REMARK    4  A    between atoms: C_4  and  O_18
REMARK    5  A    between atoms: C_10  and  C_14
REMARK    6  A    between atoms: N_21  and  C_25
REMARK    7  A    between atoms: C_28  and  N_32
REMARK                            x       y       z     vdW  Elec       q    Type
REMARK                         _______ _______ _______ _____ _____    ______ ____
ROOT
ATOM      1  C   UNL     1      35.370 -21.224 -20.483  0.00  0.00    +0.010 C 
ENDROOT
BRANCH   1   2
ATOM      2  N   UNL     1      34.977 -21.524 -19.114  0.00  0.00    +0.396 N 
ATOM      3  C   UNL     1      35.449 -22.340 -17.004  0.00  0.00    +0.076 C 
ATOM      4  C   UNL     1      34.283 -23.161 -17.559  0.00  0.00    +0.106 C 
ATOM      5  C   UNL     1      36.127 -21.776 -18.244  0.00  0.00    -0.054 C 
ATOM      6  C   UNL     1      34.143 -22.727 -19.019  0.00  0.00    -0.045 C 
ATOM      7  H   UNL     1      34.465 -20.694 -18.817  0.00  0.00    -0.079 HD
BRANCH   3   9
ATOM      8  O   UNL     1      34.970 -23.194 -14.359  0.00  0.00    -0.270 OA
ATOM      9  N   UNL     1      36.344 -23.127 -16.200  0.00  0.00    -0.302 N 
ATOM     10  C   UNL     1      36.034 -23.512 -14.893  0.00  0.00    +0.252 C 
ATOM     11  H   UNL     1      37.206 -23.405 -16.584  0.00  0.00    +0.150 HD
BRANCH  10  14
ATOM     12 CL   UNL     1      40.616 -26.275 -13.728  0.00  0.00    -0.075 Cl
ATOM     13  S   UNL     1      38.508 -24.616 -15.001  0.00  0.00    -0.071 S 
ATOM     14  C   UNL     1      37.037 -24.343 -14.211  0.00  0.00    +0.084 C 
ATOM     15  C   UNL     1      36.928 -24.932 -13.000  0.00  0.00    +0.012 C 
ATOM     16  C   UNL     1      38.114 -25.656 -12.685  0.00  0.00    +0.019 C 
ATOM     17  C   UNL     1      39.055 -25.567 -13.687  0.00  0.00    +0.087 C 
ENDBRANCH  10  14
ENDBRANCH   3   9
BRANCH   4  18
ATOM     18  O   UNL     1      33.103 -22.858 -16.826  0.00  0.00    -0.385 OA
ATOM     19  H   UNL     1      32.330 -22.962 -17.401  0.00  0.00    +0.210 HD
ENDBRANCH   4  18
ENDBRANCH   1   2
BRANCH   1  22
ATOM     20  O   UNL     1      33.571 -19.616 -20.456  0.00  0.00    -0.277 OA
ATOM     21  N   UNL     1      35.308 -19.394 -22.020  0.00  0.00    -0.284 N 
ATOM     22  C   UNL     1      34.623 -19.992 -20.964  0.00  0.00    +0.205 C 
ATOM     23  H   UNL     1      36.146 -19.832 -22.297  0.00  0.00    +0.155 HD
BRANCH  21  25
ATOM     24  F   UNL     1      34.808 -19.489 -24.749  0.00  0.00    -0.203 F 
ATOM     25  C   UNL     1      34.943 -18.232 -22.739  0.00  0.00    +0.078 C 
ATOM     26  C   UNL     1      34.702 -18.321 -24.100  0.00  0.00    +0.155 C 
ATOM     27  C   UNL     1      34.835 -17.027 -22.064  0.00  0.00    +0.018 C 
ATOM     28  C   UNL     1      34.229 -15.952 -24.141  0.00  0.00    +0.061 C 
ATOM     29  C   UNL     1      34.342 -17.173 -24.806  0.00  0.00    +0.046 C 
ATOM     30  C   UNL     1      34.476 -15.879 -22.770  0.00  0.00    +0.017 C 
BRANCH  28  32
ATOM     31  O   UNL     1      34.139 -13.276 -23.048  0.00  0.00    -0.269 OA
ATOM     32  N   UNL     1      33.856 -14.759 -24.876  0.00  0.00    -0.233 N 
ATOM     33  C   UNL     1      33.890 -13.493 -24.234  0.00  0.00    +0.257 C 
ATOM     34  C   UNL     1      33.442 -14.847 -26.206  0.00  0.00    +0.072 C 
ATOM     35  C   UNL     1      33.536 -12.310 -25.077  0.00  0.00    +0.059 C 
ATOM     36  C   UNL     1      33.099 -13.776 -26.930  0.00  0.00    +0.017 C 
ATOM     37  C   UNL     1      33.156 -12.469 -26.346  0.00  0.00    +0.006 C 
ENDBRANCH  28  32
ENDBRANCH  21  25
ENDBRANCH   1  22
TORSDOF 7
ENDMDL
