MODEL 1
REMARK VINA RESULT:      -7.6      0.000      0.000
REMARK  Name = 25011726
REMARK  13 active torsions:
REMARK  status: ('A' for Active; 'I' for Inactive)
REMARK    1  A    between atoms: C_1  and  C_4
REMARK    2  A    between atoms: C_1  and  C_16
REMARK    3  A    between atoms: C_1  and  O_27
REMARK    4  A    between atoms: N_3  and  C_6
REMARK    5  A    between atoms: C_6  and  C_7
REMARK    6  A    between atoms: C_7  and  C_10
REMARK    7  A    between atoms: N_9  and  C_12
REMARK    8  A    between atoms: C_12  and  C_13
REMARK    9  A    between atoms: C_13  and  O_14
REMARK   10  A    between atoms: C_16  and  C_19
REMARK   11  A    between atoms: C_19  and  O_20
REMARK   12  A    between atoms: O_20  and  C_22
REMARK   13  A    between atoms: C_22  and  C_23
REMARK                            x       y       z     vdW  Elec       q    Type
REMARK                         _______ _______ _______ _____ _____    ______ ____
ROOT
ATOM      1  C   UNL     1      33.965 -23.800 -13.509  0.00  0.00    +0.190 C 
ENDROOT
BRANCH   1   4
ATOM      2  O   UNL     1      35.517 -23.463 -15.334  0.00  0.00    -0.272 OA
ATOM      3  N   UNL     1      35.319 -25.591 -14.431  0.00  0.00    -0.302 N 
ATOM      4  C   UNL     1      35.008 -24.245 -14.533  0.00  0.00    +0.249 C 
ATOM      5  H   UNL     1      34.852 -26.131 -13.754  0.00  0.00    +0.150 HD
BRANCH   3   6
ATOM      6  C   UNL     1      36.298 -26.238 -15.274  0.00  0.00    +0.099 C 
BRANCH   6   7
ATOM      7  C   UNL     1      37.550 -26.634 -14.505  0.00  0.00    +0.106 C 
BRANCH   7  10
ATOM      8  O   UNL     1      37.174 -26.558 -12.112  0.00  0.00    -0.275 OA
ATOM      9  N   UNL     1      38.262 -24.783 -13.143  0.00  0.00    -0.302 N 
ATOM     10  C   UNL     1      37.629 -26.018 -13.117  0.00  0.00    +0.224 C 
ATOM     11  H   UNL     1      38.591 -24.441 -14.005  0.00  0.00    +0.150 HD
BRANCH   9  12
ATOM     12  C   UNL     1      38.458 -23.979 -11.959  0.00  0.00    +0.121 C 
BRANCH  12  13
ATOM     13  C   UNL     1      37.192 -23.233 -11.576  0.00  0.00    +0.158 C 
BRANCH  13  14
ATOM     14  O   UNL     1      36.504 -23.959 -10.566  0.00  0.00    -0.380 OA
ATOM     15  H   UNL     1      35.688 -24.334 -10.935  0.00  0.00    +0.211 HD
ENDBRANCH  13  14
ENDBRANCH  12  13
ENDBRANCH   9  12
ENDBRANCH   7  10
ENDBRANCH   6   7
ENDBRANCH   3   6
ENDBRANCH   1   4
BRANCH   1  16
ATOM     16  C   UNL     1      32.496 -23.867 -14.022  0.00  0.00    +0.074 C 
ATOM     17  C   UNL     1      31.670 -22.781 -13.292  0.00  0.00    +0.007 C 
ATOM     18  C   UNL     1      31.859 -25.232 -13.695  0.00  0.00    +0.007 C 
BRANCH  16  19
ATOM     19  C   UNL     1      32.423 -23.606 -15.546  0.00  0.00    +0.211 C 
BRANCH  19  20
ATOM     20  O   UNL     1      31.178 -24.042 -16.082  0.00  0.00    -0.448 OA
BRANCH  20  22
ATOM     21  O   UNL     1      30.722 -22.133 -17.282  0.00  0.00    -0.250 OA
ATOM     22  C   UNL     1      30.357 -23.059 -16.568  0.00  0.00    +0.316 C 
BRANCH  22  23
ATOM     23  C   UNL     1      28.916 -23.272 -16.095  0.00  0.00    +0.090 C 
ATOM     24  C   UNL     1      28.530 -22.161 -15.108  0.00  0.00    +0.011 C 
ATOM     25  C   UNL     1      28.805 -24.630 -15.383  0.00  0.00    +0.011 C 
ATOM     26  C   UNL     1      27.972 -23.266 -17.305  0.00  0.00    +0.011 C 
ENDBRANCH  22  23
ENDBRANCH  20  22
ENDBRANCH  19  20
ENDBRANCH  16  19
ENDBRANCH   1  16
BRANCH   1  27
ATOM     27  O   UNL     1      34.119 -24.653 -12.379  0.00  0.00    -0.376 OA
ATOM     28  H   UNL     1      34.927 -25.182 -12.480  0.00  0.00    +0.211 HD
ENDBRANCH   1  27
TORSDOF 13
ENDMDL
MODEL 2
REMARK VINA RESULT:      -7.2      2.628      4.388
REMARK  Name = 25011726
REMARK  13 active torsions:
REMARK  status: ('A' for Active; 'I' for Inactive)
REMARK    1  A    between atoms: C_1  and  C_4
REMARK    2  A    between atoms: C_1  and  C_16
REMARK    3  A    between atoms: C_1  and  O_27
REMARK    4  A    between atoms: N_3  and  C_6
REMARK    5  A    between atoms: C_6  and  C_7
REMARK    6  A    between atoms: C_7  and  C_10
REMARK    7  A    between atoms: N_9  and  C_12
REMARK    8  A    between atoms: C_12  and  C_13
REMARK    9  A    between atoms: C_13  and  O_14
REMARK   10  A    between atoms: C_16  and  C_19
REMARK   11  A    between atoms: C_19  and  O_20
REMARK   12  A    between atoms: O_20  and  C_22
REMARK   13  A    between atoms: C_22  and  C_23
REMARK                            x       y       z     vdW  Elec       q    Type
REMARK                         _______ _______ _______ _____ _____    ______ ____
ROOT
ATOM      1  C   UNL     1      34.113 -23.887 -13.409  0.00  0.00    +0.190 C 
ENDROOT
BRANCH   1   4
ATOM      2  O   UNL     1      35.235 -25.176 -15.122  0.00  0.00    -0.272 OA
ATOM      3  N   UNL     1      35.944 -23.001 -14.734  0.00  0.00    -0.302 N 
ATOM      4  C   UNL     1      35.151 -24.114 -14.507  0.00  0.00    +0.249 C 
ATOM      5  H   UNL     1      35.795 -22.198 -14.184  0.00  0.00    +0.150 HD
BRANCH   3   6
ATOM      6  C   UNL     1      36.979 -22.965 -15.742  0.00  0.00    +0.099 C 
BRANCH   6   7
ATOM      7  C   UNL     1      36.800 -21.805 -16.711  0.00  0.00    +0.106 C 
BRANCH   7  10
ATOM      8  O   UNL     1      35.006 -23.018 -17.797  0.00  0.00    -0.275 OA
ATOM      9  N   UNL     1      35.981 -21.218 -18.896  0.00  0.00    -0.302 N 
ATOM     10  C   UNL     1      35.822 -22.101 -17.836  0.00  0.00    +0.224 C 
ATOM     11  H   UNL     1      36.667 -20.516 -18.824  0.00  0.00    +0.150 HD
BRANCH   9  12
ATOM     12  C   UNL     1      35.184 -21.287 -20.098  0.00  0.00    +0.121 C 
BRANCH  12  13
ATOM     13  C   UNL     1      33.778 -20.764 -19.867  0.00  0.00    +0.158 C 
BRANCH  13  14
ATOM     14  O   UNL     1      32.908 -21.854 -19.595  0.00  0.00    -0.380 OA
ATOM     15  H   UNL     1      31.998 -21.527 -19.504  0.00  0.00    +0.211 HD
ENDBRANCH  13  14
ENDBRANCH  12  13
ENDBRANCH   9  12
ENDBRANCH   7  10
ENDBRANCH   6   7
ENDBRANCH   3   6
ENDBRANCH   1   4
BRANCH   1  16
ATOM     16  C   UNL     1      32.639 -23.889 -13.912  0.00  0.00    +0.074 C 
ATOM     17  C   UNL     1      31.847 -22.821 -13.121  0.00  0.00    +0.007 C 
ATOM     18  C   UNL     1      31.968 -25.251 -13.650  0.00  0.00    +0.007 C 
BRANCH  16  19
ATOM     19  C   UNL     1      32.562 -23.549 -15.421  0.00  0.00    +0.211 C 
BRANCH  19  20
ATOM     20  O   UNL     1      31.353 -24.033 -15.995  0.00  0.00    -0.448 OA
BRANCH  20  22
ATOM     21  O   UNL     1      30.871 -22.196 -17.293  0.00  0.00    -0.250 OA
ATOM     22  C   UNL     1      30.519 -23.084 -16.526  0.00  0.00    +0.316 C 
BRANCH  22  23
ATOM     23  C   UNL     1      29.084 -23.283 -16.030  0.00  0.00    +0.090 C 
ATOM     24  C   UNL     1      28.736 -22.186 -15.015  0.00  0.00    +0.011 C 
ATOM     25  C   UNL     1      28.964 -24.653 -15.343  0.00  0.00    +0.011 C 
ATOM     26  C   UNL     1      28.118 -23.237 -17.222  0.00  0.00    +0.011 C 
ENDBRANCH  22  23
ENDBRANCH  20  22
ENDBRANCH  19  20
ENDBRANCH  16  19
ENDBRANCH   1  16
BRANCH   1  27
ATOM     27  O   UNL     1      34.297 -24.931 -12.457  0.00  0.00    -0.376 OA
ATOM     28  H   UNL     1      35.111 -25.418 -12.664  0.00  0.00    +0.211 HD
ENDBRANCH   1  27
TORSDOF 13
ENDMDL
MODEL 3
REMARK VINA RESULT:      -7.2     12.806     15.476
REMARK  Name = 25011726
REMARK  13 active torsions:
REMARK  status: ('A' for Active; 'I' for Inactive)
REMARK    1  A    between atoms: C_1  and  C_4
REMARK    2  A    between atoms: C_1  and  C_16
REMARK    3  A    between atoms: C_1  and  O_27
REMARK    4  A    between atoms: N_3  and  C_6
REMARK    5  A    between atoms: C_6  and  C_7
REMARK    6  A    between atoms: C_7  and  C_10
REMARK    7  A    between atoms: N_9  and  C_12
REMARK    8  A    between atoms: C_12  and  C_13
REMARK    9  A    between atoms: C_13  and  O_14
REMARK   10  A    between atoms: C_16  and  C_19
REMARK   11  A    between atoms: C_19  and  O_20
REMARK   12  A    between atoms: O_20  and  C_22
REMARK   13  A    between atoms: C_22  and  C_23
REMARK                            x       y       z     vdW  Elec       q    Type
REMARK                         _______ _______ _______ _____ _____    ______ ____
ROOT
ATOM      1  C   UNL     1      32.268 -14.300 -22.385  0.00  0.00    +0.190 C 
ENDROOT
BRANCH   1   4
ATOM      2  O   UNL     1      32.506 -12.965 -20.382  0.00  0.00    -0.272 OA
ATOM      3  N   UNL     1      31.407 -12.038 -22.203  0.00  0.00    -0.302 N 
ATOM      4  C   UNL     1      32.078 -13.048 -21.532  0.00  0.00    +0.249 C 
ATOM      5  H   UNL     1      31.105 -12.207 -23.124  0.00  0.00    +0.150 HD
BRANCH   3   6
ATOM      6  C   UNL     1      31.132 -10.748 -21.612  0.00  0.00    +0.099 C 
BRANCH   6   7
ATOM      7  C   UNL     1      32.234  -9.738 -21.896  0.00  0.00    +0.106 C 
BRANCH   7  10
ATOM      8  O   UNL     1      32.226  -8.383 -19.887  0.00  0.00    -0.275 OA
ATOM      9  N   UNL     1      31.781  -7.375 -21.932  0.00  0.00    -0.302 N 
ATOM     10  C   UNL     1      32.091  -8.446 -21.106  0.00  0.00    +0.224 C 
ATOM     11  H   UNL     1      31.695  -7.536 -22.899  0.00  0.00    +0.150 HD
BRANCH   9  12
ATOM     12  C   UNL     1      31.578  -6.035 -21.433  0.00  0.00    +0.121 C 
BRANCH  12  13
ATOM     13  C   UNL     1      30.963  -5.133 -22.488  0.00  0.00    +0.158 C 
BRANCH  13  14
ATOM     14  O   UNL     1      30.237  -4.090 -21.853  0.00  0.00    -0.380 OA
ATOM     15  H   UNL     1      29.851  -3.508 -22.527  0.00  0.00    +0.211 HD
ENDBRANCH  13  14
ENDBRANCH  12  13
ENDBRANCH   9  12
ENDBRANCH   7  10
ENDBRANCH   6   7
ENDBRANCH   3   6
ENDBRANCH   1   4
BRANCH   1  16
ATOM     16  C   UNL     1      33.602 -14.332 -23.188  0.00  0.00    +0.074 C 
ATOM     17  C   UNL     1      33.902 -12.903 -23.700  0.00  0.00    +0.007 C 
ATOM     18  C   UNL     1      33.484 -15.250 -24.420  0.00  0.00    +0.007 C 
BRANCH  16  19
ATOM     19  C   UNL     1      34.779 -14.799 -22.297  0.00  0.00    +0.211 C 
BRANCH  19  20
ATOM     20  O   UNL     1      35.030 -16.191 -22.467  0.00  0.00    -0.448 OA
BRANCH  20  22
ATOM     21  O   UNL     1      35.031 -16.479 -20.184  0.00  0.00    -0.250 OA
ATOM     22  C   UNL     1      35.058 -16.939 -21.319  0.00  0.00    +0.316 C 
BRANCH  22  23
ATOM     23  C   UNL     1      35.130 -18.433 -21.648  0.00  0.00    +0.090 C 
ATOM     24  C   UNL     1      36.401 -19.033 -21.030  0.00  0.00    +0.011 C 
ATOM     25  C   UNL     1      35.181 -18.622 -23.172  0.00  0.00    +0.011 C 
ATOM     26  C   UNL     1      33.883 -19.140 -21.099  0.00  0.00    +0.011 C 
ENDBRANCH  22  23
ENDBRANCH  20  22
ENDBRANCH  19  20
ENDBRANCH  16  19
ENDBRANCH   1  16
BRANCH   1  27
ATOM     27  O   UNL     1      32.219 -15.409 -21.491  0.00  0.00    -0.376 OA
ATOM     28  H   UNL     1      32.565 -15.141 -20.624  0.00  0.00    +0.211 HD
ENDBRANCH   1  27
TORSDOF 13
ENDMDL
MODEL 4
REMARK VINA RESULT:      -7.2      1.557      2.366
REMARK  Name = 25011726
REMARK  13 active torsions:
REMARK  status: ('A' for Active; 'I' for Inactive)
REMARK    1  A    between atoms: C_1  and  C_4
REMARK    2  A    between atoms: C_1  and  C_16
REMARK    3  A    between atoms: C_1  and  O_27
REMARK    4  A    between atoms: N_3  and  C_6
REMARK    5  A    between atoms: C_6  and  C_7
REMARK    6  A    between atoms: C_7  and  C_10
REMARK    7  A    between atoms: N_9  and  C_12
REMARK    8  A    between atoms: C_12  and  C_13
REMARK    9  A    between atoms: C_13  and  O_14
REMARK   10  A    between atoms: C_16  and  C_19
REMARK   11  A    between atoms: C_19  and  O_20
REMARK   12  A    between atoms: O_20  and  C_22
REMARK   13  A    between atoms: C_22  and  C_23
REMARK                            x       y       z     vdW  Elec       q    Type
REMARK                         _______ _______ _______ _____ _____    ______ ____
ROOT
ATOM      1  C   UNL     1      33.881 -23.802 -13.737  0.00  0.00    +0.190 C 
ENDROOT
BRANCH   1   4
ATOM      2  O   UNL     1      35.047 -25.028 -15.466  0.00  0.00    -0.272 OA
ATOM      3  N   UNL     1      35.399 -22.740 -15.305  0.00  0.00    -0.302 N 
ATOM      4  C   UNL     1      34.837 -23.946 -14.919  0.00  0.00    +0.249 C 
ATOM      5  H   UNL     1      35.165 -21.930 -14.799  0.00  0.00    +0.150 HD
BRANCH   3   6
ATOM      6  C   UNL     1      36.315 -22.619 -16.416  0.00  0.00    +0.099 C 
BRANCH   6   7
ATOM      7  C   UNL     1      37.770 -22.667 -15.971  0.00  0.00    +0.106 C 
BRANCH   7  10
ATOM      8  O   UNL     1      38.005 -23.311 -13.647  0.00  0.00    -0.275 OA
ATOM      9  N   UNL     1      38.285 -24.919 -15.300  0.00  0.00    -0.302 N 
ATOM     10  C   UNL     1      38.024 -23.640 -14.830  0.00  0.00    +0.224 C 
ATOM     11  H   UNL     1      38.275 -25.075 -16.272  0.00  0.00    +0.150 HD
BRANCH   9  12
ATOM     12  C   UNL     1      38.571 -26.031 -14.424  0.00  0.00    +0.121 C 
BRANCH  12  13
ATOM     13  C   UNL     1      37.341 -26.891 -14.192  0.00  0.00    +0.158 C 
BRANCH  13  14
ATOM     14  O   UNL     1      36.635 -26.407 -13.057  0.00  0.00    -0.380 OA
ATOM     15  H   UNL     1      36.266 -27.156 -12.563  0.00  0.00    +0.211 HD
ENDBRANCH  13  14
ENDBRANCH  12  13
ENDBRANCH   9  12
ENDBRANCH   7  10
ENDBRANCH   6   7
ENDBRANCH   3   6
ENDBRANCH   1   4
BRANCH   1  16
ATOM     16  C   UNL     1      32.372 -23.839 -14.124  0.00  0.00    +0.074 C 
ATOM     17  C   UNL     1      31.628 -22.754 -13.310  0.00  0.00    +0.007 C 
ATOM     18  C   UNL     1      31.744 -25.200 -13.767  0.00  0.00    +0.007 C 
BRANCH  16  19
ATOM     19  C   UNL     1      32.176 -23.552 -15.633  0.00  0.00    +0.211 C 
BRANCH  19  20
ATOM     20  O   UNL     1      30.886 -23.967 -16.071  0.00  0.00    -0.448 OA
BRANCH  20  22
ATOM     21  O   UNL     1      30.449 -22.046 -17.258  0.00  0.00    -0.250 OA
ATOM     22  C   UNL     1      30.072 -22.981 -16.561  0.00  0.00    +0.316 C 
BRANCH  22  23
ATOM     23  C   UNL     1      28.623 -23.203 -16.119  0.00  0.00    +0.090 C 
ATOM     24  C   UNL     1      28.489 -24.592 -15.480  0.00  0.00    +0.011 C 
ATOM     25  C   UNL     1      27.696 -23.126 -17.343  0.00  0.00    +0.011 C 
ATOM     26  C   UNL     1      28.218 -22.111 -15.119  0.00  0.00    +0.011 C 
ENDBRANCH  22  23
ENDBRANCH  20  22
ENDBRANCH  19  20
ENDBRANCH  16  19
ENDBRANCH   1  16
BRANCH   1  27
ATOM     27  O   UNL     1      34.174 -24.876 -12.847  0.00  0.00    -0.376 OA
ATOM     28  H   UNL     1      34.186 -24.545 -11.934  0.00  0.00    +0.211 HD
ENDBRANCH   1  27
TORSDOF 13
ENDMDL
MODEL 5
REMARK VINA RESULT:      -7.1      7.047      8.140
REMARK  Name = 25011726
REMARK  13 active torsions:
REMARK  status: ('A' for Active; 'I' for Inactive)
REMARK    1  A    between atoms: C_1  and  C_4
REMARK    2  A    between atoms: C_1  and  C_16
REMARK    3  A    between atoms: C_1  and  O_27
REMARK    4  A    between atoms: N_3  and  C_6
REMARK    5  A    between atoms: C_6  and  C_7
REMARK    6  A    between atoms: C_7  and  C_10
REMARK    7  A    between atoms: N_9  and  C_12
REMARK    8  A    between atoms: C_12  and  C_13
REMARK    9  A    between atoms: C_13  and  O_14
REMARK   10  A    between atoms: C_16  and  C_19
REMARK   11  A    between atoms: C_19  and  O_20
REMARK   12  A    between atoms: O_20  and  C_22
REMARK   13  A    between atoms: C_22  and  C_23
REMARK                            x       y       z     vdW  Elec       q    Type
REMARK                         _______ _______ _______ _____ _____    ______ ____
ROOT
ATOM      1  C   UNL     1      36.109 -20.312 -20.712  0.00  0.00    +0.190 C 
ENDROOT
BRANCH   1   4
ATOM      2  O   UNL     1      34.910 -22.249 -19.897  0.00  0.00    -0.272 OA
ATOM      3  N   UNL     1      36.433 -21.217 -18.483  0.00  0.00    -0.302 N 
ATOM      4  C   UNL     1      35.733 -21.364 -19.670  0.00  0.00    +0.249 C 
ATOM      5  H   UNL     1      37.071 -20.472 -18.404  0.00  0.00    +0.150 HD
BRANCH   3   6
ATOM      6  C   UNL     1      36.268 -22.107 -17.357  0.00  0.00    +0.099 C 
BRANCH   6   7
ATOM      7  C   UNL     1      37.467 -22.078 -16.419  0.00  0.00    +0.106 C 
BRANCH   7  10
ATOM      8  O   UNL     1      36.572 -23.108 -14.417  0.00  0.00    -0.275 OA
ATOM      9  N   UNL     1      38.399 -24.083 -15.470  0.00  0.00    -0.302 N 
ATOM     10  C   UNL     1      37.403 -23.127 -15.321  0.00  0.00    +0.224 C 
ATOM     11  H   UNL     1      39.016 -24.004 -16.233  0.00  0.00    +0.150 HD
BRANCH   9  12
ATOM     12  C   UNL     1      38.570 -25.185 -14.553  0.00  0.00    +0.121 C 
BRANCH  12  13
ATOM     13  C   UNL     1      39.958 -25.791 -14.661  0.00  0.00    +0.158 C 
BRANCH  13  14
ATOM     14  O   UNL     1      40.355 -25.824 -16.025  0.00  0.00    -0.380 OA
ATOM     15  H   UNL     1      41.002 -25.121 -16.191  0.00  0.00    +0.211 HD
ENDBRANCH  13  14
ENDBRANCH  12  13
ENDBRANCH   9  12
ENDBRANCH   7  10
ENDBRANCH   6   7
ENDBRANCH   3   6
ENDBRANCH   1   4
BRANCH   1  16
ATOM     16  C   UNL     1      34.903 -19.491 -21.257  0.00  0.00    +0.074 C 
ATOM     17  C   UNL     1      33.620 -19.957 -20.528  0.00  0.00    +0.007 C 
ATOM     18  C   UNL     1      34.698 -19.742 -22.763  0.00  0.00    +0.007 C 
BRANCH  16  19
ATOM     19  C   UNL     1      35.098 -17.976 -21.001  0.00  0.00    +0.211 C 
BRANCH  19  20
ATOM     20  O   UNL     1      34.127 -17.208 -21.703  0.00  0.00    -0.448 OA
BRANCH  20  22
ATOM     21  O   UNL     1      35.433 -16.135 -23.264  0.00  0.00    -0.250 OA
ATOM     22  C   UNL     1      34.599 -16.106 -22.367  0.00  0.00    +0.316 C 
BRANCH  22  23
ATOM     23  C   UNL     1      33.942 -14.829 -21.835  0.00  0.00    +0.090 C 
ATOM     24  C   UNL     1      34.644 -14.391 -20.542  0.00  0.00    +0.011 C 
ATOM     25  C   UNL     1      32.460 -15.103 -21.528  0.00  0.00    +0.011 C 
ATOM     26  C   UNL     1      34.034 -13.724 -22.896  0.00  0.00    +0.011 C 
ENDBRANCH  22  23
ENDBRANCH  20  22
ENDBRANCH  19  20
ENDBRANCH  16  19
ENDBRANCH   1  16
BRANCH   1  27
ATOM     27  O   UNL     1      37.042 -19.437 -20.085  0.00  0.00    -0.376 OA
ATOM     28  H   UNL     1      37.944 -19.685 -20.345  0.00  0.00    +0.211 HD
ENDBRANCH   1  27
TORSDOF 13
ENDMDL
MODEL 6
REMARK VINA RESULT:      -7.1      9.295     12.085
REMARK  Name = 25011726
REMARK  13 active torsions:
REMARK  status: ('A' for Active; 'I' for Inactive)
REMARK    1  A    between atoms: C_1  and  C_4
REMARK    2  A    between atoms: C_1  and  C_16
REMARK    3  A    between atoms: C_1  and  O_27
REMARK    4  A    between atoms: N_3  and  C_6
REMARK    5  A    between atoms: C_6  and  C_7
REMARK    6  A    between atoms: C_7  and  C_10
REMARK    7  A    between atoms: N_9  and  C_12
REMARK    8  A    between atoms: C_12  and  C_13
REMARK    9  A    between atoms: C_13  and  O_14
REMARK   10  A    between atoms: C_16  and  C_19
REMARK   11  A    between atoms: C_19  and  O_20
REMARK   12  A    between atoms: O_20  and  C_22
REMARK   13  A    between atoms: C_22  and  C_23
REMARK                            x       y       z     vdW  Elec       q    Type
REMARK                         _______ _______ _______ _____ _____    ______ ____
ROOT
ATOM      1  C   UNL     1      35.632 -17.173 -22.093  0.00  0.00    +0.190 C 
ENDROOT
BRANCH   1   4
ATOM      2  O   UNL     1      35.013 -16.041 -20.047  0.00  0.00    -0.272 OA
ATOM      3  N   UNL     1      33.546 -15.958 -21.842  0.00  0.00    -0.302 N 
ATOM      4  C   UNL     1      34.712 -16.342 -21.201  0.00  0.00    +0.249 C 
ATOM      5  H   UNL     1      33.401 -16.253 -22.770  0.00  0.00    +0.150 HD
BRANCH   3   6
ATOM      6  C   UNL     1      32.533 -15.143 -21.212  0.00  0.00    +0.099 C 
BRANCH   6   7
ATOM      7  C   UNL     1      32.327 -13.819 -21.932  0.00  0.00    +0.106 C 
BRANCH   7  10
ATOM      8  O   UNL     1      34.354 -13.312 -23.160  0.00  0.00    -0.275 OA
ATOM      9  N   UNL     1      32.460 -13.977 -24.330  0.00  0.00    -0.302 N 
ATOM     10  C   UNL     1      33.179 -13.670 -23.183  0.00  0.00    +0.224 C 
ATOM     11  H   UNL     1      31.521 -14.255 -24.235  0.00  0.00    +0.150 HD
BRANCH   9  12
ATOM     12  C   UNL     1      33.031 -13.905 -25.654  0.00  0.00    +0.121 C 
BRANCH  12  13
ATOM     13  C   UNL     1      32.967 -15.246 -26.364  0.00  0.00    +0.158 C 
BRANCH  13  14
ATOM     14  O   UNL     1      34.102 -16.023 -26.008  0.00  0.00    -0.380 OA
ATOM     15  H   UNL     1      33.812 -16.891 -25.685  0.00  0.00    +0.211 HD
ENDBRANCH  13  14
ENDBRANCH  12  13
ENDBRANCH   9  12
ENDBRANCH   7  10
ENDBRANCH   6   7
ENDBRANCH   3   6
ENDBRANCH   1   4
BRANCH   1  16
ATOM     16  C   UNL     1      35.427 -18.712 -21.965  0.00  0.00    +0.074 C 
ATOM     17  C   UNL     1      36.711 -19.331 -21.363  0.00  0.00    +0.007 C 
ATOM     18  C   UNL     1      35.207 -19.357 -23.348  0.00  0.00    +0.007 C 
BRANCH  16  19
ATOM     19  C   UNL     1      34.233 -19.042 -21.037  0.00  0.00    +0.211 C 
BRANCH  19  20
ATOM     20  O   UNL     1      34.596 -20.012 -20.059  0.00  0.00    -0.448 OA
BRANCH  20  22
ATOM     21  O   UNL     1      32.456 -20.856 -20.030  0.00  0.00    -0.250 OA
ATOM     22  C   UNL     1      33.650 -20.961 -19.775  0.00  0.00    +0.316 C 
BRANCH  22  23
ATOM     23  C   UNL     1      34.287 -22.175 -19.093  0.00  0.00    +0.090 C 
ATOM     24  C   UNL     1      35.696 -21.809 -18.606  0.00  0.00    +0.011 C 
ATOM     25  C   UNL     1      34.392 -23.333 -20.099  0.00  0.00    +0.011 C 
ATOM     26  C   UNL     1      33.411 -22.619 -17.913  0.00  0.00    +0.011 C 
ENDBRANCH  22  23
ENDBRANCH  20  22
ENDBRANCH  19  20
ENDBRANCH  16  19
ENDBRANCH   1  16
BRANCH   1  27
ATOM     27  O   UNL     1      35.373 -16.764 -23.433  0.00  0.00    -0.376 OA
ATOM     28  H   UNL     1      36.113 -17.032 -24.002  0.00  0.00    +0.211 HD
ENDBRANCH   1  27
TORSDOF 13
ENDMDL
MODEL 7
REMARK VINA RESULT:      -7.1     12.331     14.789
REMARK  Name = 25011726
REMARK  13 active torsions:
REMARK  status: ('A' for Active; 'I' for Inactive)
REMARK    1  A    between atoms: C_1  and  C_4
REMARK    2  A    between atoms: C_1  and  C_16
REMARK    3  A    between atoms: C_1  and  O_27
REMARK    4  A    between atoms: N_3  and  C_6
REMARK    5  A    between atoms: C_6  and  C_7
REMARK    6  A    between atoms: C_7  and  C_10
REMARK    7  A    between atoms: N_9  and  C_12
REMARK    8  A    between atoms: C_12  and  C_13
REMARK    9  A    between atoms: C_13  and  O_14
REMARK   10  A    between atoms: C_16  and  C_19
REMARK   11  A    between atoms: C_19  and  O_20
REMARK   12  A    between atoms: O_20  and  C_22
REMARK   13  A    between atoms: C_22  and  C_23
REMARK                            x       y       z     vdW  Elec       q    Type
REMARK                         _______ _______ _______ _____ _____    ______ ____
ROOT
ATOM      1  C   UNL     1      32.382 -13.854 -22.562  0.00  0.00    +0.190 C 
ENDROOT
BRANCH   1   4
ATOM      2  O   UNL     1      33.461 -13.907 -24.726  0.00  0.00    -0.272 OA
ATOM      3  N   UNL     1      33.416 -11.900 -23.565  0.00  0.00    -0.302 N 
ATOM      4  C   UNL     1      33.149 -13.248 -23.736  0.00  0.00    +0.249 C 
ATOM      5  H   UNL     1      33.121 -11.465 -22.732  0.00  0.00    +0.150 HD
BRANCH   3   6
ATOM      6  C   UNL     1      34.106 -11.102 -24.552  0.00  0.00    +0.099 C 
BRANCH   6   7
ATOM      7  C   UNL     1      34.370  -9.684 -24.066  0.00  0.00    +0.106 C 
BRANCH   7  10
ATOM      8  O   UNL     1      32.001  -9.344 -23.685  0.00  0.00    -0.275 OA
ATOM      9  N   UNL     1      33.532  -8.039 -22.523  0.00  0.00    -0.302 N 
ATOM     10  C   UNL     1      33.158  -9.029 -23.422  0.00  0.00    +0.224 C 
ATOM     11  H   UNL     1      34.491  -7.866 -22.386  0.00  0.00    +0.150 HD
BRANCH   9  12
ATOM     12  C   UNL     1      32.573  -7.251 -21.784  0.00  0.00    +0.121 C 
BRANCH  12  13
ATOM     13  C   UNL     1      32.336  -7.820 -20.396  0.00  0.00    +0.158 C 
BRANCH  13  14
ATOM     14  O   UNL     1      33.171  -7.149 -19.462  0.00  0.00    -0.380 OA
ATOM     15  H   UNL     1      34.048  -7.012 -19.852  0.00  0.00    +0.211 HD
ENDBRANCH  13  14
ENDBRANCH  12  13
ENDBRANCH   9  12
ENDBRANCH   7  10
ENDBRANCH   6   7
ENDBRANCH   3   6
ENDBRANCH   1   4
BRANCH   1  16
ATOM     16  C   UNL     1      33.253 -14.730 -21.613  0.00  0.00    +0.074 C 
ATOM     17  C   UNL     1      32.491 -14.918 -20.279  0.00  0.00    +0.007 C 
ATOM     18  C   UNL     1      34.589 -14.034 -21.289  0.00  0.00    +0.007 C 
BRANCH  16  19
ATOM     19  C   UNL     1      33.525 -16.124 -22.231  0.00  0.00    +0.211 C 
BRANCH  19  20
ATOM     20  O   UNL     1      33.456 -17.146 -21.242  0.00  0.00    -0.448 OA
BRANCH  20  22
ATOM     21  O   UNL     1      35.634 -17.287 -20.513  0.00  0.00    -0.250 OA
ATOM     22  C   UNL     1      34.627 -17.807 -20.980  0.00  0.00    +0.316 C 
BRANCH  22  23
ATOM     23  C   UNL     1      34.509 -19.288 -21.351  0.00  0.00    +0.090 C 
ATOM     24  C   UNL     1      33.126 -19.811 -20.941  0.00  0.00    +0.011 C 
ATOM     25  C   UNL     1      35.587 -20.091 -20.605  0.00  0.00    +0.011 C 
ATOM     26  C   UNL     1      34.719 -19.457 -22.862  0.00  0.00    +0.011 C 
ENDBRANCH  22  23
ENDBRANCH  20  22
ENDBRANCH  19  20
ENDBRANCH  16  19
ENDBRANCH   1  16
BRANCH   1  27
ATOM     27  O   UNL     1      31.829 -12.761 -21.834  0.00  0.00    -0.376 OA
ATOM     28  H   UNL     1      31.369 -12.165 -22.446  0.00  0.00    +0.211 HD
ENDBRANCH   1  27
TORSDOF 13
ENDMDL
MODEL 8
REMARK VINA RESULT:      -7.1      1.745      3.256
REMARK  Name = 25011726
REMARK  13 active torsions:
REMARK  status: ('A' for Active; 'I' for Inactive)
REMARK    1  A    between atoms: C_1  and  C_4
REMARK    2  A    between atoms: C_1  and  C_16
REMARK    3  A    between atoms: C_1  and  O_27
REMARK    4  A    between atoms: N_3  and  C_6
REMARK    5  A    between atoms: C_6  and  C_7
REMARK    6  A    between atoms: C_7  and  C_10
REMARK    7  A    between atoms: N_9  and  C_12
REMARK    8  A    between atoms: C_12  and  C_13
REMARK    9  A    between atoms: C_13  and  O_14
REMARK   10  A    between atoms: C_16  and  C_19
REMARK   11  A    between atoms: C_19  and  O_20
REMARK   12  A    between atoms: O_20  and  C_22
REMARK   13  A    between atoms: C_22  and  C_23
REMARK                            x       y       z     vdW  Elec       q    Type
REMARK                         _______ _______ _______ _____ _____    ______ ____
ROOT
ATOM      1  C   UNL     1      33.962 -23.903 -13.516  0.00  0.00    +0.190 C 
ENDROOT
BRANCH   1   4
ATOM      2  O   UNL     1      34.768 -25.040 -11.540  0.00  0.00    -0.272 OA
ATOM      3  N   UNL     1      35.874 -23.125 -12.239  0.00  0.00    -0.302 N 
ATOM      4  C   UNL     1      34.890 -24.097 -12.319  0.00  0.00    +0.249 C 
ATOM      5  H   UNL     1      35.883 -22.410 -12.916  0.00  0.00    +0.150 HD
BRANCH   3   6
ATOM      6  C   UNL     1      36.886 -23.112 -11.208  0.00  0.00    +0.099 C 
BRANCH   6   7
ATOM      7  C   UNL     1      38.259 -23.489 -11.744  0.00  0.00    +0.106 C 
BRANCH   7  10
ATOM      8  O   UNL     1      37.911 -25.878 -11.944  0.00  0.00    -0.275 OA
ATOM      9  N   UNL     1      38.784 -24.707 -13.751  0.00  0.00    -0.302 N 
ATOM     10  C   UNL     1      38.284 -24.829 -12.462  0.00  0.00    +0.224 C 
ATOM     11  H   UNL     1      39.055 -23.816 -14.068  0.00  0.00    +0.150 HD
BRANCH   9  12
ATOM     12  C   UNL     1      38.926 -25.833 -14.645  0.00  0.00    +0.121 C 
BRANCH  12  13
ATOM     13  C   UNL     1      40.375 -26.049 -15.044  0.00  0.00    +0.158 C 
BRANCH  13  14
ATOM     14  O   UNL     1      41.138 -24.903 -14.694  0.00  0.00    -0.380 OA
ATOM     15  H   UNL     1      41.815 -25.151 -14.046  0.00  0.00    +0.211 HD
ENDBRANCH  13  14
ENDBRANCH  12  13
ENDBRANCH   9  12
ENDBRANCH   7  10
ENDBRANCH   6   7
ENDBRANCH   3   6
ENDBRANCH   1   4
BRANCH   1  16
ATOM     16  C   UNL     1      34.681 -23.941 -14.898  0.00  0.00    +0.074 C 
ATOM     17  C   UNL     1      35.353 -25.324 -15.064  0.00  0.00    +0.007 C 
ATOM     18  C   UNL     1      35.790 -22.874 -14.973  0.00  0.00    +0.007 C 
BRANCH  16  19
ATOM     19  C   UNL     1      33.675 -23.734 -16.057  0.00  0.00    +0.211 C 
BRANCH  19  20
ATOM     20  O   UNL     1      32.516 -23.037 -15.612  0.00  0.00    -0.448 OA
BRANCH  20  22
ATOM     21  O   UNL     1      31.570 -22.673 -17.677  0.00  0.00    -0.250 OA
ATOM     22  C   UNL     1      31.471 -22.984 -16.496  0.00  0.00    +0.316 C 
BRANCH  22  23
ATOM     23  C   UNL     1      30.157 -23.366 -15.808  0.00  0.00    +0.090 C 
ATOM     24  C   UNL     1      29.961 -24.887 -15.884  0.00  0.00    +0.011 C 
ATOM     25  C   UNL     1      28.984 -22.677 -16.523  0.00  0.00    +0.011 C 
ATOM     26  C   UNL     1      30.190 -22.903 -14.345  0.00  0.00    +0.011 C 
ENDBRANCH  22  23
ENDBRANCH  20  22
ENDBRANCH  19  20
ENDBRANCH  16  19
ENDBRANCH   1  16
BRANCH   1  27
ATOM     27  O   UNL     1      32.994 -24.947 -13.450  0.00  0.00    -0.376 OA
ATOM     28  H   UNL     1      32.566 -25.047 -14.316  0.00  0.00    +0.211 HD
ENDBRANCH   1  27
TORSDOF 13
ENDMDL
MODEL 9
REMARK VINA RESULT:      -7.0     12.394     15.098
REMARK  Name = 25011726
REMARK  13 active torsions:
REMARK  status: ('A' for Active; 'I' for Inactive)
REMARK    1  A    between atoms: C_1  and  C_4
REMARK    2  A    between atoms: C_1  and  C_16
REMARK    3  A    between atoms: C_1  and  O_27
REMARK    4  A    between atoms: N_3  and  C_6
REMARK    5  A    between atoms: C_6  and  C_7
REMARK    6  A    between atoms: C_7  and  C_10
REMARK    7  A    between atoms: N_9  and  C_12
REMARK    8  A    between atoms: C_12  and  C_13
REMARK    9  A    between atoms: C_13  and  O_14
REMARK   10  A    between atoms: C_16  and  C_19
REMARK   11  A    between atoms: C_19  and  O_20
REMARK   12  A    between atoms: O_20  and  C_22
REMARK   13  A    between atoms: C_22  and  C_23
REMARK                            x       y       z     vdW  Elec       q    Type
REMARK                         _______ _______ _______ _____ _____    ______ ____
ROOT
ATOM      1  C   UNL     1      32.314 -13.753 -21.839  0.00  0.00    +0.190 C 
ENDROOT
BRANCH   1   4
ATOM      2  O   UNL     1      31.403 -11.615 -22.512  0.00  0.00    -0.272 OA
ATOM      3  N   UNL     1      31.663 -12.040 -20.246  0.00  0.00    -0.302 N 
ATOM      4  C   UNL     1      31.752 -12.354 -21.592  0.00  0.00    +0.249 C 
ATOM      5  H   UNL     1      31.971 -12.704 -19.588  0.00  0.00    +0.150 HD
BRANCH   3   6
ATOM      6  C   UNL     1      31.138 -10.783 -19.763  0.00  0.00    +0.099 C 
BRANCH   6   7
ATOM      7  C   UNL     1      32.240  -9.832 -19.318  0.00  0.00    +0.106 C 
BRANCH   7  10
ATOM      8  O   UNL     1      32.525  -7.437 -19.545  0.00  0.00    -0.275 OA
ATOM      9  N   UNL     1      31.873  -8.679 -21.397  0.00  0.00    -0.302 N 
ATOM     10  C   UNL     1      32.241  -8.510 -20.069  0.00  0.00    +0.224 C 
ATOM     11  H   UNL     1      31.665  -9.586 -21.716  0.00  0.00    +0.150 HD
BRANCH   9  12
ATOM     12  C   UNL     1      31.782  -7.579 -22.329  0.00  0.00    +0.121 C 
BRANCH  12  13
ATOM     13  C   UNL     1      32.426  -7.921 -23.661  0.00  0.00    +0.158 C 
BRANCH  13  14
ATOM     14  O   UNL     1      32.264  -9.309 -23.921  0.00  0.00    -0.380 OA
ATOM     15  H   UNL     1      33.062  -9.786 -23.643  0.00  0.00    +0.211 HD
ENDBRANCH  13  14
ENDBRANCH  12  13
ENDBRANCH   9  12
ENDBRANCH   7  10
ENDBRANCH   6   7
ENDBRANCH   3   6
ENDBRANCH   1   4
BRANCH   1  16
ATOM     16  C   UNL     1      33.369 -13.827 -22.982  0.00  0.00    +0.074 C 
ATOM     17  C   UNL     1      33.891 -12.398 -23.264  0.00  0.00    +0.007 C 
ATOM     18  C   UNL     1      32.737 -14.355 -24.284  0.00  0.00    +0.007 C 
BRANCH  16  19
ATOM     19  C   UNL     1      34.566 -14.724 -22.580  0.00  0.00    +0.211 C 
BRANCH  19  20
ATOM     20  O   UNL     1      34.166 -16.085 -22.449  0.00  0.00    -0.448 OA
BRANCH  20  22
ATOM     21  O   UNL     1      35.068 -16.310 -20.345  0.00  0.00    -0.250 OA
ATOM     22  C   UNL     1      34.750 -16.786 -21.428  0.00  0.00    +0.316 C 
BRANCH  22  23
ATOM     23  C   UNL     1      34.956 -18.252 -21.824  0.00  0.00    +0.090 C 
ATOM     24  C   UNL     1      34.828 -18.394 -23.347  0.00  0.00    +0.011 C 
ATOM     25  C   UNL     1      33.882 -19.121 -21.150  0.00  0.00    +0.011 C 
ATOM     26  C   UNL     1      36.341 -18.720 -21.357  0.00  0.00    +0.011 C 
ENDBRANCH  22  23
ENDBRANCH  20  22
ENDBRANCH  19  20
ENDBRANCH  16  19
ENDBRANCH   1  16
BRANCH   1  27
ATOM     27  O   UNL     1      32.905 -14.172 -20.612  0.00  0.00    -0.376 OA
ATOM     28  H   UNL     1      32.265 -14.701 -20.108  0.00  0.00    +0.211 HD
ENDBRANCH   1  27
TORSDOF 13
ENDMDL
