MODEL 1
REMARK VINA RESULT:      -5.3      0.000      0.000
REMARK  Name = 164795
REMARK  8 active torsions:
REMARK  status: ('A' for Active; 'I' for Inactive)
REMARK    1  A    between atoms: C_1  and  N_2
REMARK    2  A    between atoms: C_1  and  C_7
REMARK    3  A    between atoms: C_1  and  C_10
REMARK    4  A    between atoms: C_7  and  O_8
REMARK    5  A    between atoms: C_10  and  C_11
REMARK    6  A    between atoms: C_11  and  C_12
REMARK    7  A    between atoms: C_12  and  C_13
REMARK    8  A    between atoms: C_13  and  N_14
REMARK                            x       y       z     vdW  Elec       q    Type
REMARK                         _______ _______ _______ _____ _____    ______ ____
ROOT
ATOM      1  C   UNK     1      38.628 -25.101 -14.467  0.00  0.00    +0.036 C 
ENDROOT
BRANCH   1   2
ATOM      2  N   UNK     1      37.830 -25.989 -15.315  0.00  0.00    +0.389 N 
ATOM      3  H   UNK     1      36.961 -26.225 -14.836  0.00  0.00    -0.088 HD
ATOM      4  H   UNK     1      38.357 -26.843 -15.503  0.00  0.00    -0.088 HD
ATOM      5  H   UNK     1      37.617 -25.519 -16.194  0.00  0.00    -0.088 HD
ENDBRANCH   1   2
BRANCH   1   7
ATOM      6  O   UNK     1      41.009 -24.760 -14.262  0.00  0.00    -0.253 OA
ATOM      7  C   UNK     1      40.074 -25.232 -14.899  0.00  0.00    +0.293 C 
BRANCH   7   8
ATOM      8  O   UNK     1      40.246 -25.903 -16.064  0.00  0.00    -0.482 OA
ATOM      9  H   UNK     1      39.682 -25.731 -16.792  0.00  0.00    +0.295 HD
ENDBRANCH   7   8
ENDBRANCH   1   7
BRANCH   1  10
ATOM     10  C   UNK     1      38.415 -25.407 -12.979  0.00  0.00    -0.011 C 
BRANCH  10  11
ATOM     11  C   UNK     1      38.213 -24.172 -12.092  0.00  0.00    -0.004 C 
BRANCH  11  12
ATOM     12  C   UNK     1      36.816 -23.556 -12.208  0.00  0.00    -0.023 C 
BRANCH  12  13
ATOM     13  C   UNK     1      35.739 -24.552 -11.779  0.00  0.00    -0.082 C 
BRANCH  13  14
ATOM     14  N   UNK     1      34.775 -24.751 -12.854  0.00  0.00    +0.382 N 
ATOM     15  C   UNK     1      35.038 -23.843 -13.962  0.00  0.00    -0.106 C 
ATOM     16  H   UNK     1      33.836 -24.579 -12.497  0.00  0.00    -0.085 HD
ATOM     17  H   UNK     1      34.856 -25.709 -13.193  0.00  0.00    -0.085 HD
ENDBRANCH  13  14
ENDBRANCH  12  13
ENDBRANCH  11  12
ENDBRANCH  10  11
ENDBRANCH   1  10
TORSDOF 8
ENDMDL
MODEL 2
REMARK VINA RESULT:      -5.2      3.330      4.285
REMARK  Name = 164795
REMARK  8 active torsions:
REMARK  status: ('A' for Active; 'I' for Inactive)
REMARK    1  A    between atoms: C_1  and  N_2
REMARK    2  A    between atoms: C_1  and  C_7
REMARK    3  A    between atoms: C_1  and  C_10
REMARK    4  A    between atoms: C_7  and  O_8
REMARK    5  A    between atoms: C_10  and  C_11
REMARK    6  A    between atoms: C_11  and  C_12
REMARK    7  A    between atoms: C_12  and  C_13
REMARK    8  A    between atoms: C_13  and  N_14
REMARK                            x       y       z     vdW  Elec       q    Type
REMARK                         _______ _______ _______ _____ _____    ______ ____
ROOT
ATOM      1  C   UNK     1      36.972 -23.969 -12.016  0.00  0.00    +0.036 C 
ENDROOT
BRANCH   1   2
ATOM      2  N   UNK     1      37.480 -22.702 -11.485  0.00  0.00    +0.389 N 
ATOM      3  H   UNK     1      36.852 -22.364 -10.755  0.00  0.00    -0.088 HD
ATOM      4  H   UNK     1      37.529 -22.015 -12.237  0.00  0.00    -0.088 HD
ATOM      5  H   UNK     1      38.410 -22.847 -11.094  0.00  0.00    -0.088 HD
ENDBRANCH   1   2
BRANCH   1   7
ATOM      6  O   UNK     1      35.904 -24.329  -9.881  0.00  0.00    -0.253 OA
ATOM      7  C   UNK     1      35.859 -24.437 -11.102  0.00  0.00    +0.293 C 
BRANCH   7   8
ATOM      8  O   UNK     1      34.811 -25.004 -11.749  0.00  0.00    -0.482 OA
ATOM      9  H   UNK     1      34.317 -25.684 -11.336  0.00  0.00    +0.295 HD
ENDBRANCH   7   8
ENDBRANCH   1   7
BRANCH   1  10
ATOM     10  C   UNK     1      38.097 -25.001 -12.170  0.00  0.00    -0.011 C 
BRANCH  10  11
ATOM     11  C   UNK     1      38.297 -25.522 -13.600  0.00  0.00    -0.004 C 
BRANCH  11  12
ATOM     12  C   UNK     1      37.340 -26.655 -13.979  0.00  0.00    -0.023 C 
BRANCH  12  13
ATOM     13  C   UNK     1      36.458 -26.257 -15.161  0.00  0.00    -0.082 C 
BRANCH  13  14
ATOM     14  N   UNK     1      35.245 -25.598 -14.690  0.00  0.00    +0.382 N 
ATOM     15  C   UNK     1      35.101 -24.281 -15.293  0.00  0.00    -0.106 C 
ATOM     16  H   UNK     1      35.293 -25.498 -13.676  0.00  0.00    -0.085 HD
ATOM     17  H   UNK     1      34.442 -26.167 -14.954  0.00  0.00    -0.085 HD
ENDBRANCH  13  14
ENDBRANCH  12  13
ENDBRANCH  11  12
ENDBRANCH  10  11
ENDBRANCH   1  10
TORSDOF 8
ENDMDL
MODEL 3
REMARK VINA RESULT:      -5.1      1.418      2.110
REMARK  Name = 164795
REMARK  8 active torsions:
REMARK  status: ('A' for Active; 'I' for Inactive)
REMARK    1  A    between atoms: C_1  and  N_2
REMARK    2  A    between atoms: C_1  and  C_7
REMARK    3  A    between atoms: C_1  and  C_10
REMARK    4  A    between atoms: C_7  and  O_8
REMARK    5  A    between atoms: C_10  and  C_11
REMARK    6  A    between atoms: C_11  and  C_12
REMARK    7  A    between atoms: C_12  and  C_13
REMARK    8  A    between atoms: C_13  and  N_14
REMARK                            x       y       z     vdW  Elec       q    Type
REMARK                         _______ _______ _______ _____ _____    ______ ____
ROOT
ATOM      1  C   UNK     1      38.738 -25.913 -14.426  0.00  0.00    +0.036 C 
ENDROOT
BRANCH   1   2
ATOM      2  N   UNK     1      38.736 -25.967 -12.962  0.00  0.00    +0.389 N 
ATOM      3  H   UNK     1      38.295 -26.835 -12.655  0.00  0.00    -0.088 HD
ATOM      4  H   UNK     1      38.214 -25.172 -12.594  0.00  0.00    -0.088 HD
ATOM      5  H   UNK     1      39.695 -25.934 -12.620  0.00  0.00    -0.088 HD
ENDBRANCH   1   2
BRANCH   1   7
ATOM      6  O   UNK     1      40.868 -24.802 -14.188  0.00  0.00    -0.253 OA
ATOM      7  C   UNK     1      40.128 -25.505 -14.868  0.00  0.00    +0.293 C 
BRANCH   7   8
ATOM      8  O   UNK     1      40.479 -25.970 -16.092  0.00  0.00    -0.482 OA
ATOM      9  H   UNK     1      39.897 -26.531 -16.565  0.00  0.00    +0.295 HD
ENDBRANCH   7   8
ENDBRANCH   1   7
BRANCH   1  10
ATOM     10  C   UNK     1      37.641 -24.978 -14.952  0.00  0.00    -0.011 C 
BRANCH  10  11
ATOM     11  C   UNK     1      36.237 -25.595 -14.993  0.00  0.00    -0.004 C 
BRANCH  11  12
ATOM     12  C   UNK     1      35.144 -24.668 -14.453  0.00  0.00    -0.023 C 
BRANCH  12  13
ATOM     13  C   UNK     1      35.747 -23.527 -13.635  0.00  0.00    -0.082 C 
BRANCH  13  14
ATOM     14  N   UNK     1      35.168 -23.501 -12.298  0.00  0.00    +0.382 N 
ATOM     15  C   UNK     1      35.705 -24.577 -11.477  0.00  0.00    -0.106 C 
ATOM     16  H   UNK     1      34.156 -23.608 -12.370  0.00  0.00    -0.085 HD
ATOM     17  H   UNK     1      35.400 -22.610 -11.859  0.00  0.00    -0.085 HD
ENDBRANCH  13  14
ENDBRANCH  12  13
ENDBRANCH  11  12
ENDBRANCH  10  11
ENDBRANCH   1  10
TORSDOF 8
ENDMDL
MODEL 4
REMARK VINA RESULT:      -5.1      2.085      2.388
REMARK  Name = 164795
REMARK  8 active torsions:
REMARK  status: ('A' for Active; 'I' for Inactive)
REMARK    1  A    between atoms: C_1  and  N_2
REMARK    2  A    between atoms: C_1  and  C_7
REMARK    3  A    between atoms: C_1  and  C_10
REMARK    4  A    between atoms: C_7  and  O_8
REMARK    5  A    between atoms: C_10  and  C_11
REMARK    6  A    between atoms: C_11  and  C_12
REMARK    7  A    between atoms: C_12  and  C_13
REMARK    8  A    between atoms: C_13  and  N_14
REMARK                            x       y       z     vdW  Elec       q    Type
REMARK                         _______ _______ _______ _____ _____    ______ ____
ROOT
ATOM      1  C   UNK     1      38.329 -25.794 -14.591  0.00  0.00    +0.036 C 
ENDROOT
BRANCH   1   2
ATOM      2  N   UNK     1      37.971 -24.557 -15.288  0.00  0.00    +0.389 N 
ATOM      3  H   UNK     1      37.452 -24.783 -16.136  0.00  0.00    -0.088 HD
ATOM      4  H   UNK     1      38.821 -24.048 -15.533  0.00  0.00    -0.088 HD
ATOM      5  H   UNK     1      37.392 -23.980 -14.679  0.00  0.00    -0.088 HD
ENDBRANCH   1   2
BRANCH   1   7
ATOM      6  O   UNK     1      36.809 -27.134 -15.903  0.00  0.00    -0.253 OA
ATOM      7  C   UNK     1      37.198 -26.780 -14.796  0.00  0.00    +0.293 C 
BRANCH   7   8
ATOM      8  O   UNK     1      36.636 -27.226 -13.645  0.00  0.00    -0.482 OA
ATOM      9  H   UNK     1      37.179 -27.516 -12.939  0.00  0.00    +0.295 HD
ENDBRANCH   7   8
ENDBRANCH   1   7
BRANCH   1  10
ATOM     10  C   UNK     1      38.638 -25.533 -13.111  0.00  0.00    -0.011 C 
BRANCH  10  11
ATOM     11  C   UNK     1      38.138 -24.183 -12.580  0.00  0.00    -0.004 C 
BRANCH  11  12
ATOM     12  C   UNK     1      36.962 -24.305 -11.607  0.00  0.00    -0.023 C 
BRANCH  12  13
ATOM     13  C   UNK     1      35.685 -23.723 -12.213  0.00  0.00    -0.082 C 
BRANCH  13  14
ATOM     14  N   UNK     1      34.922 -24.768 -12.885  0.00  0.00    +0.382 N 
ATOM     15  C   UNK     1      34.474 -24.321 -14.197  0.00  0.00    -0.106 C 
ATOM     16  H   UNK     1      34.109 -25.005 -12.317  0.00  0.00    -0.085 HD
ATOM     17  H   UNK     1      35.521 -25.583 -13.006  0.00  0.00    -0.085 HD
ENDBRANCH  13  14
ENDBRANCH  12  13
ENDBRANCH  11  12
ENDBRANCH  10  11
ENDBRANCH   1  10
TORSDOF 8
ENDMDL
MODEL 5
REMARK VINA RESULT:      -5.1     12.464     13.453
REMARK  Name = 164795
REMARK  8 active torsions:
REMARK  status: ('A' for Active; 'I' for Inactive)
REMARK    1  A    between atoms: C_1  and  N_2
REMARK    2  A    between atoms: C_1  and  C_7
REMARK    3  A    between atoms: C_1  and  C_10
REMARK    4  A    between atoms: C_7  and  O_8
REMARK    5  A    between atoms: C_10  and  C_11
REMARK    6  A    between atoms: C_11  and  C_12
REMARK    7  A    between atoms: C_12  and  C_13
REMARK    8  A    between atoms: C_13  and  N_14
REMARK                            x       y       z     vdW  Elec       q    Type
REMARK                         _______ _______ _______ _____ _____    ______ ____
ROOT
ATOM      1  C   UNK     1      34.656 -17.001 -21.517  0.00  0.00    +0.036 C 
ENDROOT
BRANCH   1   2
ATOM      2  N   UNK     1      35.481 -17.935 -20.748  0.00  0.00    +0.389 N 
ATOM      3  H   UNK     1      34.992 -18.195 -19.891  0.00  0.00    -0.088 HD
ATOM      4  H   UNK     1      36.368 -17.489 -20.511  0.00  0.00    -0.088 HD
ATOM      5  H   UNK     1      35.658 -18.770 -21.304  0.00  0.00    -0.088 HD
ENDBRANCH   1   2
BRANCH   1   7
ATOM      6  O   UNK     1      35.292 -15.729 -23.467  0.00  0.00    -0.253 OA
ATOM      7  C   UNK     1      35.329 -16.791 -22.857  0.00  0.00    +0.293 C 
BRANCH   7   8
ATOM      8  O   UNK     1      35.966 -17.889 -23.336  0.00  0.00    -0.482 OA
ATOM      9  H   UNK     1      35.811 -18.727 -22.948  0.00  0.00    +0.295 HD
ENDBRANCH   7   8
ENDBRANCH   1   7
BRANCH   1  10
ATOM     10  C   UNK     1      34.426 -15.694 -20.748  0.00  0.00    -0.011 C 
BRANCH  10  11
ATOM     11  C   UNK     1      32.960 -15.249 -20.663  0.00  0.00    -0.004 C 
BRANCH  11  12
ATOM     12  C   UNK     1      32.730 -13.807 -21.124  0.00  0.00    -0.023 C 
BRANCH  12  13
ATOM     13  C   UNK     1      32.668 -13.721 -22.648  0.00  0.00    -0.082 C 
BRANCH  13  14
ATOM     14  N   UNK     1      33.912 -13.172 -23.176  0.00  0.00    +0.382 N 
ATOM     15  C   UNK     1      33.698 -12.561 -24.480  0.00  0.00    -0.106 C 
ATOM     16  H   UNK     1      34.596 -13.923 -23.267  0.00  0.00    -0.085 HD
ATOM     17  H   UNK     1      34.252 -12.458 -22.533  0.00  0.00    -0.085 HD
ENDBRANCH  13  14
ENDBRANCH  12  13
ENDBRANCH  11  12
ENDBRANCH  10  11
ENDBRANCH   1  10
TORSDOF 8
ENDMDL
MODEL 6
REMARK VINA RESULT:      -5.0      9.025     10.371
REMARK  Name = 164795
REMARK  8 active torsions:
REMARK  status: ('A' for Active; 'I' for Inactive)
REMARK    1  A    between atoms: C_1  and  N_2
REMARK    2  A    between atoms: C_1  and  C_7
REMARK    3  A    between atoms: C_1  and  C_10
REMARK    4  A    between atoms: C_7  and  O_8
REMARK    5  A    between atoms: C_10  and  C_11
REMARK    6  A    between atoms: C_11  and  C_12
REMARK    7  A    between atoms: C_12  and  C_13
REMARK    8  A    between atoms: C_13  and  N_14
REMARK                            x       y       z     vdW  Elec       q    Type
REMARK                         _______ _______ _______ _____ _____    ______ ____
ROOT
ATOM      1  C   UNK     1      34.299 -21.214 -19.519  0.00  0.00    +0.036 C 
ENDROOT
BRANCH   1   2
ATOM      2  N   UNK     1      35.648 -21.533 -19.992  0.00  0.00    +0.389 N 
ATOM      3  H   UNK     1      35.588 -22.178 -20.780  0.00  0.00    -0.088 HD
ATOM      4  H   UNK     1      36.179 -21.966 -19.237  0.00  0.00    -0.088 HD
ATOM      5  H   UNK     1      36.114 -20.676 -20.289  0.00  0.00    -0.088 HD
ENDBRANCH   1   2
BRANCH   1   7
ATOM      6  O   UNK     1      34.029 -23.613 -19.515  0.00  0.00    -0.253 OA
ATOM      7  C   UNK     1      33.626 -22.517 -19.141  0.00  0.00    +0.293 C 
BRANCH   7   8
ATOM      8  O   UNK     1      32.525 -22.368 -18.365  0.00  0.00    -0.482 OA
ATOM      9  H   UNK     1      32.462 -22.820 -17.547  0.00  0.00    +0.295 HD
ENDBRANCH   7   8
ENDBRANCH   1   7
BRANCH   1  10
ATOM     10  C   UNK     1      33.514 -20.414 -20.565  0.00  0.00    -0.011 C 
BRANCH  10  11
ATOM     11  C   UNK     1      34.225 -19.154 -21.075  0.00  0.00    -0.004 C 
BRANCH  11  12
ATOM     12  C   UNK     1      34.582 -19.212 -22.564  0.00  0.00    -0.023 C 
BRANCH  12  13
ATOM     13  C   UNK     1      35.712 -18.237 -22.896  0.00  0.00    -0.082 C 
BRANCH  13  14
ATOM     14  N   UNK     1      35.341 -17.400 -24.030  0.00  0.00    +0.382 N 
ATOM     15  C   UNK     1      34.965 -16.064 -23.589  0.00  0.00    -0.106 C 
ATOM     16  H   UNK     1      34.552 -17.826 -24.516  0.00  0.00    -0.085 HD
ATOM     17  H   UNK     1      36.143 -17.323 -24.655  0.00  0.00    -0.085 HD
ENDBRANCH  13  14
ENDBRANCH  12  13
ENDBRANCH  11  12
ENDBRANCH  10  11
ENDBRANCH   1  10
TORSDOF 8
ENDMDL
MODEL 7
REMARK VINA RESULT:      -5.0     10.593     11.575
REMARK  Name = 164795
REMARK  8 active torsions:
REMARK  status: ('A' for Active; 'I' for Inactive)
REMARK    1  A    between atoms: C_1  and  N_2
REMARK    2  A    between atoms: C_1  and  C_7
REMARK    3  A    between atoms: C_1  and  C_10
REMARK    4  A    between atoms: C_7  and  O_8
REMARK    5  A    between atoms: C_10  and  C_11
REMARK    6  A    between atoms: C_11  and  C_12
REMARK    7  A    between atoms: C_12  and  C_13
REMARK    8  A    between atoms: C_13  and  N_14
REMARK                            x       y       z     vdW  Elec       q    Type
REMARK                         _______ _______ _______ _____ _____    ______ ____
ROOT
ATOM      1  C   UNK     1      35.276 -17.724 -23.660  0.00  0.00    +0.036 C 
ENDROOT
BRANCH   1   2
ATOM      2  N   UNK     1      35.006 -16.476 -22.945  0.00  0.00    +0.389 N 
ATOM      3  H   UNK     1      35.289 -16.575 -21.970  0.00  0.00    -0.088 HD
ATOM      4  H   UNK     1      34.008 -16.268 -22.989  0.00  0.00    -0.088 HD
ATOM      5  H   UNK     1      35.531 -15.716 -23.376  0.00  0.00    -0.088 HD
ENDBRANCH   1   2
BRANCH   1   7
ATOM      6  O   UNK     1      34.831 -16.719 -25.809  0.00  0.00    -0.253 OA
ATOM      7  C   UNK     1      34.611 -17.629 -25.018  0.00  0.00    +0.293 C 
BRANCH   7   8
ATOM      8  O   UNK     1      33.735 -18.630 -25.277  0.00  0.00    -0.482 OA
ATOM      9  H   UNK     1      34.049 -19.479 -25.515  0.00  0.00    +0.295 HD
ENDBRANCH   7   8
ENDBRANCH   1   7
BRANCH   1  10
ATOM     10  C   UNK     1      34.817 -18.944 -22.851  0.00  0.00    -0.011 C 
BRANCH  10  11
ATOM     11  C   UNK     1      35.176 -18.896 -21.360  0.00  0.00    -0.004 C 
BRANCH  11  12
ATOM     12  C   UNK     1      34.662 -20.101 -20.567  0.00  0.00    -0.023 C 
BRANCH  12  13
ATOM     13  C   UNK     1      33.136 -20.174 -20.606  0.00  0.00    -0.082 C 
BRANCH  13  14
ATOM     14  N   UNK     1      32.636 -20.939 -19.470  0.00  0.00    +0.382 N 
ATOM     15  C   UNK     1      33.557 -22.010 -19.118  0.00  0.00    -0.106 C 
ATOM     16  H   UNK     1      31.731 -21.343 -19.712  0.00  0.00    -0.085 HD
ATOM     17  H   UNK     1      32.544 -20.313 -18.671  0.00  0.00    -0.085 HD
ENDBRANCH  13  14
ENDBRANCH  12  13
ENDBRANCH  11  12
ENDBRANCH  10  11
ENDBRANCH   1  10
TORSDOF 8
ENDMDL
MODEL 8
REMARK VINA RESULT:      -5.0      9.207     10.299
REMARK  Name = 164795
REMARK  8 active torsions:
REMARK  status: ('A' for Active; 'I' for Inactive)
REMARK    1  A    between atoms: C_1  and  N_2
REMARK    2  A    between atoms: C_1  and  C_7
REMARK    3  A    between atoms: C_1  and  C_10
REMARK    4  A    between atoms: C_7  and  O_8
REMARK    5  A    between atoms: C_10  and  C_11
REMARK    6  A    between atoms: C_11  and  C_12
REMARK    7  A    between atoms: C_12  and  C_13
REMARK    8  A    between atoms: C_13  and  N_14
REMARK                            x       y       z     vdW  Elec       q    Type
REMARK                         _______ _______ _______ _____ _____    ______ ____
ROOT
ATOM      1  C   UNK     1      35.309 -17.816 -21.490  0.00  0.00    +0.036 C 
ENDROOT
BRANCH   1   2
ATOM      2  N   UNK     1      34.231 -16.894 -21.123  0.00  0.00    +0.389 N 
ATOM      3  H   UNK     1      33.588 -17.361 -20.484  0.00  0.00    -0.088 HD
ATOM      4  H   UNK     1      33.728 -16.608 -21.964  0.00  0.00    -0.088 HD
ATOM      5  H   UNK     1      34.628 -16.073 -20.668  0.00  0.00    -0.088 HD
ENDBRANCH   1   2
BRANCH   1   7
ATOM      6  O   UNK     1      35.552 -18.643 -23.745  0.00  0.00    -0.253 OA
ATOM      7  C   UNK     1      35.538 -17.684 -22.981  0.00  0.00    +0.293 C 
BRANCH   7   8
ATOM      8  O   UNK     1      35.744 -16.411 -23.400  0.00  0.00    -0.482 OA
ATOM      9  H   UNK     1      35.328 -15.698 -22.957  0.00  0.00    +0.295 HD
ENDBRANCH   7   8
ENDBRANCH   1   7
BRANCH   1  10
ATOM     10  C   UNK     1      34.988 -19.252 -21.056  0.00  0.00    -0.011 C 
BRANCH  10  11
ATOM     11  C   UNK     1      33.497 -19.616 -21.093  0.00  0.00    -0.004 C 
BRANCH  11  12
ATOM     12  C   UNK     1      33.074 -20.578 -19.980  0.00  0.00    -0.023 C 
BRANCH  12  13
ATOM     13  C   UNK     1      34.222 -21.509 -19.593  0.00  0.00    -0.082 C 
BRANCH  13  14
ATOM     14  N   UNK     1      33.716 -22.847 -19.308  0.00  0.00    +0.382 N 
ATOM     15  C   UNK     1      33.431 -23.004 -17.889  0.00  0.00    -0.106 C 
ATOM     16  H   UNK     1      34.415 -23.535 -19.587  0.00  0.00    -0.085 HD
ATOM     17  H   UNK     1      32.852 -22.987 -19.831  0.00  0.00    -0.085 HD
ENDBRANCH  13  14
ENDBRANCH  12  13
ENDBRANCH  11  12
ENDBRANCH  10  11
ENDBRANCH   1  10
TORSDOF 8
ENDMDL
MODEL 9
REMARK VINA RESULT:      -5.0     10.311     11.391
REMARK  Name = 164795
REMARK  8 active torsions:
REMARK  status: ('A' for Active; 'I' for Inactive)
REMARK    1  A    between atoms: C_1  and  N_2
REMARK    2  A    between atoms: C_1  and  C_7
REMARK    3  A    between atoms: C_1  and  C_10
REMARK    4  A    between atoms: C_7  and  O_8
REMARK    5  A    between atoms: C_10  and  C_11
REMARK    6  A    between atoms: C_11  and  C_12
REMARK    7  A    between atoms: C_12  and  C_13
REMARK    8  A    between atoms: C_13  and  N_14
REMARK                            x       y       z     vdW  Elec       q    Type
REMARK                         _______ _______ _______ _____ _____    ______ ____
ROOT
ATOM      1  C   UNK     1      34.690 -16.322 -21.516  0.00  0.00    +0.036 C 
ENDROOT
BRANCH   1   2
ATOM      2  N   UNK     1      33.302 -16.323 -21.049  0.00  0.00    +0.389 N 
ATOM      3  H   UNK     1      32.999 -17.283 -20.883  0.00  0.00    -0.088 HD
ATOM      4  H   UNK     1      32.705 -15.896 -21.758  0.00  0.00    -0.088 HD
ATOM      5  H   UNK     1      33.235 -15.791 -20.182  0.00  0.00    -0.088 HD
ENDBRANCH   1   2
BRANCH   1   7
ATOM      6  O   UNK     1      33.723 -15.378 -23.516  0.00  0.00    -0.253 OA
ATOM      7  C   UNK     1      34.683 -15.916 -22.975  0.00  0.00    +0.293 C 
BRANCH   7   8
ATOM      8  O   UNK     1      35.826 -16.214 -23.639  0.00  0.00    -0.482 OA
ATOM      9  H   UNK     1      36.240 -15.567 -24.175  0.00  0.00    +0.295 HD
ENDBRANCH   7   8
ENDBRANCH   1   7
BRANCH   1  10
ATOM     10  C   UNK     1      35.361 -17.680 -21.274  0.00  0.00    -0.011 C 
BRANCH  10  11
ATOM     11  C   UNK     1      34.564 -18.890 -21.778  0.00  0.00    -0.004 C 
BRANCH  11  12
ATOM     12  C   UNK     1      34.346 -19.968 -20.712  0.00  0.00    -0.023 C 
BRANCH  12  13
ATOM     13  C   UNK     1      32.857 -20.190 -20.452  0.00  0.00    -0.082 C 
BRANCH  13  14
ATOM     14  N   UNK     1      32.669 -21.126 -19.351  0.00  0.00    +0.382 N 
ATOM     15  C   UNK     1      33.771 -22.076 -19.283  0.00  0.00    -0.106 C 
ATOM     16  H   UNK     1      31.797 -21.636 -19.492  0.00  0.00    -0.085 HD
ATOM     17  H   UNK     1      32.637 -20.601 -18.478  0.00  0.00    -0.085 HD
ENDBRANCH  13  14
ENDBRANCH  12  13
ENDBRANCH  11  12
ENDBRANCH  10  11
ENDBRANCH   1  10
TORSDOF 8
ENDMDL
