MODEL 1
REMARK VINA RESULT:      -9.5      0.000      0.000
REMARK  Name = 44205240
REMARK  6 active torsions:
REMARK  status: ('A' for Active; 'I' for Inactive)
REMARK    1  A    between atoms: N_1  and  C_17
REMARK    2  A    between atoms: C_4  and  C_9
REMARK    3  A    between atoms: N_16  and  S_20
REMARK    4  A    between atoms: C_17  and  C_25
REMARK    5  A    between atoms: S_20  and  C_23
REMARK    6  A    between atoms: C_25  and  C_27
REMARK                            x       y       z     vdW  Elec       q    Type
REMARK                         _______ _______ _______ _____ _____    ______ ____
ROOT
ATOM      1  N   UNL     1      34.818 -23.399 -16.528  0.00  0.00    -0.210 N 
ATOM      2  N   UNL     1      33.769 -23.837 -17.247  0.00  0.00    -0.176 NA
ATOM      3  C   UNL     1      35.520 -22.398 -17.131  0.00  0.00    +0.087 C 
ATOM      4  C   UNL     1      34.887 -22.163 -18.328  0.00  0.00    +0.051 C 
ATOM      5  C   UNL     1      33.816 -23.077 -18.345  0.00  0.00    +0.120 C 
ENDROOT
BRANCH   4   9
ATOM      6  N   UNL     1      36.625 -20.924 -19.413  0.00  0.00    -0.248 NA
ATOM      7  N   UNL     1      33.855 -18.986 -21.625  0.00  0.00    -0.300 N 
ATOM      8  N   UNL     1      36.200 -19.256 -21.135  0.00  0.00    -0.233 NA
ATOM      9  C   UNL     1      35.304 -21.181 -19.277  0.00  0.00    +0.069 C 
ATOM     10  C   UNL     1      34.384 -20.487 -20.061  0.00  0.00    +0.117 C 
ATOM     11  C   UNL     1      34.903 -19.556 -20.953  0.00  0.00    +0.115 C 
ATOM     12  C   UNL     1      32.974 -20.465 -20.216  0.00  0.00    +0.003 C 
ATOM     13  C   UNL     1      36.987 -19.990 -20.321  0.00  0.00    +0.251 C 
ATOM     14  C   UNL     1      32.677 -19.531 -21.185  0.00  0.00    +0.059 C 
ATOM     15  H   UNL     1      33.936 -18.291 -22.319  0.00  0.00    +0.153 HD
ENDBRANCH   4   9
BRANCH   1  17
ATOM     16  N   UNL     1      36.914 -24.896 -14.419  0.00  0.00    -0.156 NA
ATOM     17  C   UNL     1      35.162 -23.954 -15.233  0.00  0.00    +0.126 C 
ATOM     18  C   UNL     1      35.814 -25.341 -15.347  0.00  0.00    +0.118 C 
ATOM     19  C   UNL     1      36.534 -23.472 -14.737  0.00  0.00    +0.118 C 
BRANCH  16  20
ATOM     20  S   UNL     1      38.518 -25.500 -14.467  0.00  0.00    +0.044 S 
ATOM     21  O   UNL     1      39.371 -24.498 -15.066  0.00  0.00    -0.157 OA
ATOM     22  O   UNL     1      38.486 -26.862 -14.948  0.00  0.00    -0.157 OA
BRANCH  20  23
ATOM     23  C   UNL     1      38.855 -25.538 -12.725  0.00  0.00    +0.169 C 
ATOM     24  C   UNL     1      38.369 -24.280 -12.039  0.00  0.00    +0.029 C 
ENDBRANCH  20  23
ENDBRANCH  16  20
BRANCH  17  25
ATOM     25  C   UNL     1      34.004 -23.819 -14.284  0.00  0.00    +0.128 C 
BRANCH  25  27
ATOM     26  N   UNL     1      34.651 -24.620 -11.858  0.00  0.00    -0.196 NA
ATOM     27  C   UNL     1      34.360 -24.264 -12.924  0.00  0.00    +0.075 C 
ENDBRANCH  25  27
ENDBRANCH  17  25
ENDBRANCH   1  17
TORSDOF 6
ENDMDL
MODEL 2
REMARK VINA RESULT:      -9.4     10.661     14.692
REMARK  Name = 44205240
REMARK  6 active torsions:
REMARK  status: ('A' for Active; 'I' for Inactive)
REMARK    1  A    between atoms: N_1  and  C_17
REMARK    2  A    between atoms: C_4  and  C_9
REMARK    3  A    between atoms: N_16  and  S_20
REMARK    4  A    between atoms: C_17  and  C_25
REMARK    5  A    between atoms: S_20  and  C_23
REMARK    6  A    between atoms: C_25  and  C_27
REMARK                            x       y       z     vdW  Elec       q    Type
REMARK                         _______ _______ _______ _____ _____    ______ ____
ROOT
ATOM      1  N   UNL     1      32.585 -11.228 -23.027  0.00  0.00    -0.210 N 
ATOM      2  N   UNL     1      33.414 -10.817 -24.002  0.00  0.00    -0.176 NA
ATOM      3  C   UNL     1      32.598 -12.577 -22.824  0.00  0.00    +0.087 C 
ATOM      4  C   UNL     1      33.499 -13.084 -23.730  0.00  0.00    +0.051 C 
ATOM      5  C   UNL     1      33.969 -11.955 -24.427  0.00  0.00    +0.120 C 
ENDROOT
BRANCH   4   9
ATOM      6  N   UNL     1      33.726 -15.053 -25.073  0.00  0.00    -0.248 NA
ATOM      7  N   UNL     1      34.877 -17.139 -21.809  0.00  0.00    -0.300 N 
ATOM      8  N   UNL     1      34.435 -17.204 -24.178  0.00  0.00    -0.233 NA
ATOM      9  C   UNL     1      33.817 -14.470 -23.855  0.00  0.00    +0.069 C 
ATOM     10  C   UNL     1      34.218 -15.229 -22.757  0.00  0.00    +0.117 C 
ATOM     11  C   UNL     1      34.505 -16.568 -22.997  0.00  0.00    +0.115 C 
ATOM     12  C   UNL     1      34.430 -15.003 -21.373  0.00  0.00    +0.003 C 
ATOM     13  C   UNL     1      34.037 -16.367 -25.158  0.00  0.00    +0.251 C 
ATOM     14  C   UNL     1      34.835 -16.197 -20.815  0.00  0.00    +0.059 C 
ATOM     15  H   UNL     1      35.135 -18.082 -21.688  0.00  0.00    +0.153 HD
ENDBRANCH   4   9
BRANCH   1  17
ATOM     16  N   UNL     1      31.658  -8.172 -22.088  0.00  0.00    -0.156 NA
ATOM     17  C   UNL     1      31.754 -10.311 -22.269  0.00  0.00    +0.126 C 
ATOM     18  C   UNL     1      32.582  -9.234 -21.551  0.00  0.00    +0.118 C 
ATOM     19  C   UNL     1      31.215  -9.162 -23.135  0.00  0.00    +0.118 C 
BRANCH  16  20
ATOM     20  S   UNL     1      32.137  -6.560 -22.426  0.00  0.00    +0.044 S 
ATOM     21  O   UNL     1      33.250  -6.593 -23.347  0.00  0.00    -0.157 OA
ATOM     22  O   UNL     1      32.194  -5.825 -21.183  0.00  0.00    -0.157 OA
BRANCH  20  23
ATOM     23  C   UNL     1      30.700  -6.023 -23.318  0.00  0.00    +0.169 C 
ATOM     24  C   UNL     1      31.072  -5.129 -24.480  0.00  0.00    +0.029 C 
ENDBRANCH  20  23
ENDBRANCH  16  20
BRANCH  17  25
ATOM     25  C   UNL     1      30.757 -11.073 -21.442  0.00  0.00    +0.128 C 
BRANCH  25  27
ATOM     26  N   UNL     1      31.253 -10.847 -18.864  0.00  0.00    -0.196 NA
ATOM     27  C   UNL     1      31.032 -10.940 -19.999  0.00  0.00    +0.075 C 
ENDBRANCH  25  27
ENDBRANCH  17  25
ENDBRANCH   1  17
TORSDOF 6
ENDMDL
MODEL 3
REMARK VINA RESULT:      -9.4      9.870     13.732
REMARK  Name = 44205240
REMARK  6 active torsions:
REMARK  status: ('A' for Active; 'I' for Inactive)
REMARK    1  A    between atoms: N_1  and  C_17
REMARK    2  A    between atoms: C_4  and  C_9
REMARK    3  A    between atoms: N_16  and  S_20
REMARK    4  A    between atoms: C_17  and  C_25
REMARK    5  A    between atoms: S_20  and  C_23
REMARK    6  A    between atoms: C_25  and  C_27
REMARK                            x       y       z     vdW  Elec       q    Type
REMARK                         _______ _______ _______ _____ _____    ______ ____
ROOT
ATOM      1  N   UNL     1      33.308 -11.832 -23.740  0.00  0.00    -0.210 N 
ATOM      2  N   UNL     1      34.162 -11.153 -24.526  0.00  0.00    -0.176 NA
ATOM      3  C   UNL     1      32.623 -11.045 -22.862  0.00  0.00    +0.087 C 
ATOM      4  C   UNL     1      33.059  -9.762 -23.089  0.00  0.00    +0.051 C 
ATOM      5  C   UNL     1      34.004  -9.890 -24.124  0.00  0.00    +0.120 C 
ENDROOT
BRANCH   4   9
ATOM      6  N   UNL     1      32.746  -8.576 -21.033  0.00  0.00    -0.248 NA
ATOM      7  N   UNL     1      30.994  -5.547 -23.052  0.00  0.00    -0.300 N 
ATOM      8  N   UNL     1      31.690  -6.386 -20.902  0.00  0.00    -0.233 NA
ATOM      9  C   UNL     1      32.590  -8.617 -22.376  0.00  0.00    +0.069 C 
ATOM     10  C   UNL     1      31.979  -7.549 -23.031  0.00  0.00    +0.117 C 
ATOM     11  C   UNL     1      31.564  -6.487 -22.236  0.00  0.00    +0.115 C 
ATOM     12  C   UNL     1      31.641  -7.220 -24.369  0.00  0.00    +0.003 C 
ATOM     13  C   UNL     1      32.293  -7.477 -20.388  0.00  0.00    +0.251 C 
ATOM     14  C   UNL     1      31.036  -5.982 -24.352  0.00  0.00    +0.059 C 
ATOM     15  H   UNL     1      30.614  -4.689 -22.753  0.00  0.00    +0.153 HD
ENDBRANCH   4   9
BRANCH   1  17
ATOM     16  N   UNL     1      33.330 -14.891 -22.425  0.00  0.00    -0.156 NA
ATOM     17  C   UNL     1      33.144 -13.271 -23.825  0.00  0.00    +0.126 C 
ATOM     18  C   UNL     1      34.312 -14.031 -23.177  0.00  0.00    +0.118 C 
ATOM     19  C   UNL     1      32.289 -13.830 -22.677  0.00  0.00    +0.118 C 
BRANCH  16  20
ATOM     20  S   UNL     1      33.641 -15.591 -20.891  0.00  0.00    +0.044 S 
ATOM     21  O   UNL     1      32.423 -15.557 -20.112  0.00  0.00    -0.157 OA
ATOM     22  O   UNL     1      34.886 -15.062 -20.385  0.00  0.00    -0.157 OA
BRANCH  20  23
ATOM     23  C   UNL     1      33.922 -17.267 -21.401  0.00  0.00    +0.169 C 
ATOM     24  C   UNL     1      35.377 -17.655 -21.253  0.00  0.00    +0.029 C 
ENDBRANCH  20  23
ENDBRANCH  16  20
BRANCH  17  25
ATOM     25  C   UNL     1      32.760 -13.670 -25.223  0.00  0.00    +0.128 C 
BRANCH  25  27
ATOM     26  N   UNL     1      33.881 -15.945 -25.936  0.00  0.00    -0.196 NA
ATOM     27  C   UNL     1      33.393 -14.940 -25.620  0.00  0.00    +0.075 C 
ENDBRANCH  25  27
ENDBRANCH  17  25
ENDBRANCH   1  17
TORSDOF 6
ENDMDL
MODEL 4
REMARK VINA RESULT:      -9.1      9.416     13.361
REMARK  Name = 44205240
REMARK  6 active torsions:
REMARK  status: ('A' for Active; 'I' for Inactive)
REMARK    1  A    between atoms: N_1  and  C_17
REMARK    2  A    between atoms: C_4  and  C_9
REMARK    3  A    between atoms: N_16  and  S_20
REMARK    4  A    between atoms: C_17  and  C_25
REMARK    5  A    between atoms: S_20  and  C_23
REMARK    6  A    between atoms: C_25  and  C_27
REMARK                            x       y       z     vdW  Elec       q    Type
REMARK                         _______ _______ _______ _____ _____    ______ ____
ROOT
ATOM      1  N   UNL     1      32.561 -12.421 -22.796  0.00  0.00    -0.210 N 
ATOM      2  N   UNL     1      31.790 -12.499 -21.697  0.00  0.00    -0.176 NA
ATOM      3  C   UNL     1      32.654 -11.164 -23.316  0.00  0.00    +0.087 C 
ATOM      4  C   UNL     1      31.891 -10.363 -22.501  0.00  0.00    +0.051 C 
ATOM      5  C   UNL     1      31.384 -11.239 -21.522  0.00  0.00    +0.120 C 
ENDROOT
BRANCH   4   9
ATOM      6  N   UNL     1      31.277  -8.513 -23.892  0.00  0.00    -0.248 NA
ATOM      7  N   UNL     1      32.088  -5.970 -20.859  0.00  0.00    -0.300 N 
ATOM      8  N   UNL     1      31.342  -6.198 -23.139  0.00  0.00    -0.233 NA
ATOM      9  C   UNL     1      31.715  -8.959 -22.692  0.00  0.00    +0.069 C 
ATOM     10  C   UNL     1      31.983  -8.045 -21.674  0.00  0.00    +0.117 C 
ATOM     11  C   UNL     1      31.774  -6.703 -21.972  0.00  0.00    +0.115 C 
ATOM     12  C   UNL     1      32.437  -8.104 -20.332  0.00  0.00    +0.003 C 
ATOM     13  C   UNL     1      31.119  -7.178 -24.040  0.00  0.00    +0.251 C 
ATOM     14  C   UNL     1      32.492  -6.812 -19.855  0.00  0.00    +0.059 C 
ATOM     15  H   UNL     1      32.031  -4.990 -20.789  0.00  0.00    +0.153 HD
ENDBRANCH   4   9
BRANCH   1  17
ATOM     16  N   UNL     1      34.028 -15.400 -22.562  0.00  0.00    -0.156 NA
ATOM     17  C   UNL     1      33.224 -13.578 -23.369  0.00  0.00    +0.126 C 
ATOM     18  C   UNL     1      34.491 -13.967 -22.590  0.00  0.00    +0.118 C 
ATOM     19  C   UNL     1      32.636 -14.901 -22.855  0.00  0.00    +0.118 C 
BRANCH  16  20
ATOM     20  S   UNL     1      34.411 -16.512 -21.314  0.00  0.00    +0.044 S 
ATOM     21  O   UNL     1      33.257 -17.349 -21.071  0.00  0.00    -0.157 OA
ATOM     22  O   UNL     1      35.075 -15.799 -20.247  0.00  0.00    -0.157 OA
BRANCH  20  23
ATOM     23  C   UNL     1      35.626 -17.483 -22.167  0.00  0.00    +0.169 C 
ATOM     24  C   UNL     1      35.147 -17.884 -23.545  0.00  0.00    +0.029 C 
ENDBRANCH  20  23
ENDBRANCH  16  20
BRANCH  17  25
ATOM     25  C   UNL     1      33.358 -13.418 -24.857  0.00  0.00    +0.128 C 
BRANCH  25  27
ATOM     26  N   UNL     1      33.430 -15.749 -26.084  0.00  0.00    -0.196 NA
ATOM     27  C   UNL     1      33.391 -14.723 -25.543  0.00  0.00    +0.075 C 
ENDBRANCH  25  27
ENDBRANCH  17  25
ENDBRANCH   1  17
TORSDOF 6
ENDMDL
MODEL 5
REMARK VINA RESULT:      -9.1      1.078      1.983
REMARK  Name = 44205240
REMARK  6 active torsions:
REMARK  status: ('A' for Active; 'I' for Inactive)
REMARK    1  A    between atoms: N_1  and  C_17
REMARK    2  A    between atoms: C_4  and  C_9
REMARK    3  A    between atoms: N_16  and  S_20
REMARK    4  A    between atoms: C_17  and  C_25
REMARK    5  A    between atoms: S_20  and  C_23
REMARK    6  A    between atoms: C_25  and  C_27
REMARK                            x       y       z     vdW  Elec       q    Type
REMARK                         _______ _______ _______ _____ _____    ______ ____
ROOT
ATOM      1  N   UNL     1      34.368 -23.493 -16.668  0.00  0.00    -0.210 N 
ATOM      2  N   UNL     1      33.767 -24.405 -17.451  0.00  0.00    -0.176 NA
ATOM      3  C   UNL     1      34.520 -22.273 -17.259  0.00  0.00    +0.087 C 
ATOM      4  C   UNL     1      33.980 -22.395 -18.517  0.00  0.00    +0.051 C 
ATOM      5  C   UNL     1      33.532 -23.728 -18.579  0.00  0.00    +0.120 C 
ENDROOT
BRANCH   4   9
ATOM      6  N   UNL     1      32.729 -20.937 -19.945  0.00  0.00    -0.248 NA
ATOM      7  N   UNL     1      36.166 -19.218 -21.192  0.00  0.00    -0.300 N 
ATOM      8  N   UNL     1      33.762 -19.255 -21.371  0.00  0.00    -0.233 NA
ATOM      9  C   UNL     1      33.932 -21.339 -19.476  0.00  0.00    +0.069 C 
ATOM     10  C   UNL     1      35.092 -20.717 -19.935  0.00  0.00    +0.117 C 
ATOM     11  C   UNL     1      34.926 -19.699 -20.867  0.00  0.00    +0.115 C 
ATOM     12  C   UNL     1      36.486 -20.839 -19.702  0.00  0.00    +0.003 C 
ATOM     13  C   UNL     1      32.718 -19.933 -20.851  0.00  0.00    +0.251 C 
ATOM     14  C   UNL     1      37.122 -19.903 -20.489  0.00  0.00    +0.059 C 
ATOM     15  H   UNL     1      36.343 -18.490 -21.832  0.00  0.00    +0.153 HD
ENDBRANCH   4   9
BRANCH   1  17
ATOM     16  N   UNL     1      36.599 -24.649 -14.484  0.00  0.00    -0.156 NA
ATOM     17  C   UNL     1      34.814 -23.793 -15.320  0.00  0.00    +0.126 C 
ATOM     18  C   UNL     1      35.398 -25.209 -15.202  0.00  0.00    +0.118 C 
ATOM     19  C   UNL     1      36.246 -23.300 -15.056  0.00  0.00    +0.118 C 
BRANCH  16  20
ATOM     20  S   UNL     1      38.166 -25.342 -14.544  0.00  0.00    +0.044 S 
ATOM     21  O   UNL     1      39.100 -24.333 -14.992  0.00  0.00    -0.157 OA
ATOM     22  O   UNL     1      38.076 -26.636 -15.182  0.00  0.00    -0.157 OA
BRANCH  20  23
ATOM     23  C   UNL     1      38.426 -25.599 -12.808  0.00  0.00    +0.169 C 
ATOM     24  C   UNL     1      38.042 -24.377 -12.003  0.00  0.00    +0.029 C 
ENDBRANCH  20  23
ENDBRANCH  16  20
BRANCH  17  25
ATOM     25  C   UNL     1      33.759 -23.402 -14.323  0.00  0.00    +0.128 C 
BRANCH  25  27
ATOM     26  N   UNL     1      31.980 -25.313 -13.974  0.00  0.00    -0.196 NA
ATOM     27  C   UNL     1      32.767 -24.475 -14.132  0.00  0.00    +0.075 C 
ENDBRANCH  25  27
ENDBRANCH  17  25
ENDBRANCH   1  17
TORSDOF 6
ENDMDL
MODEL 6
REMARK VINA RESULT:      -9.1     11.767     15.801
REMARK  Name = 44205240
REMARK  6 active torsions:
REMARK  status: ('A' for Active; 'I' for Inactive)
REMARK    1  A    between atoms: N_1  and  C_17
REMARK    2  A    between atoms: C_4  and  C_9
REMARK    3  A    between atoms: N_16  and  S_20
REMARK    4  A    between atoms: C_17  and  C_25
REMARK    5  A    between atoms: S_20  and  C_23
REMARK    6  A    between atoms: C_25  and  C_27
REMARK                            x       y       z     vdW  Elec       q    Type
REMARK                         _______ _______ _______ _____ _____    ______ ____
ROOT
ATOM      1  N   UNL     1      33.128 -10.135 -23.459  0.00  0.00    -0.210 N 
ATOM      2  N   UNL     1      34.274  -9.857 -24.105  0.00  0.00    -0.176 NA
ATOM      3  C   UNL     1      32.731 -11.434 -23.574  0.00  0.00    +0.087 C 
ATOM      4  C   UNL     1      33.682 -12.050 -24.351  0.00  0.00    +0.051 C 
ATOM      5  C   UNL     1      34.608 -11.032 -24.648  0.00  0.00    +0.120 C 
ENDROOT
BRANCH   4   9
ATOM      6  N   UNL     1      33.241 -13.762 -25.965  0.00  0.00    -0.248 NA
ATOM      7  N   UNL     1      34.356 -16.571 -23.284  0.00  0.00    -0.300 N 
ATOM      8  N   UNL     1      33.557 -16.135 -25.516  0.00  0.00    -0.233 NA
ATOM      9  C   UNL     1      33.648 -13.429 -24.719  0.00  0.00    +0.069 C 
ATOM     10  C   UNL     1      34.023 -14.432 -23.827  0.00  0.00    +0.117 C 
ATOM     11  C   UNL     1      33.951 -15.739 -24.294  0.00  0.00    +0.115 C 
ATOM     12  C   UNL     1      34.488 -14.497 -22.489  0.00  0.00    +0.003 C 
ATOM     13  C   UNL     1      33.221 -15.077 -26.283  0.00  0.00    +0.251 C 
ATOM     14  C   UNL     1      34.685 -15.827 -22.181  0.00  0.00    +0.059 C 
ATOM     15  H   UNL     1      34.403 -17.553 -23.341  0.00  0.00    +0.153 HD
ENDBRANCH   4   9
BRANCH   1  17
ATOM     16  N   UNL     1      31.756  -7.120 -23.121  0.00  0.00    -0.156 NA
ATOM     17  C   UNL     1      32.391  -9.132 -22.713  0.00  0.00    +0.126 C 
ATOM     18  C   UNL     1      33.073  -7.756 -22.755  0.00  0.00    +0.118 C 
ATOM     19  C   UNL     1      31.277  -8.484 -23.550  0.00  0.00    +0.118 C 
BRANCH  16  20
ATOM     20  S   UNL     1      31.603  -5.701 -24.072  0.00  0.00    +0.044 S 
ATOM     21  O   UNL     1      30.383  -5.791 -24.842  0.00  0.00    -0.157 OA
ATOM     22  O   UNL     1      32.878  -5.420 -24.692  0.00  0.00    -0.157 OA
BRANCH  20  23
ATOM     23  C   UNL     1      31.349  -4.520 -22.773  0.00  0.00    +0.169 C 
ATOM     24  C   UNL     1      30.491  -5.091 -21.665  0.00  0.00    +0.029 C 
ENDBRANCH  20  23
ENDBRANCH  16  20
BRANCH  17  25
ATOM     25  C   UNL     1      32.009  -9.666 -21.360  0.00  0.00    +0.128 C 
BRANCH  25  27
ATOM     26  N   UNL     1      32.346  -7.866 -19.465  0.00  0.00    -0.196 NA
ATOM     27  C   UNL     1      32.203  -8.656 -20.303  0.00  0.00    +0.075 C 
ENDBRANCH  25  27
ENDBRANCH  17  25
ENDBRANCH   1  17
TORSDOF 6
ENDMDL
MODEL 7
REMARK VINA RESULT:      -9.0      9.280     13.273
REMARK  Name = 44205240
REMARK  6 active torsions:
REMARK  status: ('A' for Active; 'I' for Inactive)
REMARK    1  A    between atoms: N_1  and  C_17
REMARK    2  A    between atoms: C_4  and  C_9
REMARK    3  A    between atoms: N_16  and  S_20
REMARK    4  A    between atoms: C_17  and  C_25
REMARK    5  A    between atoms: S_20  and  C_23
REMARK    6  A    between atoms: C_25  and  C_27
REMARK                            x       y       z     vdW  Elec       q    Type
REMARK                         _______ _______ _______ _____ _____    ______ ____
ROOT
ATOM      1  N   UNL     1      33.476 -12.172 -24.072  0.00  0.00    -0.210 N 
ATOM      2  N   UNL     1      34.252 -11.552 -24.979  0.00  0.00    -0.176 NA
ATOM      3  C   UNL     1      32.893 -11.327 -23.175  0.00  0.00    +0.087 C 
ATOM      4  C   UNL     1      33.316 -10.065 -23.518  0.00  0.00    +0.051 C 
ATOM      5  C   UNL     1      34.149 -10.266 -24.635  0.00  0.00    +0.120 C 
ENDROOT
BRANCH   4   9
ATOM      6  N   UNL     1      33.012  -7.691 -23.477  0.00  0.00    -0.248 NA
ATOM      7  N   UNL     1      31.731  -7.927 -19.652  0.00  0.00    -0.300 N 
ATOM      8  N   UNL     1      32.195  -6.483 -21.526  0.00  0.00    -0.233 NA
ATOM      9  C   UNL     1      32.935  -8.875 -22.828  0.00  0.00    +0.069 C 
ATOM     10  C   UNL     1      32.488  -8.909 -21.508  0.00  0.00    +0.117 C 
ATOM     11  C   UNL     1      32.142  -7.690 -20.937  0.00  0.00    +0.115 C 
ATOM     12  C   UNL     1      32.272  -9.903 -20.520  0.00  0.00    +0.003 C 
ATOM     13  C   UNL     1      32.642  -6.583 -22.796  0.00  0.00    +0.251 C 
ATOM     14  C   UNL     1      31.806  -9.270 -19.388  0.00  0.00    +0.059 C 
ATOM     15  H   UNL     1      31.428  -7.239 -19.016  0.00  0.00    +0.153 HD
ENDBRANCH   4   9
BRANCH   1  17
ATOM     16  N   UNL     1      33.511 -15.141 -22.566  0.00  0.00    -0.156 NA
ATOM     17  C   UNL     1      33.289 -13.611 -24.059  0.00  0.00    +0.126 C 
ATOM     18  C   UNL     1      34.473 -14.347 -23.412  0.00  0.00    +0.118 C 
ATOM     19  C   UNL     1      32.475 -14.082 -22.843  0.00  0.00    +0.118 C 
BRANCH  16  20
ATOM     20  S   UNL     1      33.877 -15.748 -21.005  0.00  0.00    +0.044 S 
ATOM     21  O   UNL     1      32.655 -16.222 -20.396  0.00  0.00    -0.157 OA
ATOM     22  O   UNL     1      34.749 -14.810 -20.337  0.00  0.00    -0.157 OA
BRANCH  20  23
ATOM     23  C   UNL     1      34.843 -17.161 -21.473  0.00  0.00    +0.169 C 
ATOM     24  C   UNL     1      34.076 -18.449 -21.267  0.00  0.00    +0.029 C 
ENDBRANCH  20  23
ENDBRANCH  16  20
BRANCH  17  25
ATOM     25  C   UNL     1      32.841 -14.091 -25.411  0.00  0.00    +0.128 C 
BRANCH  25  27
ATOM     26  N   UNL     1      33.861 -16.447 -26.004  0.00  0.00    -0.196 NA
ATOM     27  C   UNL     1      33.417 -15.407 -25.740  0.00  0.00    +0.075 C 
ENDBRANCH  25  27
ENDBRANCH  17  25
ENDBRANCH   1  17
TORSDOF 6
ENDMDL
MODEL 8
REMARK VINA RESULT:      -9.0      3.380      5.781
REMARK  Name = 44205240
REMARK  6 active torsions:
REMARK  status: ('A' for Active; 'I' for Inactive)
REMARK    1  A    between atoms: N_1  and  C_17
REMARK    2  A    between atoms: C_4  and  C_9
REMARK    3  A    between atoms: N_16  and  S_20
REMARK    4  A    between atoms: C_17  and  C_25
REMARK    5  A    between atoms: S_20  and  C_23
REMARK    6  A    between atoms: C_25  and  C_27
REMARK                            x       y       z     vdW  Elec       q    Type
REMARK                         _______ _______ _______ _____ _____    ______ ____
ROOT
ATOM      1  N   UNL     1      34.384 -23.241 -16.244  0.00  0.00    -0.210 N 
ATOM      2  N   UNL     1      34.305 -22.992 -17.563  0.00  0.00    -0.176 NA
ATOM      3  C   UNL     1      33.171 -23.364 -15.633  0.00  0.00    +0.087 C 
ATOM      4  C   UNL     1      32.233 -23.182 -16.620  0.00  0.00    +0.051 C 
ATOM      5  C   UNL     1      32.988 -22.958 -17.787  0.00  0.00    +0.120 C 
ENDROOT
BRANCH   4   9
ATOM      6  N   UNL     1      30.033 -22.337 -17.044  0.00  0.00    -0.248 NA
ATOM      7  N   UNL     1      28.488 -25.127 -14.563  0.00  0.00    -0.300 N 
ATOM      8  N   UNL     1      28.025 -23.272 -16.031  0.00  0.00    -0.233 NA
ATOM      9  C   UNL     1      30.822 -23.232 -16.405  0.00  0.00    +0.069 C 
ATOM     10  C   UNL     1      30.245 -24.176 -15.558  0.00  0.00    +0.117 C 
ATOM     11  C   UNL     1      28.862 -24.132 -15.427  0.00  0.00    +0.115 C 
ATOM     12  C   UNL     1      30.704 -25.240 -14.741  0.00  0.00    +0.003 C 
ATOM     13  C   UNL     1      28.701 -22.412 -16.821  0.00  0.00    +0.251 C 
ATOM     14  C   UNL     1      29.600 -25.808 -14.140  0.00  0.00    +0.059 C 
ATOM     15  H   UNL     1      27.563 -25.324 -14.289  0.00  0.00    +0.153 HD
ENDBRANCH   4   9
BRANCH   1  17
ATOM     16  N   UNL     1      36.245 -24.147 -13.636  0.00  0.00    -0.156 NA
ATOM     17  C   UNL     1      35.650 -23.362 -15.547  0.00  0.00    +0.126 C 
ATOM     18  C   UNL     1      35.561 -22.882 -14.089  0.00  0.00    +0.118 C 
ATOM     19  C   UNL     1      35.859 -24.765 -14.956  0.00  0.00    +0.118 C 
BRANCH  16  20
ATOM     20  S   UNL     1      35.986 -24.888 -12.112  0.00  0.00    +0.044 S 
ATOM     21  O   UNL     1      36.751 -26.113 -12.059  0.00  0.00    -0.157 OA
ATOM     22  O   UNL     1      34.572 -24.858 -11.817  0.00  0.00    -0.157 OA
BRANCH  20  23
ATOM     23  C   UNL     1      36.791 -23.691 -11.079  0.00  0.00    +0.169 C 
ATOM     24  C   UNL     1      38.137 -23.289 -11.641  0.00  0.00    +0.029 C 
ENDBRANCH  20  23
ENDBRANCH  16  20
BRANCH  17  25
ATOM     25  C   UNL     1      36.763 -22.798 -16.386  0.00  0.00    +0.128 C 
BRANCH  25  27
ATOM     26  N   UNL     1      39.110 -23.708 -15.609  0.00  0.00    -0.196 NA
ATOM     27  C   UNL     1      38.079 -23.301 -15.953  0.00  0.00    +0.075 C 
ENDBRANCH  25  27
ENDBRANCH  17  25
ENDBRANCH   1  17
TORSDOF 6
ENDMDL
MODEL 9
REMARK VINA RESULT:      -9.0     10.531     14.334
REMARK  Name = 44205240
REMARK  6 active torsions:
REMARK  status: ('A' for Active; 'I' for Inactive)
REMARK    1  A    between atoms: N_1  and  C_17
REMARK    2  A    between atoms: C_4  and  C_9
REMARK    3  A    between atoms: N_16  and  S_20
REMARK    4  A    between atoms: C_17  and  C_25
REMARK    5  A    between atoms: S_20  and  C_23
REMARK    6  A    between atoms: C_25  and  C_27
REMARK                            x       y       z     vdW  Elec       q    Type
REMARK                         _______ _______ _______ _____ _____    ______ ____
ROOT
ATOM      1  N   UNL     1      32.538 -11.631 -22.704  0.00  0.00    -0.210 N 
ATOM      2  N   UNL     1      33.178 -11.536 -23.883  0.00  0.00    -0.176 NA
ATOM      3  C   UNL     1      32.757 -12.809 -22.051  0.00  0.00    +0.087 C 
ATOM      4  C   UNL     1      33.598 -13.535 -22.859  0.00  0.00    +0.051 C 
ATOM      5  C   UNL     1      33.824 -12.702 -23.971  0.00  0.00    +0.120 C 
ENDROOT
BRANCH   4   9
ATOM      6  N   UNL     1      34.398 -15.130 -21.263  0.00  0.00    -0.248 NA
ATOM      7  N   UNL     1      34.784 -17.873 -24.204  0.00  0.00    -0.300 N 
ATOM      8  N   UNL     1      35.038 -17.404 -21.854  0.00  0.00    -0.233 NA
ATOM      9  C   UNL     1      34.081 -14.842 -22.546  0.00  0.00    +0.069 C 
ATOM     10  C   UNL     1      34.231 -15.819 -23.528  0.00  0.00    +0.117 C 
ATOM     11  C   UNL     1      34.707 -17.056 -23.108  0.00  0.00    +0.115 C 
ATOM     12  C   UNL     1      34.018 -15.912 -24.927  0.00  0.00    +0.003 C 
ATOM     13  C   UNL     1      34.851 -16.377 -20.999  0.00  0.00    +0.251 C 
ATOM     14  C   UNL     1      34.367 -17.188 -25.316  0.00  0.00    +0.059 C 
ATOM     15  H   UNL     1      35.091 -18.809 -24.195  0.00  0.00    +0.153 HD
ENDBRANCH   4   9
BRANCH   1  17
ATOM     16  N   UNL     1      31.623  -8.440 -22.452  0.00  0.00    -0.156 NA
ATOM     17  C   UNL     1      31.692 -10.572 -22.187  0.00  0.00    +0.126 C 
ATOM     18  C   UNL     1      32.507  -9.376 -21.670  0.00  0.00    +0.118 C 
ATOM     19  C   UNL     1      31.207  -9.621 -23.293  0.00  0.00    +0.118 C 
BRANCH  16  20
ATOM     20  S   UNL     1      32.140  -6.936 -23.093  0.00  0.00    +0.044 S 
ATOM     21  O   UNL     1      31.260  -6.569 -24.179  0.00  0.00    -0.157 OA
ATOM     22  O   UNL     1      33.576  -6.970 -23.251  0.00  0.00    -0.157 OA
BRANCH  20  23
ATOM     23  C   UNL     1      31.763  -5.897 -21.705  0.00  0.00    +0.169 C 
ATOM     24  C   UNL     1      30.380  -5.295 -21.823  0.00  0.00    +0.029 C 
ENDBRANCH  20  23
ENDBRANCH  16  20
BRANCH  17  25
ATOM     25  C   UNL     1      30.650 -11.140 -21.265  0.00  0.00    +0.128 C 
BRANCH  25  27
ATOM     26  N   UNL     1      31.291 -10.802 -18.731  0.00  0.00    -0.196 NA
ATOM     27  C   UNL     1      31.015 -10.951 -19.849  0.00  0.00    +0.075 C 
ENDBRANCH  25  27
ENDBRANCH  17  25
ENDBRANCH   1  17
TORSDOF 6
ENDMDL
