MODEL 1
REMARK VINA RESULT:     -10.7      0.000      0.000
REMARK  Name = 5951796
REMARK  4 active torsions:
REMARK  status: ('A' for Active; 'I' for Inactive)
REMARK    1  A    between atoms: C_2  and  C_16
REMARK    2  A    between atoms: C_3  and  C_10
REMARK    3  A    between atoms: C_19  and  C_23
REMARK    4  A    between atoms: C_23  and  O_24
REMARK                            x       y       z     vdW  Elec       q    Type
REMARK                         _______ _______ _______ _____ _____    ______ ____
ROOT
ATOM      1  O   UNL     1      34.406 -18.755 -22.495  0.00  0.00    -0.453 OA
ATOM      2  C   UNL     1      35.301 -19.213 -21.584  0.00  0.00    +0.145 C 
ATOM      3  C   UNL     1      35.079 -17.880 -23.286  0.00  0.00    +0.147 C 
ATOM      4  C   UNL     1      36.533 -18.646 -21.777  0.00  0.00    +0.041 C 
ATOM      5  C   UNL     1      36.392 -17.777 -22.886  0.00  0.00    +0.041 C 
ENDROOT
BRANCH   3  10
ATOM      6  S   UNL     1      34.234 -14.737 -23.141  0.00  0.00    -0.027 S 
ATOM      7  O   UNL     1      33.167 -15.858 -26.615  0.00  0.00    -0.209 OA
ATOM      8  N   UNL     1      33.121 -13.925 -25.337  0.00  0.00    -0.311 NA
ATOM      9  N   UNL     1      33.331 -12.273 -23.626  0.00  0.00    -0.327 N 
ATOM     10  C   UNL     1      34.455 -17.200 -24.357  0.00  0.00    +0.057 C 
ATOM     11  C   UNL     1      34.060 -15.886 -24.401  0.00  0.00    +0.131 C 
ATOM     12  C   UNL     1      33.408 -15.256 -25.578  0.00  0.00    +0.213 C 
ATOM     13  C   UNL     1      33.477 -13.520 -24.156  0.00  0.00    +0.222 C 
ATOM     14  H   UNL     1      33.645 -12.088 -22.711  0.00  0.00    +0.145 HD
ATOM     15  H   UNL     1      32.912 -11.558 -24.158  0.00  0.00    +0.145 HD
ENDBRANCH   3  10
BRANCH   2  16
ATOM     16  C   UNL     1      34.777 -20.168 -20.638  0.00  0.00    +0.035 C 
ATOM     17  C   UNL     1      33.401 -20.260 -20.429  0.00  0.00    +0.003 C 
ATOM     18  C   UNL     1      35.647 -20.999 -19.932  0.00  0.00    +0.003 C 
ATOM     19  C   UNL     1      33.765 -22.016 -18.810  0.00  0.00    +0.075 C 
ATOM     20  C   UNL     1      32.895 -21.184 -19.515  0.00  0.00    +0.007 C 
ATOM     21  C   UNL     1      35.140 -21.923 -19.017  0.00  0.00    +0.007 C 
BRANCH  19  23
ATOM     22  O   UNL     1      33.890 -23.869 -17.300  0.00  0.00    -0.245 OA
ATOM     23  C   UNL     1      33.237 -22.979 -17.857  0.00  0.00    +0.338 C 
BRANCH  23  24
ATOM     24  O   UNL     1      31.908 -22.805 -17.621  0.00  0.00    -0.477 OA
ATOM     25  H   UNL     1      31.301 -23.482 -17.846  0.00  0.00    +0.295 HD
ENDBRANCH  23  24
ENDBRANCH  19  23
ENDBRANCH   2  16
TORSDOF 4
ENDMDL
MODEL 2
REMARK VINA RESULT:     -10.4      4.700      8.070
REMARK  Name = 5951796
REMARK  4 active torsions:
REMARK  status: ('A' for Active; 'I' for Inactive)
REMARK    1  A    between atoms: C_2  and  C_16
REMARK    2  A    between atoms: C_3  and  C_10
REMARK    3  A    between atoms: C_19  and  C_23
REMARK    4  A    between atoms: C_23  and  O_24
REMARK                            x       y       z     vdW  Elec       q    Type
REMARK                         _______ _______ _______ _____ _____    ______ ____
ROOT
ATOM      1  O   UNL     1      34.733 -17.448 -21.314  0.00  0.00    -0.453 OA
ATOM      2  C   UNL     1      34.396 -16.663 -22.367  0.00  0.00    +0.145 C 
ATOM      3  C   UNL     1      35.419 -18.503 -21.827  0.00  0.00    +0.147 C 
ATOM      4  C   UNL     1      34.853 -17.196 -23.544  0.00  0.00    +0.041 C 
ATOM      5  C   UNL     1      35.520 -18.394 -23.195  0.00  0.00    +0.041 C 
ENDROOT
BRANCH   3  10
ATOM      6  S   UNL     1      33.516 -20.536 -20.136  0.00  0.00    -0.027 S 
ATOM      7  O   UNL     1      37.063 -21.655 -19.338  0.00  0.00    -0.209 OA
ATOM      8  N   UNL     1      34.897 -22.264 -18.784  0.00  0.00    -0.311 NA
ATOM      9  N   UNL     1      32.527 -22.452 -18.565  0.00  0.00    -0.327 N 
ATOM     10  C   UNL     1      35.932 -19.536 -21.009  0.00  0.00    +0.057 C 
ATOM     11  C   UNL     1      35.224 -20.443 -20.260  0.00  0.00    +0.131 C 
ATOM     12  C   UNL     1      35.853 -21.500 -19.427  0.00  0.00    +0.213 C 
ATOM     13  C   UNL     1      33.678 -21.900 -19.042  0.00  0.00    +0.222 C 
ATOM     14  H   UNL     1      31.655 -22.084 -18.838  0.00  0.00    +0.145 HD
ATOM     15  H   UNL     1      32.567 -23.219 -17.949  0.00  0.00    +0.145 HD
ENDBRANCH   3  10
BRANCH   2  16
ATOM     16  C   UNL     1      33.652 -15.474 -22.031  0.00  0.00    +0.035 C 
ATOM     17  C   UNL     1      33.238 -14.602 -23.038  0.00  0.00    +0.003 C 
ATOM     18  C   UNL     1      33.345 -15.197 -20.699  0.00  0.00    +0.003 C 
ATOM     19  C   UNL     1      32.210 -13.176 -21.380  0.00  0.00    +0.075 C 
ATOM     20  C   UNL     1      32.517 -13.453 -22.713  0.00  0.00    +0.007 C 
ATOM     21  C   UNL     1      32.624 -14.047 -20.373  0.00  0.00    +0.007 C 
BRANCH  19  23
ATOM     22  O   UNL     1      31.520 -11.374 -19.964  0.00  0.00    -0.245 OA
ATOM     23  C   UNL     1      31.459 -11.978 -21.041  0.00  0.00    +0.338 C 
BRANCH  23  24
ATOM     24  O   UNL     1      30.652 -11.564 -22.056  0.00  0.00    -0.477 OA
ATOM     25  H   UNL     1      30.938 -11.648 -22.944  0.00  0.00    +0.295 HD
ENDBRANCH  23  24
ENDBRANCH  19  23
ENDBRANCH   2  16
TORSDOF 4
ENDMDL
MODEL 3
REMARK VINA RESULT:     -10.2      1.504      1.858
REMARK  Name = 5951796
REMARK  4 active torsions:
REMARK  status: ('A' for Active; 'I' for Inactive)
REMARK    1  A    between atoms: C_2  and  C_16
REMARK    2  A    between atoms: C_3  and  C_10
REMARK    3  A    between atoms: C_19  and  C_23
REMARK    4  A    between atoms: C_23  and  O_24
REMARK                            x       y       z     vdW  Elec       q    Type
REMARK                         _______ _______ _______ _____ _____    ______ ____
ROOT
ATOM      1  O   UNL     1      34.272 -17.681 -21.764  0.00  0.00    -0.453 OA
ATOM      2  C   UNL     1      34.683 -18.946 -22.030  0.00  0.00    +0.145 C 
ATOM      3  C   UNL     1      34.658 -16.923 -22.823  0.00  0.00    +0.147 C 
ATOM      4  C   UNL     1      35.325 -19.011 -23.239  0.00  0.00    +0.041 C 
ATOM      5  C   UNL     1      35.310 -17.694 -23.758  0.00  0.00    +0.041 C 
ENDROOT
BRANCH   3  10
ATOM      6  S   UNL     1      33.621 -15.445 -25.535  0.00  0.00    -0.027 S 
ATOM      7  O   UNL     1      33.866 -12.658 -22.957  0.00  0.00    -0.209 OA
ATOM      8  N   UNL     1      33.272 -12.900 -25.184  0.00  0.00    -0.311 NA
ATOM      9  N   UNL     1      32.787 -13.706 -27.379  0.00  0.00    -0.327 N 
ATOM     10  C   UNL     1      34.394 -15.536 -22.891  0.00  0.00    +0.057 C 
ATOM     11  C   UNL     1      33.956 -14.816 -23.975  0.00  0.00    +0.131 C 
ATOM     12  C   UNL     1      33.704 -13.352 -23.952  0.00  0.00    +0.213 C 
ATOM     13  C   UNL     1      33.181 -13.835 -26.081  0.00  0.00    +0.222 C 
ATOM     14  H   UNL     1      32.757 -14.497 -27.965  0.00  0.00    +0.145 HD
ATOM     15  H   UNL     1      32.530 -12.822 -27.730  0.00  0.00    +0.145 HD
ENDBRANCH   3  10
BRANCH   2  16
ATOM     16  C   UNL     1      34.365 -19.919 -21.014  0.00  0.00    +0.035 C 
ATOM     17  C   UNL     1      33.046 -20.079 -20.588  0.00  0.00    +0.003 C 
ATOM     18  C   UNL     1      35.377 -20.701 -20.457  0.00  0.00    +0.003 C 
ATOM     19  C   UNL     1      33.752 -21.803 -19.050  0.00  0.00    +0.075 C 
ATOM     20  C   UNL     1      32.740 -21.020 -19.607  0.00  0.00    +0.007 C 
ATOM     21  C   UNL     1      35.070 -21.644 -19.474  0.00  0.00    +0.007 C 
BRANCH  19  23
ATOM     22  O   UNL     1      34.239 -23.556 -17.495  0.00  0.00    -0.245 OA
ATOM     23  C   UNL     1      33.431 -22.785 -18.026  0.00  0.00    +0.338 C 
BRANCH  23  24
ATOM     24  O   UNL     1      32.112 -22.777 -17.691  0.00  0.00    -0.477 OA
ATOM     25  H   UNL     1      31.468 -22.554 -18.334  0.00  0.00    +0.295 HD
ENDBRANCH  23  24
ENDBRANCH  19  23
ENDBRANCH   2  16
TORSDOF 4
ENDMDL
MODEL 4
REMARK VINA RESULT:     -10.0      6.851     10.826
REMARK  Name = 5951796
REMARK  4 active torsions:
REMARK  status: ('A' for Active; 'I' for Inactive)
REMARK    1  A    between atoms: C_2  and  C_16
REMARK    2  A    between atoms: C_3  and  C_10
REMARK    3  A    between atoms: C_19  and  C_23
REMARK    4  A    between atoms: C_23  and  O_24
REMARK                            x       y       z     vdW  Elec       q    Type
REMARK                         _______ _______ _______ _____ _____    ______ ____
ROOT
ATOM      1  O   UNL     1      35.218 -23.501 -16.880  0.00  0.00    -0.453 OA
ATOM      2  C   UNL     1      34.129 -22.868 -17.380  0.00  0.00    +0.145 C 
ATOM      3  C   UNL     1      34.776 -24.265 -15.847  0.00  0.00    +0.147 C 
ATOM      4  C   UNL     1      32.998 -23.211 -16.687  0.00  0.00    +0.041 C 
ATOM      5  C   UNL     1      33.417 -24.122 -15.688  0.00  0.00    +0.041 C 
ENDROOT
BRANCH   3  10
ATOM      6  S   UNL     1      35.609 -23.563 -12.777  0.00  0.00    -0.027 S 
ATOM      7  O   UNL     1      37.456 -26.795 -13.556  0.00  0.00    -0.209 OA
ATOM      8  N   UNL     1      37.224 -25.327 -11.778  0.00  0.00    -0.311 NA
ATOM      9  N   UNL     1      36.638 -23.534 -10.315  0.00  0.00    -0.327 N 
ATOM     10  C   UNL     1      35.647 -25.074 -15.082  0.00  0.00    +0.057 C 
ATOM     11  C   UNL     1      36.061 -24.872 -13.788  0.00  0.00    +0.131 C 
ATOM     12  C   UNL     1      36.984 -25.781 -13.061  0.00  0.00    +0.213 C 
ATOM     13  C   UNL     1      36.603 -24.224 -11.489  0.00  0.00    +0.222 C 
ATOM     14  H   UNL     1      36.118 -22.703 -10.217  0.00  0.00    +0.145 HD
ATOM     15  H   UNL     1      37.182 -23.866  -9.564  0.00  0.00    +0.145 HD
ENDBRANCH   3  10
BRANCH   2  16
ATOM     16  C   UNL     1      34.389 -21.995 -18.499  0.00  0.00    +0.035 C 
ATOM     17  C   UNL     1      35.703 -21.700 -18.863  0.00  0.00    +0.003 C 
ATOM     18  C   UNL     1      33.326 -21.447 -19.217  0.00  0.00    +0.003 C 
ATOM     19  C   UNL     1      34.890 -20.310 -20.665  0.00  0.00    +0.075 C 
ATOM     20  C   UNL     1      35.954 -20.857 -19.946  0.00  0.00    +0.007 C 
ATOM     21  C   UNL     1      33.577 -20.604 -20.301  0.00  0.00    +0.007 C 
BRANCH  19  23
ATOM     22  O   UNL     1      34.500 -19.398 -22.843  0.00  0.00    -0.245 OA
ATOM     23  C   UNL     1      35.152 -19.431 -21.794  0.00  0.00    +0.338 C 
BRANCH  23  24
ATOM     24  O   UNL     1      36.221 -18.615 -21.582  0.00  0.00    -0.477 OA
ATOM     25  H   UNL     1      36.224 -18.029 -20.852  0.00  0.00    +0.295 HD
ENDBRANCH  23  24
ENDBRANCH  19  23
ENDBRANCH   2  16
TORSDOF 4
ENDMDL
MODEL 5
REMARK VINA RESULT:      -9.9      4.267      8.403
REMARK  Name = 5951796
REMARK  4 active torsions:
REMARK  status: ('A' for Active; 'I' for Inactive)
REMARK    1  A    between atoms: C_2  and  C_16
REMARK    2  A    between atoms: C_3  and  C_10
REMARK    3  A    between atoms: C_19  and  C_23
REMARK    4  A    between atoms: C_23  and  O_24
REMARK                            x       y       z     vdW  Elec       q    Type
REMARK                         _______ _______ _______ _____ _____    ______ ____
ROOT
ATOM      1  O   UNL     1      34.653 -16.341 -22.271  0.00  0.00    -0.453 OA
ATOM      2  C   UNL     1      34.133 -15.691 -23.341  0.00  0.00    +0.145 C 
ATOM      3  C   UNL     1      35.180 -17.500 -22.746  0.00  0.00    +0.147 C 
ATOM      4  C   UNL     1      34.315 -16.412 -24.492  0.00  0.00    +0.041 C 
ATOM      5  C   UNL     1      34.997 -17.592 -24.107  0.00  0.00    +0.041 C 
ENDROOT
BRANCH   3  10
ATOM      6  S   UNL     1      33.538 -19.709 -21.002  0.00  0.00    -0.027 S 
ATOM      7  O   UNL     1      37.194 -20.358 -20.175  0.00  0.00    -0.209 OA
ATOM      8  N   UNL     1      35.118 -21.217 -19.605  0.00  0.00    -0.311 NA
ATOM      9  N   UNL     1      32.789 -21.691 -19.380  0.00  0.00    -0.327 N 
ATOM     10  C   UNL     1      35.814 -18.440 -21.901  0.00  0.00    +0.057 C 
ATOM     11  C   UNL     1      35.221 -19.408 -21.129  0.00  0.00    +0.131 C 
ATOM     12  C   UNL     1      35.974 -20.357 -20.268  0.00  0.00    +0.213 C 
ATOM     13  C   UNL     1      33.864 -21.013 -19.872  0.00  0.00    +0.222 C 
ATOM     14  H   UNL     1      31.879 -21.441 -19.662  0.00  0.00    +0.145 HD
ATOM     15  H   UNL     1      32.922 -22.431 -18.744  0.00  0.00    +0.145 HD
ENDBRANCH   3  10
BRANCH   2  16
ATOM     16  C   UNL     1      33.518 -14.420 -23.045  0.00  0.00    +0.035 C 
ATOM     17  C   UNL     1      32.641 -14.303 -21.967  0.00  0.00    +0.003 C 
ATOM     18  C   UNL     1      33.800 -13.308 -23.838  0.00  0.00    +0.003 C 
ATOM     19  C   UNL     1      32.331 -11.961 -22.473  0.00  0.00    +0.075 C 
ATOM     20  C   UNL     1      32.048 -13.074 -21.680  0.00  0.00    +0.007 C 
ATOM     21  C   UNL     1      33.206 -12.078 -23.552  0.00  0.00    +0.007 C 
BRANCH  19  23
ATOM     22  O   UNL     1      31.522  -9.768 -22.988  0.00  0.00    -0.245 OA
ATOM     23  C   UNL     1      31.711 -10.680 -22.174  0.00  0.00    +0.338 C 
BRANCH  23  24
ATOM     24  O   UNL     1      31.344 -10.570 -20.869  0.00  0.00    -0.477 OA
ATOM     25  H   UNL     1      30.650 -11.102 -20.532  0.00  0.00    +0.295 HD
ENDBRANCH  23  24
ENDBRANCH  19  23
ENDBRANCH   2  16
TORSDOF 4
ENDMDL
MODEL 6
REMARK VINA RESULT:      -9.9      1.946      2.995
REMARK  Name = 5951796
REMARK  4 active torsions:
REMARK  status: ('A' for Active; 'I' for Inactive)
REMARK    1  A    between atoms: C_2  and  C_16
REMARK    2  A    between atoms: C_3  and  C_10
REMARK    3  A    between atoms: C_19  and  C_23
REMARK    4  A    between atoms: C_23  and  O_24
REMARK                            x       y       z     vdW  Elec       q    Type
REMARK                         _______ _______ _______ _____ _____    ______ ____
ROOT
ATOM      1  O   UNL     1      34.745 -16.922 -22.987  0.00  0.00    -0.453 OA
ATOM      2  C   UNL     1      34.788 -18.258 -23.210  0.00  0.00    +0.145 C 
ATOM      3  C   UNL     1      34.445 -16.344 -24.179  0.00  0.00    +0.147 C 
ATOM      4  C   UNL     1      34.522 -18.547 -24.523  0.00  0.00    +0.041 C 
ATOM      5  C   UNL     1      34.298 -17.301 -25.157  0.00  0.00    +0.041 C 
ENDROOT
BRANCH   3  10
ATOM      6  S   UNL     1      32.691 -14.501 -22.145  0.00  0.00    -0.027 S 
ATOM      7  O   UNL     1      34.099 -12.048 -24.689  0.00  0.00    -0.209 OA
ATOM      8  N   UNL     1      32.747 -11.995 -22.806  0.00  0.00    -0.311 NA
ATOM      9  N   UNL     1      31.452 -12.512 -20.869  0.00  0.00    -0.327 N 
ATOM     10  C   UNL     1      34.317 -14.944 -24.326  0.00  0.00    +0.057 C 
ATOM     11  C   UNL     1      33.608 -14.078 -23.530  0.00  0.00    +0.131 C 
ATOM     12  C   UNL     1      33.532 -12.613 -23.763  0.00  0.00    +0.213 C 
ATOM     13  C   UNL     1      32.256 -12.813 -21.927  0.00  0.00    +0.222 C 
ATOM     14  H   UNL     1      31.143 -13.227 -20.266  0.00  0.00    +0.145 HD
ATOM     15  H   UNL     1      31.182 -11.579 -20.706  0.00  0.00    +0.145 HD
ENDBRANCH   3  10
BRANCH   2  16
ATOM     16  C   UNL     1      35.096 -19.063 -22.053  0.00  0.00    +0.035 C 
ATOM     17  C   UNL     1      36.396 -19.088 -21.546  0.00  0.00    +0.003 C 
ATOM     18  C   UNL     1      34.094 -19.815 -21.440  0.00  0.00    +0.003 C 
ATOM     19  C   UNL     1      35.690 -20.617 -19.813  0.00  0.00    +0.075 C 
ATOM     20  C   UNL     1      36.693 -19.865 -20.427  0.00  0.00    +0.007 C 
ATOM     21  C   UNL     1      34.391 -20.593 -20.320  0.00  0.00    +0.007 C 
BRANCH  19  23
ATOM     22  O   UNL     1      35.454 -22.495 -18.349  0.00  0.00    -0.245 OA
ATOM     23  C   UNL     1      36.000 -21.427 -18.646  0.00  0.00    +0.338 C 
BRANCH  23  24
ATOM     24  O   UNL     1      36.986 -20.883 -17.882  0.00  0.00    -0.477 OA
ATOM     25  H   UNL     1      37.306 -20.024 -18.073  0.00  0.00    +0.295 HD
ENDBRANCH  23  24
ENDBRANCH  19  23
ENDBRANCH   2  16
TORSDOF 4
ENDMDL
MODEL 7
REMARK VINA RESULT:      -9.8      2.298      2.916
REMARK  Name = 5951796
REMARK  4 active torsions:
REMARK  status: ('A' for Active; 'I' for Inactive)
REMARK    1  A    between atoms: C_2  and  C_16
REMARK    2  A    between atoms: C_3  and  C_10
REMARK    3  A    between atoms: C_19  and  C_23
REMARK    4  A    between atoms: C_23  and  O_24
REMARK                            x       y       z     vdW  Elec       q    Type
REMARK                         _______ _______ _______ _____ _____    ______ ____
ROOT
ATOM      1  O   UNL     1      33.449 -16.826 -21.163  0.00  0.00    -0.453 OA
ATOM      2  C   UNL     1      34.294 -17.743 -21.695  0.00  0.00    +0.145 C 
ATOM      3  C   UNL     1      33.563 -15.710 -21.929  0.00  0.00    +0.147 C 
ATOM      4  C   UNL     1      34.948 -17.234 -22.787  0.00  0.00    +0.041 C 
ATOM      5  C   UNL     1      34.472 -15.910 -22.942  0.00  0.00    +0.041 C 
ENDROOT
BRANCH   3  10
ATOM      6  S   UNL     1      33.883 -12.976 -23.672  0.00  0.00    -0.027 S 
ATOM      7  O   UNL     1      31.243 -12.146 -21.062  0.00  0.00    -0.209 OA
ATOM      8  N   UNL     1      32.318 -11.091 -22.824  0.00  0.00    -0.311 NA
ATOM      9  N   UNL     1      33.692 -10.517 -24.690  0.00  0.00    -0.327 N 
ATOM     10  C   UNL     1      32.819 -14.537 -21.665  0.00  0.00    +0.057 C 
ATOM     11  C   UNL     1      32.875 -13.339 -22.333  0.00  0.00    +0.131 C 
ATOM     12  C   UNL     1      32.050 -12.155 -21.982  0.00  0.00    +0.213 C 
ATOM     13  C   UNL     1      33.216 -11.352 -23.724  0.00  0.00    +0.222 C 
ATOM     14  H   UNL     1      34.379 -10.834 -25.320  0.00  0.00    +0.145 HD
ATOM     15  H   UNL     1      33.349  -9.597 -24.758  0.00  0.00    +0.145 HD
ENDBRANCH   3  10
BRANCH   2  16
ATOM     16  C   UNL     1      34.322 -19.016 -21.018  0.00  0.00    +0.035 C 
ATOM     17  C   UNL     1      33.130 -19.626 -20.629  0.00  0.00    +0.003 C 
ATOM     18  C   UNL     1      35.542 -19.637 -20.751  0.00  0.00    +0.003 C 
ATOM     19  C   UNL     1      34.378 -21.479 -19.709  0.00  0.00    +0.075 C 
ATOM     20  C   UNL     1      33.157 -20.857 -19.975  0.00  0.00    +0.007 C 
ATOM     21  C   UNL     1      35.570 -20.869 -20.096  0.00  0.00    +0.007 C 
BRANCH  19  23
ATOM     22  O   UNL     1      33.935 -23.818 -19.465  0.00  0.00    -0.245 OA
ATOM     23  C   UNL     1      34.406 -22.763 -19.027  0.00  0.00    +0.338 C 
BRANCH  23  24
ATOM     24  O   UNL     1      35.024 -22.696 -17.816  0.00  0.00    -0.477 OA
ATOM     25  H   UNL     1      35.786 -22.162 -17.709  0.00  0.00    +0.295 HD
ENDBRANCH  23  24
ENDBRANCH  19  23
ENDBRANCH   2  16
TORSDOF 4
ENDMDL
MODEL 8
REMARK VINA RESULT:      -9.6      6.853     10.534
REMARK  Name = 5951796
REMARK  4 active torsions:
REMARK  status: ('A' for Active; 'I' for Inactive)
REMARK    1  A    between atoms: C_2  and  C_16
REMARK    2  A    between atoms: C_3  and  C_10
REMARK    3  A    between atoms: C_19  and  C_23
REMARK    4  A    between atoms: C_23  and  O_24
REMARK                            x       y       z     vdW  Elec       q    Type
REMARK                         _______ _______ _______ _____ _____    ______ ____
ROOT
ATOM      1  O   UNL     1      35.425 -22.220 -16.540  0.00  0.00    -0.453 OA
ATOM      2  C   UNL     1      34.594 -22.528 -17.567  0.00  0.00    +0.145 C 
ATOM      3  C   UNL     1      35.138 -23.093 -15.540  0.00  0.00    +0.147 C 
ATOM      4  C   UNL     1      33.779 -23.581 -17.242  0.00  0.00    +0.041 C 
ATOM      5  C   UNL     1      34.132 -23.951 -15.922  0.00  0.00    +0.041 C 
ENDROOT
BRANCH   3  10
ATOM      6  S   UNL     1      37.792 -24.883 -14.936  0.00  0.00    -0.027 S 
ATOM      7  O   UNL     1      37.175 -22.962 -11.711  0.00  0.00    -0.209 OA
ATOM      8  N   UNL     1      38.693 -24.509 -12.534  0.00  0.00    -0.311 NA
ATOM      9  N   UNL     1      39.930 -26.062 -13.859  0.00  0.00    -0.327 N 
ATOM     10  C   UNL     1      35.817 -23.068 -14.301  0.00  0.00    +0.057 C 
ATOM     11  C   UNL     1      36.938 -23.776 -13.943  0.00  0.00    +0.131 C 
ATOM     12  C   UNL     1      37.586 -23.684 -12.609  0.00  0.00    +0.213 C 
ATOM     13  C   UNL     1      38.923 -25.175 -13.624  0.00  0.00    +0.222 C 
ATOM     14  H   UNL     1      40.000 -26.506 -14.735  0.00  0.00    +0.145 HD
ATOM     15  H   UNL     1      40.588 -26.258 -13.154  0.00  0.00    +0.145 HD
ENDBRANCH   3  10
BRANCH   2  16
ATOM     16  C   UNL     1      34.742 -21.705 -18.742  0.00  0.00    +0.035 C 
ATOM     17  C   UNL     1      33.612 -21.262 -19.430  0.00  0.00    +0.003 C 
ATOM     18  C   UNL     1      36.015 -21.353 -19.191  0.00  0.00    +0.003 C 
ATOM     19  C   UNL     1      35.029 -20.112 -21.014  0.00  0.00    +0.075 C 
ATOM     20  C   UNL     1      33.756 -20.466 -20.566  0.00  0.00    +0.007 C 
ATOM     21  C   UNL     1      36.158 -20.556 -20.327  0.00  0.00    +0.007 C 
BRANCH  19  23
ATOM     22  O   UNL     1      34.494 -19.367 -23.225  0.00  0.00    -0.245 OA
ATOM     23  C   UNL     1      35.178 -19.282 -22.199  0.00  0.00    +0.338 C 
BRANCH  23  24
ATOM     24  O   UNL     1      36.176 -18.365 -22.070  0.00  0.00    -0.477 OA
ATOM     25  H   UNL     1      36.132 -17.557 -22.541  0.00  0.00    +0.295 HD
ENDBRANCH  23  24
ENDBRANCH  19  23
ENDBRANCH   2  16
TORSDOF 4
ENDMDL
MODEL 9
REMARK VINA RESULT:      -9.6      2.962      5.064
REMARK  Name = 5951796
REMARK  4 active torsions:
REMARK  status: ('A' for Active; 'I' for Inactive)
REMARK    1  A    between atoms: C_2  and  C_16
REMARK    2  A    between atoms: C_3  and  C_10
REMARK    3  A    between atoms: C_19  and  C_23
REMARK    4  A    between atoms: C_23  and  O_24
REMARK                            x       y       z     vdW  Elec       q    Type
REMARK                         _______ _______ _______ _____ _____    ______ ____
ROOT
ATOM      1  O   UNL     1      34.043 -14.360 -23.527  0.00  0.00    -0.453 OA
ATOM      2  C   UNL     1      34.028 -15.592 -24.093  0.00  0.00    +0.145 C 
ATOM      3  C   UNL     1      33.591 -13.497 -24.475  0.00  0.00    +0.147 C 
ATOM      4  C   UNL     1      33.575 -15.534 -25.386  0.00  0.00    +0.041 C 
ATOM      5  C   UNL     1      33.290 -14.170 -25.636  0.00  0.00    +0.041 C 
ENDROOT
BRANCH   3  10
ATOM      6  S   UNL     1      31.951 -12.272 -21.940  0.00  0.00    -0.027 S 
ATOM      7  O   UNL     1      33.269  -9.223 -23.795  0.00  0.00    -0.209 OA
ATOM      8  N   UNL     1      32.005  -9.680 -21.906  0.00  0.00    -0.311 NA
ATOM      9  N   UNL     1      30.794 -10.701 -20.120  0.00  0.00    -0.327 N 
ATOM     10  C   UNL     1      33.472 -12.109 -24.233  0.00  0.00    +0.057 C 
ATOM     11  C   UNL     1      32.810 -11.491 -23.202  0.00  0.00    +0.131 C 
ATOM     12  C   UNL     1      32.739 -10.017 -23.029  0.00  0.00    +0.213 C 
ATOM     13  C   UNL     1      31.545 -10.706 -21.257  0.00  0.00    +0.222 C 
ATOM     14  H   UNL     1      30.504 -11.553 -19.718  0.00  0.00    +0.145 HD
ATOM     15  H   UNL     1      30.541  -9.847 -19.701  0.00  0.00    +0.145 HD
ENDBRANCH   3  10
BRANCH   2  16
ATOM     16  C   UNL     1      34.478 -16.664 -23.240  0.00  0.00    +0.035 C 
ATOM     17  C   UNL     1      34.667 -16.437 -21.876  0.00  0.00    +0.003 C 
ATOM     18  C   UNL     1      34.724 -17.927 -23.777  0.00  0.00    +0.003 C 
ATOM     19  C   UNL     1      35.347 -18.738 -21.588  0.00  0.00    +0.075 C 
ATOM     20  C   UNL     1      35.102 -17.473 -21.051  0.00  0.00    +0.007 C 
ATOM     21  C   UNL     1      35.158 -18.965 -22.951  0.00  0.00    +0.007 C 
BRANCH  19  23
ATOM     22  O   UNL     1      35.178 -20.863 -20.501  0.00  0.00    -0.245 OA
ATOM     23  C   UNL     1      35.799 -19.818 -20.727  0.00  0.00    +0.338 C 
BRANCH  23  24
ATOM     24  O   UNL     1      37.017 -19.567 -20.172  0.00  0.00    -0.477 OA
ATOM     25  H   UNL     1      37.774 -20.022 -20.482  0.00  0.00    +0.295 HD
ENDBRANCH  23  24
ENDBRANCH  19  23
ENDBRANCH   2  16
TORSDOF 4
ENDMDL
