MODEL 1
REMARK VINA RESULT:      -8.6      0.000      0.000
REMARK  Name = 44129621
REMARK  4 active torsions:
REMARK  status: ('A' for Active; 'I' for Inactive)
REMARK    1  A    between atoms: C_4  and  O_11
REMARK    2  A    between atoms: O_11  and  C_12
REMARK    3  A    between atoms: C_12  and  C_13
REMARK    4  A    between atoms: C_13  and  N_14
REMARK                            x       y       z     vdW  Elec       q    Type
REMARK                         _______ _______ _______ _____ _____    ______ ____
ROOT
ATOM      1  N   UNL     1      32.812 -22.028 -18.845  0.00  0.00    -0.312 N 
ATOM      2  C   UNL     1      34.737 -21.234 -19.644  0.00  0.00    +0.018 C 
ATOM      3  C   UNL     1      33.350 -21.086 -19.694  0.00  0.00    +0.049 C 
ATOM      4  C   UNL     1      34.923 -19.415 -21.234  0.00  0.00    +0.139 C 
ATOM      5  C   UNL     1      35.538 -20.382 -20.430  0.00  0.00    +0.038 C 
ATOM      6  C   UNL     1      32.720 -20.124 -20.491  0.00  0.00    +0.018 C 
ATOM      7  C   UNL     1      33.535 -19.290 -21.262  0.00  0.00    +0.038 C 
ATOM      8  C   UNL     1      35.013 -22.296 -18.740  0.00  0.00    +0.017 C 
ATOM      9  C   UNL     1      33.810 -22.764 -18.264  0.00  0.00    +0.062 C 
ATOM     10  H   UNL     1      31.850 -22.154 -18.680  0.00  0.00    +0.152 HD
ENDROOT
BRANCH   4  11
ATOM     11  O   UNL     1      35.690 -18.586 -21.997  0.00  0.00    -0.474 OA
BRANCH  11  12
ATOM     12  C   UNL     1      35.050 -17.943 -23.097  0.00  0.00    +0.227 C 
BRANCH  12  13
ATOM     13  C   UNL     1      35.307 -16.441 -23.035  0.00  0.00    +0.143 C 
BRANCH  13  14
ATOM     14  N   UNL     1      34.263 -15.714 -22.223  0.00  0.00    -0.281 N 
ATOM     15  C   UNL     1      34.195 -15.700 -20.855  0.00  0.00    +0.066 C 
ATOM     16  C   UNL     1      33.236 -14.967 -22.741  0.00  0.00    +0.066 C 
ATOM     17  C   UNL     1      33.109 -14.933 -20.493  0.00  0.00    +0.017 C 
ATOM     18  C   UNL     1      32.503 -14.469 -21.687  0.00  0.00    +0.017 C 
ENDBRANCH  13  14
ENDBRANCH  12  13
ENDBRANCH  11  12
ENDBRANCH   4  11
TORSDOF 4
ENDMDL
MODEL 2
REMARK VINA RESULT:      -8.5      1.359      1.999
REMARK  Name = 44129621
REMARK  4 active torsions:
REMARK  status: ('A' for Active; 'I' for Inactive)
REMARK    1  A    between atoms: C_4  and  O_11
REMARK    2  A    between atoms: O_11  and  C_12
REMARK    3  A    between atoms: C_12  and  C_13
REMARK    4  A    between atoms: C_13  and  N_14
REMARK                            x       y       z     vdW  Elec       q    Type
REMARK                         _______ _______ _______ _____ _____    ______ ____
ROOT
ATOM      1  N   UNL     1      32.917 -22.002 -19.053  0.00  0.00    -0.312 N 
ATOM      2  C   UNL     1      34.847 -21.115 -19.733  0.00  0.00    +0.018 C 
ATOM      3  C   UNL     1      33.459 -20.998 -19.825  0.00  0.00    +0.049 C 
ATOM      4  C   UNL     1      35.038 -19.200 -21.206  0.00  0.00    +0.139 C 
ATOM      5  C   UNL     1      35.651 -20.197 -20.438  0.00  0.00    +0.038 C 
ATOM      6  C   UNL     1      32.832 -20.007 -20.587  0.00  0.00    +0.018 C 
ATOM      7  C   UNL     1      33.650 -19.108 -21.278  0.00  0.00    +0.038 C 
ATOM      8  C   UNL     1      35.119 -22.221 -18.883  0.00  0.00    +0.017 C 
ATOM      9  C   UNL     1      33.913 -22.746 -18.480  0.00  0.00    +0.062 C 
ATOM     10  H   UNL     1      31.953 -22.161 -18.931  0.00  0.00    +0.152 HD
ENDROOT
BRANCH   4  11
ATOM     11  O   UNL     1      35.810 -18.308 -21.891  0.00  0.00    -0.474 OA
BRANCH  11  12
ATOM     12  C   UNL     1      35.270 -17.783 -23.102  0.00  0.00    +0.227 C 
BRANCH  12  13
ATOM     13  C   UNL     1      35.174 -16.264 -23.005  0.00  0.00    +0.143 C 
BRANCH  13  14
ATOM     14  N   UNL     1      34.316 -15.673 -24.097  0.00  0.00    -0.281 N 
ATOM     15  C   UNL     1      33.675 -14.463 -24.030  0.00  0.00    +0.066 C 
ATOM     16  C   UNL     1      34.056 -16.264 -25.307  0.00  0.00    +0.066 C 
ATOM     17  C   UNL     1      32.996 -14.279 -25.215  0.00  0.00    +0.017 C 
ATOM     18  C   UNL     1      33.237 -15.418 -26.022  0.00  0.00    +0.017 C 
ENDBRANCH  13  14
ENDBRANCH  12  13
ENDBRANCH  11  12
ENDBRANCH   4  11
TORSDOF 4
ENDMDL
MODEL 3
REMARK VINA RESULT:      -8.2      3.387      7.815
REMARK  Name = 44129621
REMARK  4 active torsions:
REMARK  status: ('A' for Active; 'I' for Inactive)
REMARK    1  A    between atoms: C_4  and  O_11
REMARK    2  A    between atoms: O_11  and  C_12
REMARK    3  A    between atoms: C_12  and  C_13
REMARK    4  A    between atoms: C_13  and  N_14
REMARK                            x       y       z     vdW  Elec       q    Type
REMARK                         _______ _______ _______ _____ _____    ______ ____
ROOT
ATOM      1  N   UNL     1      36.492 -19.218 -20.813  0.00  0.00    -0.312 N 
ATOM      2  C   UNL     1      34.392 -19.925 -20.557  0.00  0.00    +0.018 C 
ATOM      3  C   UNL     1      35.719 -20.189 -20.216  0.00  0.00    +0.049 C 
ATOM      4  C   UNL     1      33.741 -21.865 -19.261  0.00  0.00    +0.139 C 
ATOM      5  C   UNL     1      33.384 -20.780 -20.069  0.00  0.00    +0.038 C 
ATOM      6  C   UNL     1      36.092 -21.269 -19.408  0.00  0.00    +0.018 C 
ATOM      7  C   UNL     1      35.075 -22.104 -18.936  0.00  0.00    +0.038 C 
ATOM      8  C   UNL     1      34.393 -18.764 -21.379  0.00  0.00    +0.017 C 
ATOM      9  C   UNL     1      35.698 -18.352 -21.518  0.00  0.00    +0.062 C 
ATOM     10  H   UNL     1      37.471 -19.155 -20.743  0.00  0.00    +0.152 HD
ENDROOT
BRANCH   4  11
ATOM     11  O   UNL     1      32.772 -22.697 -18.785  0.00  0.00    -0.474 OA
BRANCH  11  12
ATOM     12  C   UNL     1      32.872 -23.092 -17.418  0.00  0.00    +0.227 C 
BRANCH  12  13
ATOM     13  C   UNL     1      31.581 -22.744 -16.685  0.00  0.00    +0.143 C 
BRANCH  13  14
ATOM     14  N   UNL     1      31.181 -23.806 -15.691  0.00  0.00    -0.281 N 
ATOM     15  C   UNL     1      31.871 -24.121 -14.551  0.00  0.00    +0.066 C 
ATOM     16  C   UNL     1      30.071 -24.605 -15.792  0.00  0.00    +0.066 C 
ATOM     17  C   UNL     1      31.193 -25.137 -13.913  0.00  0.00    +0.017 C 
ATOM     18  C   UNL     1      30.053 -25.443 -14.698  0.00  0.00    +0.017 C 
ENDBRANCH  13  14
ENDBRANCH  12  13
ENDBRANCH  11  12
ENDBRANCH   4  11
TORSDOF 4
ENDMDL
MODEL 4
REMARK VINA RESULT:      -8.2      2.830      7.108
REMARK  Name = 44129621
REMARK  4 active torsions:
REMARK  status: ('A' for Active; 'I' for Inactive)
REMARK    1  A    between atoms: C_4  and  O_11
REMARK    2  A    between atoms: O_11  and  C_12
REMARK    3  A    between atoms: C_12  and  C_13
REMARK    4  A    between atoms: C_13  and  N_14
REMARK                            x       y       z     vdW  Elec       q    Type
REMARK                         _______ _______ _______ _____ _____    ______ ____
ROOT
ATOM      1  N   UNL     1      34.370 -18.275 -21.815  0.00  0.00    -0.312 N 
ATOM      2  C   UNL     1      35.535 -19.801 -20.679  0.00  0.00    +0.018 C 
ATOM      3  C   UNL     1      34.245 -19.394 -21.023  0.00  0.00    +0.049 C 
ATOM      4  C   UNL     1      34.555 -21.625 -19.421  0.00  0.00    +0.139 C 
ATOM      5  C   UNL     1      35.692 -20.938 -19.863  0.00  0.00    +0.038 C 
ATOM      6  C   UNL     1      33.098 -20.071 -20.590  0.00  0.00    +0.018 C 
ATOM      7  C   UNL     1      33.279 -21.197 -19.781  0.00  0.00    +0.038 C 
ATOM      8  C   UNL     1      36.438 -18.888 -21.290  0.00  0.00    +0.017 C 
ATOM      9  C   UNL     1      35.692 -17.961 -21.982  0.00  0.00    +0.062 C 
ATOM     10  H   UNL     1      33.618 -17.773 -22.204  0.00  0.00    +0.152 HD
ENDROOT
BRANCH   4  11
ATOM     11  O   UNL     1      34.699 -22.727 -18.631  0.00  0.00    -0.474 OA
BRANCH  11  12
ATOM     12  C   UNL     1      33.534 -23.193 -17.953  0.00  0.00    +0.227 C 
BRANCH  12  13
ATOM     13  C   UNL     1      33.858 -23.436 -16.483  0.00  0.00    +0.143 C 
BRANCH  13  14
ATOM     14  N   UNL     1      32.634 -23.348 -15.604  0.00  0.00    -0.281 N 
ATOM     15  C   UNL     1      32.631 -23.471 -14.239  0.00  0.00    +0.066 C 
ATOM     16  C   UNL     1      31.354 -23.135 -16.049  0.00  0.00    +0.066 C 
ATOM     17  C   UNL     1      31.330 -23.334 -13.806  0.00  0.00    +0.017 C 
ATOM     18  C   UNL     1      30.523 -23.122 -14.950  0.00  0.00    +0.017 C 
ENDBRANCH  13  14
ENDBRANCH  12  13
ENDBRANCH  11  12
ENDBRANCH   4  11
TORSDOF 4
ENDMDL
MODEL 5
REMARK VINA RESULT:      -8.0      3.902      5.705
REMARK  Name = 44129621
REMARK  4 active torsions:
REMARK  status: ('A' for Active; 'I' for Inactive)
REMARK    1  A    between atoms: C_4  and  O_11
REMARK    2  A    between atoms: O_11  and  C_12
REMARK    3  A    between atoms: C_12  and  C_13
REMARK    4  A    between atoms: C_13  and  N_14
REMARK                            x       y       z     vdW  Elec       q    Type
REMARK                         _______ _______ _______ _____ _____    ______ ____
ROOT
ATOM      1  N   UNL     1      35.367 -17.852 -20.691  0.00  0.00    -0.312 N 
ATOM      2  C   UNL     1      35.096 -17.039 -22.750  0.00  0.00    +0.018 C 
ATOM      3  C   UNL     1      34.989 -16.729 -21.394  0.00  0.00    +0.049 C 
ATOM      4  C   UNL     1      34.338 -14.794 -23.255  0.00  0.00    +0.139 C 
ATOM      5  C   UNL     1      34.764 -16.051 -23.699  0.00  0.00    +0.038 C 
ATOM      6  C   UNL     1      34.565 -15.477 -20.935  0.00  0.00    +0.018 C 
ATOM      7  C   UNL     1      34.242 -14.513 -21.894  0.00  0.00    +0.038 C 
ATOM      8  C   UNL     1      35.549 -18.384 -22.839  0.00  0.00    +0.017 C 
ATOM      9  C   UNL     1      35.707 -18.857 -21.557  0.00  0.00    +0.062 C 
ATOM     10  H   UNL     1      35.389 -17.922 -19.710  0.00  0.00    +0.152 HD
ENDROOT
BRANCH   4  11
ATOM     11  O   UNL     1      34.015 -13.832 -24.167  0.00  0.00    -0.474 OA
BRANCH  11  12
ATOM     12  C   UNL     1      33.615 -12.563 -23.653  0.00  0.00    +0.227 C 
BRANCH  12  13
ATOM     13  C   UNL     1      33.953 -11.471 -24.662  0.00  0.00    +0.143 C 
BRANCH  13  14
ATOM     14  N   UNL     1      33.944 -10.095 -24.042  0.00  0.00    -0.281 N 
ATOM     15  C   UNL     1      32.956  -9.600 -23.231  0.00  0.00    +0.066 C 
ATOM     16  C   UNL     1      34.922  -9.148 -24.205  0.00  0.00    +0.066 C 
ATOM     17  C   UNL     1      33.309  -8.317 -22.871  0.00  0.00    +0.017 C 
ATOM     18  C   UNL     1      34.552  -8.031 -23.487  0.00  0.00    +0.017 C 
ENDBRANCH  13  14
ENDBRANCH  12  13
ENDBRANCH  11  12
ENDBRANCH   4  11
TORSDOF 4
ENDMDL
MODEL 6
REMARK VINA RESULT:      -7.9      1.577      6.578
REMARK  Name = 44129621
REMARK  4 active torsions:
REMARK  status: ('A' for Active; 'I' for Inactive)
REMARK    1  A    between atoms: C_4  and  O_11
REMARK    2  A    between atoms: O_11  and  C_12
REMARK    3  A    between atoms: C_12  and  C_13
REMARK    4  A    between atoms: C_13  and  N_14
REMARK                            x       y       z     vdW  Elec       q    Type
REMARK                         _______ _______ _______ _____ _____    ______ ____
ROOT
ATOM      1  N   UNL     1      32.575 -12.902 -22.958  0.00  0.00    -0.312 N 
ATOM      2  C   UNL     1      33.075 -14.221 -21.230  0.00  0.00    +0.018 C 
ATOM      3  C   UNL     1      33.299 -14.014 -22.592  0.00  0.00    +0.049 C 
ATOM      4  C   UNL     1      34.538 -16.148 -21.349  0.00  0.00    +0.139 C 
ATOM      5  C   UNL     1      33.708 -15.309 -20.597  0.00  0.00    +0.038 C 
ATOM      6  C   UNL     1      34.128 -14.844 -23.357  0.00  0.00    +0.018 C 
ATOM      7  C   UNL     1      34.745 -15.917 -22.707  0.00  0.00    +0.038 C 
ATOM      8  C   UNL     1      32.192 -13.196 -20.791  0.00  0.00    +0.017 C 
ATOM      9  C   UNL     1      31.902 -12.401 -21.875  0.00  0.00    +0.062 C 
ATOM     10  H   UNL     1      32.545 -12.521 -23.865  0.00  0.00    +0.152 HD
ENDROOT
BRANCH   4  11
ATOM     11  O   UNL     1      35.154 -17.203 -20.744  0.00  0.00    -0.474 OA
BRANCH  11  12
ATOM     12  C   UNL     1      35.880 -18.098 -21.584  0.00  0.00    +0.227 C 
BRANCH  12  13
ATOM     13  C   UNL     1      34.963 -19.223 -22.051  0.00  0.00    +0.143 C 
BRANCH  13  14
ATOM     14  N   UNL     1      34.583 -20.157 -20.928  0.00  0.00    -0.281 N 
ATOM     15  C   UNL     1      33.303 -20.410 -20.510  0.00  0.00    +0.066 C 
ATOM     16  C   UNL     1      35.466 -20.881 -20.169  0.00  0.00    +0.066 C 
ATOM     17  C   UNL     1      33.370 -21.309 -19.467  0.00  0.00    +0.017 C 
ATOM     18  C   UNL     1      34.738 -21.607 -19.252  0.00  0.00    +0.017 C 
ENDBRANCH  13  14
ENDBRANCH  12  13
ENDBRANCH  11  12
ENDBRANCH   4  11
TORSDOF 4
ENDMDL
MODEL 7
REMARK VINA RESULT:      -7.8      1.306      2.172
REMARK  Name = 44129621
REMARK  4 active torsions:
REMARK  status: ('A' for Active; 'I' for Inactive)
REMARK    1  A    between atoms: C_4  and  O_11
REMARK    2  A    between atoms: O_11  and  C_12
REMARK    3  A    between atoms: C_12  and  C_13
REMARK    4  A    between atoms: C_13  and  N_14
REMARK                            x       y       z     vdW  Elec       q    Type
REMARK                         _______ _______ _______ _____ _____    ______ ____
ROOT
ATOM      1  N   UNL     1      35.602 -21.744 -18.970  0.00  0.00    -0.312 N 
ATOM      2  C   UNL     1      34.218 -20.599 -20.292  0.00  0.00    +0.018 C 
ATOM      3  C   UNL     1      35.550 -20.726 -19.896  0.00  0.00    +0.049 C 
ATOM      4  C   UNL     1      34.896 -18.800 -21.767  0.00  0.00    +0.139 C 
ATOM      5  C   UNL     1      33.886 -19.617 -21.247  0.00  0.00    +0.038 C 
ATOM      6  C   UNL     1      36.572 -19.918 -20.408  0.00  0.00    +0.018 C 
ATOM      7  C   UNL     1      36.218 -18.951 -21.353  0.00  0.00    +0.038 C 
ATOM      8  C   UNL     1      33.472 -21.573 -19.573  0.00  0.00    +0.017 C 
ATOM      9  C   UNL     1      34.350 -22.262 -18.768  0.00  0.00    +0.062 C 
ATOM     10  H   UNL     1      36.420 -22.054 -18.518  0.00  0.00    +0.152 HD
ENDROOT
BRANCH   4  11
ATOM     11  O   UNL     1      34.583 -17.848 -22.690  0.00  0.00    -0.474 OA
BRANCH  11  12
ATOM     12  C   UNL     1      34.808 -16.489 -22.320  0.00  0.00    +0.227 C 
BRANCH  12  13
ATOM     13  C   UNL     1      33.953 -15.571 -23.187  0.00  0.00    +0.143 C 
BRANCH  13  14
ATOM     14  N   UNL     1      33.202 -14.547 -22.372  0.00  0.00    -0.281 N 
ATOM     15  C   UNL     1      32.585 -13.433 -22.877  0.00  0.00    +0.066 C 
ATOM     16  C   UNL     1      33.032 -14.589 -21.012  0.00  0.00    +0.066 C 
ATOM     17  C   UNL     1      32.014 -12.752 -21.824  0.00  0.00    +0.017 C 
ATOM     18  C   UNL     1      32.297 -13.483 -20.644  0.00  0.00    +0.017 C 
ENDBRANCH  13  14
ENDBRANCH  12  13
ENDBRANCH  11  12
ENDBRANCH   4  11
TORSDOF 4
ENDMDL
MODEL 8
REMARK VINA RESULT:      -7.8      1.434      2.230
REMARK  Name = 44129621
REMARK  4 active torsions:
REMARK  status: ('A' for Active; 'I' for Inactive)
REMARK    1  A    between atoms: C_4  and  O_11
REMARK    2  A    between atoms: O_11  and  C_12
REMARK    3  A    between atoms: C_12  and  C_13
REMARK    4  A    between atoms: C_13  and  N_14
REMARK                            x       y       z     vdW  Elec       q    Type
REMARK                         _______ _______ _______ _____ _____    ______ ____
ROOT
ATOM      1  N   UNL     1      34.968 -23.021 -16.911  0.00  0.00    -0.312 N 
ATOM      2  C   UNL     1      34.019 -22.035 -18.672  0.00  0.00    +0.018 C 
ATOM      3  C   UNL     1      35.229 -22.222 -18.002  0.00  0.00    +0.049 C 
ATOM      4  C   UNL     1      35.201 -20.674 -20.290  0.00  0.00    +0.139 C 
ATOM      5  C   UNL     1      34.006 -21.245 -19.839  0.00  0.00    +0.038 C 
ATOM      6  C   UNL     1      36.432 -21.659 -18.441  0.00  0.00    +0.018 C 
ATOM      7  C   UNL     1      36.395 -20.880 -19.601  0.00  0.00    +0.038 C 
ATOM      8  C   UNL     1      33.024 -22.746 -17.947  0.00  0.00    +0.017 C 
ATOM      9  C   UNL     1      33.637 -23.343 -16.870  0.00  0.00    +0.062 C 
ATOM     10  H   UNL     1      35.640 -23.318 -16.256  0.00  0.00    +0.152 HD
ENDROOT
BRANCH   4  11
ATOM     11  O   UNL     1      35.198 -19.909 -21.419  0.00  0.00    -0.474 OA
BRANCH  11  12
ATOM     12  C   UNL     1      35.997 -18.727 -21.402  0.00  0.00    +0.227 C 
BRANCH  12  13
ATOM     13  C   UNL     1      35.652 -17.856 -22.605  0.00  0.00    +0.143 C 
BRANCH  13  14
ATOM     14  N   UNL     1      35.067 -16.525 -22.201  0.00  0.00    -0.281 N 
ATOM     15  C   UNL     1      34.781 -16.145 -20.915  0.00  0.00    +0.066 C 
ATOM     16  C   UNL     1      34.738 -15.511 -23.063  0.00  0.00    +0.066 C 
ATOM     17  C   UNL     1      34.262 -14.869 -20.957  0.00  0.00    +0.017 C 
ATOM     18  C   UNL     1      34.235 -14.468 -22.316  0.00  0.00    +0.017 C 
ENDBRANCH  13  14
ENDBRANCH  12  13
ENDBRANCH  11  12
ENDBRANCH   4  11
TORSDOF 4
ENDMDL
MODEL 9
REMARK VINA RESULT:      -7.8      1.641      6.660
REMARK  Name = 44129621
REMARK  4 active torsions:
REMARK  status: ('A' for Active; 'I' for Inactive)
REMARK    1  A    between atoms: C_4  and  O_11
REMARK    2  A    between atoms: O_11  and  C_12
REMARK    3  A    between atoms: C_12  and  C_13
REMARK    4  A    between atoms: C_13  and  N_14
REMARK                            x       y       z     vdW  Elec       q    Type
REMARK                         _______ _______ _______ _____ _____    ______ ____
ROOT
ATOM      1  N   UNL     1      31.956 -13.115 -21.946  0.00  0.00    -0.312 N 
ATOM      2  C   UNL     1      33.707 -14.136 -22.877  0.00  0.00    +0.018 C 
ATOM      3  C   UNL     1      32.750 -14.237 -21.866  0.00  0.00    +0.049 C 
ATOM      4  C   UNL     1      34.612 -16.261 -22.143  0.00  0.00    +0.139 C 
ATOM      5  C   UNL     1      34.655 -15.169 -23.018  0.00  0.00    +0.038 C 
ATOM      6  C   UNL     1      32.693 -15.323 -20.985  0.00  0.00    +0.018 C 
ATOM      7  C   UNL     1      33.644 -16.335 -21.143  0.00  0.00    +0.038 C 
ATOM      8  C   UNL     1      33.462 -12.917 -23.566  0.00  0.00    +0.017 C 
ATOM      9  C   UNL     1      32.379 -12.311 -22.971  0.00  0.00    +0.062 C 
ATOM     10  H   UNL     1      31.196 -12.919 -21.353  0.00  0.00    +0.152 HD
ENDROOT
BRANCH   4  11
ATOM     11  O   UNL     1      35.526 -17.264 -22.272  0.00  0.00    -0.474 OA
BRANCH  11  12
ATOM     12  C   UNL     1      35.052 -18.597 -22.099  0.00  0.00    +0.227 C 
BRANCH  12  13
ATOM     13  C   UNL     1      35.878 -19.302 -21.028  0.00  0.00    +0.143 C 
BRANCH  13  14
ATOM     14  N   UNL     1      35.086 -20.358 -20.295  0.00  0.00    -0.281 N 
ATOM     15  C   UNL     1      35.625 -21.362 -19.534  0.00  0.00    +0.066 C 
ATOM     16  C   UNL     1      33.719 -20.460 -20.289  0.00  0.00    +0.066 C 
ATOM     17  C   UNL     1      34.585 -22.118 -19.036  0.00  0.00    +0.017 C 
ATOM     18  C   UNL     1      33.380 -21.546 -19.513  0.00  0.00    +0.017 C 
ENDBRANCH  13  14
ENDBRANCH  12  13
ENDBRANCH  11  12
ENDBRANCH   4  11
TORSDOF 4
ENDMDL
