MODEL 1
REMARK VINA RESULT:      -5.8      0.000      0.000
REMARK  Name = 107984
REMARK  8 active torsions:
REMARK  status: ('A' for Active; 'I' for Inactive)
REMARK    1  A    between atoms: C_1  and  C_2
REMARK    2  A    between atoms: C_1  and  CA_10
REMARK    3  A    between atoms: C_2  and  C_3
REMARK    4  A    between atoms: C_3  and  N_4
REMARK    5  A    between atoms: N_4  and  C_6
REMARK    6  A    between atoms: CA_10  and  N_11
REMARK    7  A    between atoms: CA_10  and  C_16
REMARK    8  A    between atoms: C_16  and  O_17
REMARK                            x       y       z     vdW  Elec       q    Type
REMARK                         _______ _______ _______ _____ _____    ______ ____
ROOT
ATOM      1  C   UNL     1      37.616 -26.059 -14.919  0.00  0.00    -0.009 C 
ENDROOT
BRANCH   1   2
ATOM      2  C   UNL     1      37.126 -26.686 -13.605  0.00  0.00    +0.022 C 
BRANCH   2   3
ATOM      3  C   UNL     1      37.544 -25.876 -12.382  0.00  0.00    +0.113 C 
BRANCH   3   4
ATOM      4  N   UNL     1      36.359 -25.336 -11.713  0.00  0.00    -0.226 NA
BRANCH   4   6
ATOM      5  N   UNL     1      34.867 -23.649 -12.560  0.00  0.00    -0.389 N 
ATOM      6  C   UNL     1      36.033 -24.123 -12.006  0.00  0.00    +0.095 C 
ATOM      7  C   UNL     1      37.081 -23.070 -11.713  0.00  0.00    +0.068 C 
ATOM      8  H   UNL     1      34.137 -24.272 -12.780  0.00  0.00    +0.157 HD
ATOM      9  H   UNL     1      34.762 -22.686 -12.737  0.00  0.00    +0.157 HD
ENDBRANCH   4   6
ENDBRANCH   3   4
ENDBRANCH   2   3
ENDBRANCH   1   2
BRANCH   1  10
ATOM     10  CA  UNL     1      38.707 -25.003 -14.686  0.00  0.00    +0.036 C 
BRANCH  10  11
ATOM     11  N   UNL     1      38.556 -23.915 -15.649  0.00  0.00    +0.389 N 
ATOM     12  H1  UNL     1      39.411 -23.359 -15.673  0.00  0.00    -0.088 HD
ATOM     13  H2  UNL     1      37.772 -23.322 -15.374  0.00  0.00    -0.088 HD
ATOM     14  H3  UNL     1      38.378 -24.304 -16.576  0.00  0.00    -0.088 HD
ENDBRANCH  10  11
BRANCH  10  16
ATOM     15  OXT UNL     1      40.934 -25.734 -14.017  0.00  0.00    -0.253 OA
ATOM     16  C   UNL     1      40.103 -25.559 -14.899  0.00  0.00    +0.293 C 
BRANCH  16  17
ATOM     17  O   UNL     1      40.333 -25.877 -16.200  0.00  0.00    -0.482 OA
ATOM     18  H   UNL     1      40.593 -25.212 -16.807  0.00  0.00    +0.295 HD
ENDBRANCH  16  17
ENDBRANCH  10  16
ENDBRANCH   1  10
TORSDOF 8
ENDMDL
MODEL 2
REMARK VINA RESULT:      -5.7      2.998      4.693
REMARK  Name = 107984
REMARK  8 active torsions:
REMARK  status: ('A' for Active; 'I' for Inactive)
REMARK    1  A    between atoms: C_1  and  C_2
REMARK    2  A    between atoms: C_1  and  CA_10
REMARK    3  A    between atoms: C_2  and  C_3
REMARK    4  A    between atoms: C_3  and  N_4
REMARK    5  A    between atoms: N_4  and  C_6
REMARK    6  A    between atoms: CA_10  and  N_11
REMARK    7  A    between atoms: CA_10  and  C_16
REMARK    8  A    between atoms: C_16  and  O_17
REMARK                            x       y       z     vdW  Elec       q    Type
REMARK                         _______ _______ _______ _____ _____    ______ ____
ROOT
ATOM      1  C   UNL     1      35.570 -23.886 -13.525  0.00  0.00    -0.009 C 
ENDROOT
BRANCH   1   2
ATOM      2  C   UNL     1      36.512 -23.059 -14.412  0.00  0.00    +0.022 C 
BRANCH   2   3
ATOM      3  C   UNL     1      37.576 -23.917 -15.089  0.00  0.00    +0.113 C 
BRANCH   3   4
ATOM      4  N   UNL     1      38.499 -24.449 -14.085  0.00  0.00    -0.226 NA
BRANCH   4   6
ATOM      5  N   UNL     1      38.103 -26.819 -14.215  0.00  0.00    -0.389 N 
ATOM      6  C   UNL     1      38.868 -25.676 -14.234  0.00  0.00    +0.095 C 
ATOM      7  C   UNL     1      40.350 -25.898 -14.447  0.00  0.00    +0.068 C 
ATOM      8  H   UNL     1      37.129 -26.757 -14.081  0.00  0.00    +0.157 HD
ATOM      9  H   UNL     1      38.528 -27.699 -14.335  0.00  0.00    +0.157 HD
ENDBRANCH   4   6
ENDBRANCH   3   4
ENDBRANCH   2   3
ENDBRANCH   1   2
BRANCH   1  10
ATOM     10  CA  UNL     1      35.736 -23.554 -12.034  0.00  0.00    +0.036 C 
BRANCH  10  11
ATOM     11  N   UNL     1      37.006 -22.865 -11.818  0.00  0.00    +0.389 N 
ATOM     12  H1  UNL     1      37.177 -22.772 -10.817  0.00  0.00    -0.088 HD
ATOM     13  H2  UNL     1      36.967 -21.938 -12.244  0.00  0.00    -0.088 HD
ATOM     14  H3  UNL     1      37.761 -23.403 -12.244  0.00  0.00    -0.088 HD
ENDBRANCH  10  11
BRANCH  10  16
ATOM     15  OXT UNL     1      35.310 -24.894 -10.043  0.00  0.00    -0.253 OA
ATOM     16  C   UNL     1      35.784 -24.799 -11.168  0.00  0.00    +0.293 C 
BRANCH  16  17
ATOM     17  O   UNL     1      36.399 -25.836 -11.796  0.00  0.00    -0.482 OA
ATOM     18  H   UNL     1      36.061 -26.158 -12.609  0.00  0.00    +0.295 HD
ENDBRANCH  16  17
ENDBRANCH  10  16
ENDBRANCH   1  10
TORSDOF 8
ENDMDL
MODEL 3
REMARK VINA RESULT:      -5.7      1.568      1.910
REMARK  Name = 107984
REMARK  8 active torsions:
REMARK  status: ('A' for Active; 'I' for Inactive)
REMARK    1  A    between atoms: C_1  and  C_2
REMARK    2  A    between atoms: C_1  and  CA_10
REMARK    3  A    between atoms: C_2  and  C_3
REMARK    4  A    between atoms: C_3  and  N_4
REMARK    5  A    between atoms: N_4  and  C_6
REMARK    6  A    between atoms: CA_10  and  N_11
REMARK    7  A    between atoms: CA_10  and  C_16
REMARK    8  A    between atoms: C_16  and  O_17
REMARK                            x       y       z     vdW  Elec       q    Type
REMARK                         _______ _______ _______ _____ _____    ______ ____
ROOT
ATOM      1  C   UNL     1      38.620 -25.383 -12.895  0.00  0.00    -0.009 C 
ENDROOT
BRANCH   1   2
ATOM      2  C   UNL     1      37.209 -25.973 -12.754  0.00  0.00    +0.022 C 
BRANCH   2   3
ATOM      3  C   UNL     1      36.217 -24.974 -12.170  0.00  0.00    +0.113 C 
BRANCH   3   4
ATOM      4  N   UNL     1      35.941 -23.917 -13.145  0.00  0.00    -0.226 NA
BRANCH   4   6
ATOM      5  N   UNL     1      33.760 -24.809 -13.633  0.00  0.00    -0.389 N 
ATOM      6  C   UNL     1      34.893 -24.070 -13.881  0.00  0.00    +0.095 C 
ATOM      7  C   UNL     1      34.912 -23.348 -15.212  0.00  0.00    +0.068 C 
ATOM      8  H   UNL     1      33.673 -25.308 -12.789  0.00  0.00    +0.157 HD
ATOM      9  H   UNL     1      33.036 -24.839 -14.300  0.00  0.00    +0.157 HD
ENDBRANCH   4   6
ENDBRANCH   3   4
ENDBRANCH   2   3
ENDBRANCH   1   2
BRANCH   1  10
ATOM     10  CA  UNL     1      39.011 -25.156 -14.363  0.00  0.00    +0.036 C 
BRANCH  10  11
ATOM     11  N   UNL     1      37.943 -25.630 -15.239  0.00  0.00    +0.389 N 
ATOM     12  H1  UNL     1      37.761 -24.935 -15.962  0.00  0.00    -0.088 HD
ATOM     13  H2  UNL     1      37.095 -25.782 -14.691  0.00  0.00    -0.088 HD
ATOM     14  H3  UNL     1      38.227 -26.509 -15.675  0.00  0.00    -0.088 HD
ENDBRANCH  10  11
BRANCH  10  16
ATOM     15  OXT UNL     1      40.990 -26.526 -13.977  0.00  0.00    -0.253 OA
ATOM     16  C   UNL     1      40.252 -25.936 -14.756  0.00  0.00    +0.293 C 
BRANCH  16  17
ATOM     17  O   UNL     1      40.452 -25.935 -16.101  0.00  0.00    -0.482 OA
ATOM     18  H   UNL     1      41.323 -25.968 -16.446  0.00  0.00    +0.295 HD
ENDBRANCH  16  17
ENDBRANCH  10  16
ENDBRANCH   1  10
TORSDOF 8
ENDMDL
MODEL 4
REMARK VINA RESULT:      -5.7      3.342      4.226
REMARK  Name = 107984
REMARK  8 active torsions:
REMARK  status: ('A' for Active; 'I' for Inactive)
REMARK    1  A    between atoms: C_1  and  C_2
REMARK    2  A    between atoms: C_1  and  CA_10
REMARK    3  A    between atoms: C_2  and  C_3
REMARK    4  A    between atoms: C_3  and  N_4
REMARK    5  A    between atoms: N_4  and  C_6
REMARK    6  A    between atoms: CA_10  and  N_11
REMARK    7  A    between atoms: CA_10  and  C_16
REMARK    8  A    between atoms: C_16  and  O_17
REMARK                            x       y       z     vdW  Elec       q    Type
REMARK                         _______ _______ _______ _____ _____    ______ ____
ROOT
ATOM      1  C   UNL     1      37.540 -25.998 -12.486  0.00  0.00    -0.009 C 
ENDROOT
BRANCH   1   2
ATOM      2  C   UNL     1      37.218 -26.386 -13.936  0.00  0.00    +0.022 C 
BRANCH   2   3
ATOM      3  C   UNL     1      37.079 -25.170 -14.847  0.00  0.00    +0.113 C 
BRANCH   3   4
ATOM      4  N   UNL     1      35.781 -25.200 -15.523  0.00  0.00    -0.226 NA
BRANCH   4   6
ATOM      5  N   UNL     1      33.792 -24.827 -14.221  0.00  0.00    -0.389 N 
ATOM      6  C   UNL     1      34.851 -24.462 -15.020  0.00  0.00    +0.095 C 
ATOM      7  C   UNL     1      34.921 -22.989 -15.361  0.00  0.00    +0.068 C 
ATOM      8  H   UNL     1      33.677 -25.767 -13.956  0.00  0.00    +0.157 HD
ATOM      9  H   UNL     1      33.149 -24.146 -13.916  0.00  0.00    +0.157 HD
ENDBRANCH   4   6
ENDBRANCH   3   4
ENDBRANCH   2   3
ENDBRANCH   1   2
BRANCH   1  10
ATOM     10  CA  UNL     1      37.093 -24.566 -12.155  0.00  0.00    +0.036 C 
BRANCH  10  11
ATOM     11  N   UNL     1      38.219 -23.808 -11.614  0.00  0.00    +0.389 N 
ATOM     12  H1  UNL     1      37.948 -23.381 -10.728  0.00  0.00    -0.088 HD
ATOM     13  H2  UNL     1      38.487 -23.078 -12.276  0.00  0.00    -0.088 HD
ATOM     14  H3  UNL     1      39.009 -24.436 -11.463  0.00  0.00    -0.088 HD
ENDBRANCH  10  11
BRANCH  10  16
ATOM     15  OXT UNL     1      36.164 -24.108  -9.949  0.00  0.00    -0.253 OA
ATOM     16  C   UNL     1      36.014 -24.531 -11.088  0.00  0.00    +0.293 C 
BRANCH  16  17
ATOM     17  O   UNL     1      34.826 -25.004 -11.547  0.00  0.00    -0.482 OA
ATOM     18  H   UNL     1      34.621 -25.915 -11.465  0.00  0.00    +0.295 HD
ENDBRANCH  16  17
ENDBRANCH  10  16
ENDBRANCH   1  10
TORSDOF 8
ENDMDL
MODEL 5
REMARK VINA RESULT:      -5.5      8.584      9.612
REMARK  Name = 107984
REMARK  8 active torsions:
REMARK  status: ('A' for Active; 'I' for Inactive)
REMARK    1  A    between atoms: C_1  and  C_2
REMARK    2  A    between atoms: C_1  and  CA_10
REMARK    3  A    between atoms: C_2  and  C_3
REMARK    4  A    between atoms: C_3  and  N_4
REMARK    5  A    between atoms: N_4  and  C_6
REMARK    6  A    between atoms: CA_10  and  N_11
REMARK    7  A    between atoms: CA_10  and  C_16
REMARK    8  A    between atoms: C_16  and  O_17
REMARK                            x       y       z     vdW  Elec       q    Type
REMARK                         _______ _______ _______ _____ _____    ______ ____
ROOT
ATOM      1  C   UNL     1      33.324 -20.798 -19.599  0.00  0.00    -0.009 C 
ENDROOT
BRANCH   1   2
ATOM      2  C   UNL     1      33.159 -20.018 -20.912  0.00  0.00    +0.022 C 
BRANCH   2   3
ATOM      3  C   UNL     1      34.498 -19.684 -21.563  0.00  0.00    +0.113 C 
BRANCH   3   4
ATOM      4  N   UNL     1      35.116 -18.548 -20.877  0.00  0.00    -0.226 NA
BRANCH   4   6
ATOM      5  N   UNL     1      35.751 -17.269 -22.814  0.00  0.00    -0.389 N 
ATOM      6  C   UNL     1      35.229 -17.457 -21.555  0.00  0.00    +0.095 C 
ATOM      7  C   UNL     1      34.728 -16.201 -20.872  0.00  0.00    +0.068 C 
ATOM      8  H   UNL     1      36.097 -18.037 -23.323  0.00  0.00    +0.157 HD
ATOM      9  H   UNL     1      35.779 -16.365 -23.205  0.00  0.00    +0.157 HD
ENDBRANCH   4   6
ENDBRANCH   3   4
ENDBRANCH   2   3
ENDBRANCH   1   2
BRANCH   1  10
ATOM     10  CA  UNL     1      34.361 -21.925 -19.720  0.00  0.00    +0.036 C 
BRANCH  10  11
ATOM     11  N   UNL     1      33.722 -23.214 -19.468  0.00  0.00    +0.389 N 
ATOM     12  H1  UNL     1      34.422 -23.955 -19.503  0.00  0.00    -0.088 HD
ATOM     13  H2  UNL     1      33.009 -23.386 -20.179  0.00  0.00    -0.088 HD
ATOM     14  H3  UNL     1      33.285 -23.202 -18.546  0.00  0.00    -0.088 HD
ENDBRANCH  10  11
BRANCH  10  16
ATOM     15  OXT UNL     1      35.596 -22.509 -17.702  0.00  0.00    -0.253 OA
ATOM     16  C   UNL     1      35.471 -21.801 -18.693  0.00  0.00    +0.293 C 
BRANCH  16  17
ATOM     17  O   UNL     1      36.350 -20.814 -19.007  0.00  0.00    -0.482 OA
ATOM     18  H   UNL     1      36.883 -20.888 -19.775  0.00  0.00    +0.295 HD
ENDBRANCH  16  17
ENDBRANCH  10  16
ENDBRANCH   1  10
TORSDOF 8
ENDMDL
MODEL 6
REMARK VINA RESULT:      -5.5      4.188      5.084
REMARK  Name = 107984
REMARK  8 active torsions:
REMARK  status: ('A' for Active; 'I' for Inactive)
REMARK    1  A    between atoms: C_1  and  C_2
REMARK    2  A    between atoms: C_1  and  CA_10
REMARK    3  A    between atoms: C_2  and  C_3
REMARK    4  A    between atoms: C_3  and  N_4
REMARK    5  A    between atoms: N_4  and  C_6
REMARK    6  A    between atoms: CA_10  and  N_11
REMARK    7  A    between atoms: CA_10  and  C_16
REMARK    8  A    between atoms: C_16  and  O_17
REMARK                            x       y       z     vdW  Elec       q    Type
REMARK                         _______ _______ _______ _____ _____    ______ ____
ROOT
ATOM      1  C   UNL     1      35.284 -24.757 -14.587  0.00  0.00    -0.009 C 
ENDROOT
BRANCH   1   2
ATOM      2  C   UNL     1      35.006 -23.338 -15.103  0.00  0.00    +0.022 C 
BRANCH   2   3
ATOM      3  C   UNL     1      34.208 -23.338 -16.403  0.00  0.00    +0.113 C 
BRANCH   3   4
ATOM      4  N   UNL     1      35.050 -22.868 -17.505  0.00  0.00    -0.226 NA
BRANCH   4   6
ATOM      5  N   UNL     1      33.095 -22.391 -18.823  0.00  0.00    -0.389 N 
ATOM      6  C   UNL     1      34.439 -22.390 -18.535  0.00  0.00    +0.095 C 
ATOM      7  C   UNL     1      35.321 -21.744 -19.583  0.00  0.00    +0.068 C 
ATOM      8  H   UNL     1      32.456 -22.793 -18.191  0.00  0.00    +0.157 HD
ATOM      9  H   UNL     1      32.771 -21.991 -19.663  0.00  0.00    +0.157 HD
ENDBRANCH   4   6
ENDBRANCH   3   4
ENDBRANCH   2   3
ENDBRANCH   1   2
BRANCH   1  10
ATOM     10  CA  UNL     1      36.778 -25.111 -14.640  0.00  0.00    +0.036 C 
BRANCH  10  11
ATOM     11  N   UNL     1      37.479 -24.173 -15.513  0.00  0.00    +0.389 N 
ATOM     12  H1  UNL     1      36.867 -23.386 -15.728  0.00  0.00    -0.088 HD
ATOM     13  H2  UNL     1      37.743 -24.645 -16.379  0.00  0.00    -0.088 HD
ATOM     14  H3  UNL     1      38.319 -23.834 -15.043  0.00  0.00    -0.088 HD
ENDBRANCH  10  11
BRANCH  10  16
ATOM     15  OXT UNL     1      36.326 -27.029 -16.075  0.00  0.00    -0.253 OA
ATOM     16  C   UNL     1      37.023 -26.490 -15.225  0.00  0.00    +0.293 C 
BRANCH  16  17
ATOM     17  O   UNL     1      38.141 -27.071 -14.714  0.00  0.00    -0.482 OA
ATOM     18  H   UNL     1      38.944 -26.588 -14.675  0.00  0.00    +0.295 HD
ENDBRANCH  16  17
ENDBRANCH  10  16
ENDBRANCH   1  10
TORSDOF 8
ENDMDL
MODEL 7
REMARK VINA RESULT:      -5.5     12.019     12.871
REMARK  Name = 107984
REMARK  8 active torsions:
REMARK  status: ('A' for Active; 'I' for Inactive)
REMARK    1  A    between atoms: C_1  and  C_2
REMARK    2  A    between atoms: C_1  and  CA_10
REMARK    3  A    between atoms: C_2  and  C_3
REMARK    4  A    between atoms: C_3  and  N_4
REMARK    5  A    between atoms: N_4  and  C_6
REMARK    6  A    between atoms: CA_10  and  N_11
REMARK    7  A    between atoms: CA_10  and  C_16
REMARK    8  A    between atoms: C_16  and  O_17
REMARK                            x       y       z     vdW  Elec       q    Type
REMARK                         _______ _______ _______ _____ _____    ______ ____
ROOT
ATOM      1  C   UNL     1      34.308 -19.045 -22.563  0.00  0.00    -0.009 C 
ENDROOT
BRANCH   1   2
ATOM      2  C   UNL     1      34.583 -18.365 -21.214  0.00  0.00    +0.022 C 
BRANCH   2   3
ATOM      3  C   UNL     1      33.828 -17.049 -21.062  0.00  0.00    +0.113 C 
BRANCH   3   4
ATOM      4  N   UNL     1      34.725 -15.925 -21.341  0.00  0.00    -0.226 NA
BRANCH   4   6
ATOM      5  N   UNL     1      34.478 -13.997 -22.759  0.00  0.00    -0.389 N 
ATOM      6  C   UNL     1      34.168 -14.819 -21.700  0.00  0.00    +0.095 C 
ATOM      7  C   UNL     1      33.019 -14.347 -20.834  0.00  0.00    +0.068 C 
ATOM      8  H   UNL     1      35.214 -14.236 -23.368  0.00  0.00    +0.157 HD
ATOM      9  H   UNL     1      33.965 -13.170 -22.906  0.00  0.00    +0.157 HD
ENDBRANCH   4   6
ENDBRANCH   3   4
ENDBRANCH   2   3
ENDBRANCH   1   2
BRANCH   1  10
ATOM     10  CA  UNL     1      35.368 -18.692 -23.618  0.00  0.00    +0.036 C 
BRANCH  10  11
ATOM     11  N   UNL     1      36.539 -18.110 -22.967  0.00  0.00    +0.389 N 
ATOM     12  H1  UNL     1      37.008 -17.475 -23.614  0.00  0.00    -0.088 HD
ATOM     13  H2  UNL     1      37.183 -18.854 -22.695  0.00  0.00    -0.088 HD
ATOM     14  H3  UNL     1      36.245 -17.594 -22.137  0.00  0.00    -0.088 HD
ENDBRANCH  10  11
BRANCH  10  16
ATOM     15  OXT UNL     1      34.074 -17.855 -25.506  0.00  0.00    -0.253 OA
ATOM     16  C   UNL     1      34.876 -17.649 -24.604  0.00  0.00    +0.293 C 
BRANCH  16  17
ATOM     17  O   UNL     1      35.410 -16.423 -24.360  0.00  0.00    -0.482 OA
ATOM     18  H   UNL     1      34.903 -15.651 -24.520  0.00  0.00    +0.295 HD
ENDBRANCH  16  17
ENDBRANCH  10  16
ENDBRANCH   1  10
TORSDOF 8
ENDMDL
MODEL 8
REMARK VINA RESULT:      -5.5      8.279      9.517
REMARK  Name = 107984
REMARK  8 active torsions:
REMARK  status: ('A' for Active; 'I' for Inactive)
REMARK    1  A    between atoms: C_1  and  C_2
REMARK    2  A    between atoms: C_1  and  CA_10
REMARK    3  A    between atoms: C_2  and  C_3
REMARK    4  A    between atoms: C_3  and  N_4
REMARK    5  A    between atoms: N_4  and  C_6
REMARK    6  A    between atoms: CA_10  and  N_11
REMARK    7  A    between atoms: CA_10  and  C_16
REMARK    8  A    between atoms: C_16  and  O_17
REMARK                            x       y       z     vdW  Elec       q    Type
REMARK                         _______ _______ _______ _____ _____    ______ ____
ROOT
ATOM      1  C   UNL     1      30.832 -22.729 -16.235  0.00  0.00    -0.009 C 
ENDROOT
BRANCH   1   2
ATOM      2  C   UNL     1      31.970 -23.727 -16.496  0.00  0.00    +0.022 C 
BRANCH   2   3
ATOM      3  C   UNL     1      33.139 -23.094 -17.242  0.00  0.00    +0.113 C 
BRANCH   3   4
ATOM      4  N   UNL     1      32.647 -22.362 -18.411  0.00  0.00    -0.226 NA
BRANCH   4   6
ATOM      5  N   UNL     1      34.862 -22.174 -19.334  0.00  0.00    -0.389 N 
ATOM      6  C   UNL     1      33.538 -21.833 -19.178  0.00  0.00    +0.095 C 
ATOM      7  C   UNL     1      33.073 -20.663 -20.020  0.00  0.00    +0.068 C 
ATOM      8  H   UNL     1      35.240 -22.925 -18.821  0.00  0.00    +0.157 HD
ATOM      9  H   UNL     1      35.431 -21.668 -19.958  0.00  0.00    +0.157 HD
ENDBRANCH   4   6
ENDBRANCH   3   4
ENDBRANCH   2   3
ENDBRANCH   1   2
BRANCH   1  10
ATOM     10  CA  UNL     1      29.513 -23.432 -15.881  0.00  0.00    +0.036 C 
BRANCH  10  11
ATOM     11  N   UNL     1      29.719 -24.878 -15.833  0.00  0.00    +0.389 N 
ATOM     12  H1  UNL     1      29.668 -25.261 -16.776  0.00  0.00    -0.088 HD
ATOM     13  H2  UNL     1      28.998 -25.306 -15.251  0.00  0.00    -0.088 HD
ATOM     14  H3  UNL     1      30.638 -25.076 -15.434  0.00  0.00    -0.088 HD
ENDBRANCH  10  11
BRANCH  10  16
ATOM     15  OXT UNL     1      27.812 -24.079 -17.503  0.00  0.00    -0.253 OA
ATOM     16  C   UNL     1      28.436 -23.199 -16.925  0.00  0.00    +0.293 C 
BRANCH  16  17
ATOM     17  O   UNL     1      28.211 -21.875 -17.140  0.00  0.00    -0.482 OA
ATOM     18  H   UNL     1      28.336 -21.512 -17.995  0.00  0.00    +0.295 HD
ENDBRANCH  16  17
ENDBRANCH  10  16
ENDBRANCH   1  10
TORSDOF 8
ENDMDL
MODEL 9
REMARK VINA RESULT:      -5.5     12.326     13.432
REMARK  Name = 107984
REMARK  8 active torsions:
REMARK  status: ('A' for Active; 'I' for Inactive)
REMARK    1  A    between atoms: C_1  and  C_2
REMARK    2  A    between atoms: C_1  and  CA_10
REMARK    3  A    between atoms: C_2  and  C_3
REMARK    4  A    between atoms: C_3  and  N_4
REMARK    5  A    between atoms: N_4  and  C_6
REMARK    6  A    between atoms: CA_10  and  N_11
REMARK    7  A    between atoms: CA_10  and  C_16
REMARK    8  A    between atoms: C_16  and  O_17
REMARK                            x       y       z     vdW  Elec       q    Type
REMARK                         _______ _______ _______ _____ _____    ______ ____
ROOT
ATOM      1  C   UNL     1      34.767 -18.820 -22.648  0.00  0.00    -0.009 C 
ENDROOT
BRANCH   1   2
ATOM      2  C   UNL     1      35.284 -18.656 -24.085  0.00  0.00    +0.022 C 
BRANCH   2   3
ATOM      3  C   UNL     1      34.196 -18.184 -25.044  0.00  0.00    +0.113 C 
BRANCH   3   4
ATOM      4  N   UNL     1      34.597 -16.922 -25.669  0.00  0.00    -0.226 NA
BRANCH   4   6
ATOM      5  N   UNL     1      34.073 -15.207 -24.064  0.00  0.00    -0.389 N 
ATOM      6  C   UNL     1      33.982 -15.860 -25.271  0.00  0.00    +0.095 C 
ATOM      7  C   UNL     1      33.015 -15.247 -26.263  0.00  0.00    +0.068 C 
ATOM      8  H   UNL     1      34.680 -15.545 -23.367  0.00  0.00    +0.157 HD
ATOM      9  H   UNL     1      33.529 -14.403 -23.897  0.00  0.00    +0.157 HD
ENDBRANCH   4   6
ENDBRANCH   3   4
ENDBRANCH   2   3
ENDBRANCH   1   2
BRANCH   1  10
ATOM     10  CA  UNL     1      35.586 -18.001 -21.639  0.00  0.00    +0.036 C 
BRANCH  10  11
ATOM     11  N   UNL     1      36.000 -18.855 -20.528  0.00  0.00    +0.389 N 
ATOM     12  H1  UNL     1      35.327 -19.613 -20.412  0.00  0.00    -0.088 HD
ATOM     13  H2  UNL     1      36.041 -18.302 -19.671  0.00  0.00    -0.088 HD
ATOM     14  H3  UNL     1      36.922 -19.245 -20.725  0.00  0.00    -0.088 HD
ENDBRANCH  10  11
BRANCH  10  16
ATOM     15  OXT UNL     1      35.149 -16.170 -20.091  0.00  0.00    -0.253 OA
ATOM     16  C   UNL     1      34.779 -16.873 -21.022  0.00  0.00    +0.293 C 
BRANCH  16  17
ATOM     17  O   UNL     1      33.582 -16.702 -21.643  0.00  0.00    -0.482 OA
ATOM     18  H   UNL     1      32.948 -17.393 -21.638  0.00  0.00    +0.295 HD
ENDBRANCH  16  17
ENDBRANCH  10  16
ENDBRANCH   1  10
TORSDOF 8
ENDMDL
