MODEL 1
REMARK VINA RESULT:      -8.8      0.000      0.000
REMARK  Name = 448769
REMARK  5 active torsions:
REMARK  status: ('A' for Active; 'I' for Inactive)
REMARK    1  A    between atoms: N_1  and  C_14
REMARK    2  A    between atoms: C_14  and  C_15
REMARK    3  A    between atoms: C_15  and  C_16
REMARK    4  A    between atoms: C_16  and  C_18
REMARK    5  A    between atoms: C_18  and  O_19
REMARK                            x       y       z     vdW  Elec       q    Type
REMARK                         _______ _______ _______ _____ _____    ______ ____
ROOT
ATOM      1  N   UNL     1      35.187 -22.967 -15.693  0.00  0.00    -0.327 N 
ATOM      2  C   UNL     1      33.880 -23.336 -15.477  0.00  0.00    +0.060 A 
ATOM      3  C   UNL     1      35.359 -22.502 -16.974  0.00  0.00    +0.060 A 
ATOM      4  C   UNL     1      33.183 -23.100 -16.663  0.00  0.00    +0.017 A 
ATOM      5  C   UNL     1      34.118 -22.572 -17.609  0.00  0.00    +0.017 A 
ATOM      6  C   UNL     1      33.268 -23.855 -14.331  0.00  0.00    +0.017 C 
ATOM      7  C   UNL     1      36.511 -22.027 -17.613  0.00  0.00    +0.017 C 
ATOM      8  C   UNL     1      31.806 -23.398 -16.706  0.00  0.00    +0.001 C 
ATOM      9  C   UNL     1      34.023 -22.147 -18.951  0.00  0.00    +0.001 C 
ATOM     10  C   UNL     1      31.902 -24.143 -14.399  0.00  0.00    +0.001 C 
ATOM     11  C   UNL     1      36.390 -21.611 -18.942  0.00  0.00    +0.001 C 
ATOM     12  C   UNL     1      31.180 -23.918 -15.568  0.00  0.00    +0.000 C 
ATOM     13  C   UNL     1      35.165 -21.669 -19.603  0.00  0.00    +0.000 C 
ENDROOT
BRANCH   1  14
ATOM     14  C   UNL     1      36.242 -23.059 -14.701  0.00  0.00    +0.107 C 
BRANCH  14  15
ATOM     15  C   UNL     1      37.163 -24.255 -14.956  0.00  0.00    +0.036 C 
BRANCH  15  16
ATOM     16  C   UNL     1      36.478 -25.585 -14.663  0.00  0.00    +0.111 C 
BRANCH  16  18
ATOM     17  O   UNL     1      38.277 -27.198 -14.624  0.00  0.00    -0.250 OA
ATOM     18  C   UNL     1      37.272 -26.762 -15.172  0.00  0.00    +0.314 C 
BRANCH  18  19
ATOM     19  O   UNL     1      36.757 -27.285 -16.313  0.00  0.00    -0.480 OA
ATOM     20  H   UNL     1      36.751 -26.776 -17.100  0.00  0.00    +0.295 HD
ENDBRANCH  18  19
ENDBRANCH  16  18
ENDBRANCH  15  16
ENDBRANCH  14  15
ENDBRANCH   1  14
TORSDOF 5
ENDMDL
MODEL 2
REMARK VINA RESULT:      -8.8      0.168      3.668
REMARK  Name = 448769
REMARK  5 active torsions:
REMARK  status: ('A' for Active; 'I' for Inactive)
REMARK    1  A    between atoms: N_1  and  C_14
REMARK    2  A    between atoms: C_14  and  C_15
REMARK    3  A    between atoms: C_15  and  C_16
REMARK    4  A    between atoms: C_16  and  C_18
REMARK    5  A    between atoms: C_18  and  O_19
REMARK                            x       y       z     vdW  Elec       q    Type
REMARK                         _______ _______ _______ _____ _____    ______ ____
ROOT
ATOM      1  N   UNL     1      35.144 -23.003 -15.640  0.00  0.00    -0.327 N 
ATOM      2  C   UNL     1      35.248 -22.547 -16.934  0.00  0.00    +0.060 A 
ATOM      3  C   UNL     1      33.856 -23.391 -15.362  0.00  0.00    +0.060 A 
ATOM      4  C   UNL     1      33.981 -22.645 -17.510  0.00  0.00    +0.017 A 
ATOM      5  C   UNL     1      33.101 -23.179 -16.516  0.00  0.00    +0.017 A 
ATOM      6  C   UNL     1      36.361 -22.060 -17.630  0.00  0.00    +0.017 C 
ATOM      7  C   UNL     1      33.307 -23.911 -14.183  0.00  0.00    +0.017 C 
ATOM      8  C   UNL     1      33.816 -22.235 -18.848  0.00  0.00    +0.001 C 
ATOM      9  C   UNL     1      31.727 -23.501 -16.493  0.00  0.00    +0.001 C 
ATOM     10  C   UNL     1      36.171 -21.661 -18.955  0.00  0.00    +0.001 C 
ATOM     11  C   UNL     1      31.944 -24.224 -14.185  0.00  0.00    +0.001 C 
ATOM     12  C   UNL     1      34.919 -21.746 -19.558  0.00  0.00    +0.000 C 
ATOM     13  C   UNL     1      31.164 -24.022 -15.322  0.00  0.00    +0.000 C 
ENDROOT
BRANCH   1  14
ATOM     14  C   UNL     1      36.245 -23.064 -14.698  0.00  0.00    +0.107 C 
BRANCH  14  15
ATOM     15  C   UNL     1      37.174 -24.246 -14.980  0.00  0.00    +0.036 C 
BRANCH  15  16
ATOM     16  C   UNL     1      36.538 -25.582 -14.608  0.00  0.00    +0.111 C 
BRANCH  16  18
ATOM     17  O   UNL     1      38.331 -27.201 -14.637  0.00  0.00    -0.250 OA
ATOM     18  C   UNL     1      37.314 -26.756 -15.152  0.00  0.00    +0.314 C 
BRANCH  18  19
ATOM     19  O   UNL     1      36.765 -27.264 -16.284  0.00  0.00    -0.480 OA
ATOM     20  H   UNL     1      36.189 -28.001 -16.235  0.00  0.00    +0.295 HD
ENDBRANCH  18  19
ENDBRANCH  16  18
ENDBRANCH  15  16
ENDBRANCH  14  15
ENDBRANCH   1  14
TORSDOF 5
ENDMDL
MODEL 3
REMARK VINA RESULT:      -8.4      3.598      6.175
REMARK  Name = 448769
REMARK  5 active torsions:
REMARK  status: ('A' for Active; 'I' for Inactive)
REMARK    1  A    between atoms: N_1  and  C_14
REMARK    2  A    between atoms: C_14  and  C_15
REMARK    3  A    between atoms: C_15  and  C_16
REMARK    4  A    between atoms: C_16  and  C_18
REMARK    5  A    between atoms: C_18  and  O_19
REMARK                            x       y       z     vdW  Elec       q    Type
REMARK                         _______ _______ _______ _____ _____    ______ ____
ROOT
ATOM      1  N   UNL     1      33.255 -23.367 -16.451  0.00  0.00    -0.327 N 
ATOM      2  C   UNL     1      34.056 -22.786 -17.405  0.00  0.00    +0.060 A 
ATOM      3  C   UNL     1      33.949 -23.558 -15.280  0.00  0.00    +0.060 A 
ATOM      4  C   UNL     1      35.312 -22.594 -16.830  0.00  0.00    +0.017 A 
ATOM      5  C   UNL     1      35.245 -23.083 -15.486  0.00  0.00    +0.017 A 
ATOM      6  C   UNL     1      33.763 -22.417 -18.723  0.00  0.00    +0.017 C 
ATOM      7  C   UNL     1      33.530 -24.112 -14.065  0.00  0.00    +0.017 C 
ATOM      8  C   UNL     1      36.328 -22.006 -17.610  0.00  0.00    +0.001 C 
ATOM      9  C   UNL     1      36.170 -23.165 -14.424  0.00  0.00    +0.001 C 
ATOM     10  C   UNL     1      34.787 -21.835 -19.476  0.00  0.00    +0.001 C 
ATOM     11  C   UNL     1      34.464 -24.180 -13.027  0.00  0.00    +0.001 C 
ATOM     12  C   UNL     1      36.051 -21.632 -18.930  0.00  0.00    +0.000 C 
ATOM     13  C   UNL     1      35.765 -23.714 -13.202  0.00  0.00    +0.000 C 
ENDROOT
BRANCH   1  14
ATOM     14  C   UNL     1      31.865 -23.732 -16.653  0.00  0.00    +0.107 C 
BRANCH  14  15
ATOM     15  C   UNL     1      30.915 -22.820 -15.873  0.00  0.00    +0.036 C 
BRANCH  15  16
ATOM     16  C   UNL     1      29.544 -23.455 -15.668  0.00  0.00    +0.111 C 
BRANCH  16  18
ATOM     17  O   UNL     1      28.349 -21.915 -17.096  0.00  0.00    -0.250 OA
ATOM     18  C   UNL     1      28.567 -23.069 -16.751  0.00  0.00    +0.314 C 
BRANCH  18  19
ATOM     19  O   UNL     1      27.947 -24.143 -17.301  0.00  0.00    -0.480 OA
ATOM     20  H   UNL     1      27.134 -24.446 -16.947  0.00  0.00    +0.295 HD
ENDBRANCH  18  19
ENDBRANCH  16  18
ENDBRANCH  15  16
ENDBRANCH  14  15
ENDBRANCH   1  14
TORSDOF 5
ENDMDL
MODEL 4
REMARK VINA RESULT:      -8.4      1.891      4.279
REMARK  Name = 448769
REMARK  5 active torsions:
REMARK  status: ('A' for Active; 'I' for Inactive)
REMARK    1  A    between atoms: N_1  and  C_14
REMARK    2  A    between atoms: C_14  and  C_15
REMARK    3  A    between atoms: C_15  and  C_16
REMARK    4  A    between atoms: C_16  and  C_18
REMARK    5  A    between atoms: C_18  and  O_19
REMARK                            x       y       z     vdW  Elec       q    Type
REMARK                         _______ _______ _______ _____ _____    ______ ____
ROOT
ATOM      1  N   UNL     1      35.181 -23.236 -15.054  0.00  0.00    -0.327 N 
ATOM      2  C   UNL     1      35.400 -22.760 -16.326  0.00  0.00    +0.060 A 
ATOM      3  C   UNL     1      33.868 -23.604 -14.890  0.00  0.00    +0.060 A 
ATOM      4  C   UNL     1      34.184 -22.824 -17.007  0.00  0.00    +0.017 A 
ATOM      5  C   UNL     1      33.215 -23.358 -16.099  0.00  0.00    +0.017 A 
ATOM      6  C   UNL     1      36.575 -22.284 -16.920  0.00  0.00    +0.017 C 
ATOM      7  C   UNL     1      33.214 -24.132 -13.770  0.00  0.00    +0.017 C 
ATOM      8  C   UNL     1      34.137 -22.390 -18.347  0.00  0.00    +0.001 C 
ATOM      9  C   UNL     1      31.839 -23.654 -16.194  0.00  0.00    +0.001 C 
ATOM     10  C   UNL     1      36.503 -21.859 -18.249  0.00  0.00    +0.001 C 
ATOM     11  C   UNL     1      31.851 -24.419 -13.890  0.00  0.00    +0.001 C 
ATOM     12  C   UNL     1      35.304 -21.911 -18.954  0.00  0.00    +0.000 C 
ATOM     13  C   UNL     1      31.172 -24.184 -15.083  0.00  0.00    +0.000 C 
ENDROOT
BRANCH   1  14
ATOM     14  C   UNL     1      36.199 -23.333 -14.026  0.00  0.00    +0.107 C 
BRANCH  14  15
ATOM     15  C   UNL     1      36.884 -24.702 -14.026  0.00  0.00    +0.036 C 
BRANCH  15  16
ATOM     16  C   UNL     1      38.230 -24.674 -13.310  0.00  0.00    +0.111 C 
BRANCH  16  18
ATOM     17  O   UNL     1      38.734 -22.995 -11.647  0.00  0.00    -0.250 OA
ATOM     18  C   UNL     1      38.143 -24.023 -11.952  0.00  0.00    +0.314 C 
BRANCH  18  19
ATOM     19  O   UNL     1      37.341 -24.706 -11.097  0.00  0.00    -0.480 OA
ATOM     20  H   UNL     1      37.711 -25.333 -10.507  0.00  0.00    +0.295 HD
ENDBRANCH  18  19
ENDBRANCH  16  18
ENDBRANCH  15  16
ENDBRANCH  14  15
ENDBRANCH   1  14
TORSDOF 5
ENDMDL
MODEL 5
REMARK VINA RESULT:      -8.3     10.895     13.423
REMARK  Name = 448769
REMARK  5 active torsions:
REMARK  status: ('A' for Active; 'I' for Inactive)
REMARK    1  A    between atoms: N_1  and  C_14
REMARK    2  A    between atoms: C_14  and  C_15
REMARK    3  A    between atoms: C_15  and  C_16
REMARK    4  A    between atoms: C_16  and  C_18
REMARK    5  A    between atoms: C_18  and  O_19
REMARK                            x       y       z     vdW  Elec       q    Type
REMARK                         _______ _______ _______ _____ _____    ______ ____
ROOT
ATOM      1  N   UNL     1      33.137 -14.415 -24.225  0.00  0.00    -0.327 N 
ATOM      2  C   UNL     1      33.810 -15.614 -24.199  0.00  0.00    +0.060 A 
ATOM      3  C   UNL     1      32.834 -13.997 -22.951  0.00  0.00    +0.060 A 
ATOM      4  C   UNL     1      33.946 -15.983 -22.860  0.00  0.00    +0.017 A 
ATOM      5  C   UNL     1      33.329 -14.961 -22.071  0.00  0.00    +0.017 A 
ATOM      6  C   UNL     1      34.306 -16.391 -25.252  0.00  0.00    +0.017 C 
ATOM      7  C   UNL     1      32.163 -12.848 -22.516  0.00  0.00    +0.017 C 
ATOM      8  C   UNL     1      34.609 -17.189 -22.557  0.00  0.00    +0.001 C 
ATOM      9  C   UNL     1      33.145 -14.767 -20.686  0.00  0.00    +0.001 C 
ATOM     10  C   UNL     1      34.959 -17.582 -24.926  0.00  0.00    +0.001 C 
ATOM     11  C   UNL     1      31.995 -12.677 -21.139  0.00  0.00    +0.001 C 
ATOM     12  C   UNL     1      35.110 -17.978 -23.599  0.00  0.00    +0.000 C 
ATOM     13  C   UNL     1      32.477 -13.622 -20.235  0.00  0.00    +0.000 C 
ENDROOT
BRANCH   1  14
ATOM     14  C   UNL     1      32.793 -13.691 -25.433  0.00  0.00    +0.107 C 
BRANCH  14  15
ATOM     15  C   UNL     1      33.917 -12.753 -25.879  0.00  0.00    +0.036 C 
BRANCH  15  16
ATOM     16  C   UNL     1      33.778 -11.358 -25.280  0.00  0.00    +0.111 C 
BRANCH  16  18
ATOM     17  O   UNL     1      35.690 -10.397 -26.402  0.00  0.00    -0.250 OA
ATOM     18  C   UNL     1      35.060 -10.568 -25.366  0.00  0.00    +0.314 C 
BRANCH  18  19
ATOM     19  O   UNL     1      35.447 -10.069 -24.165  0.00  0.00    -0.480 OA
ATOM     20  H   UNL     1      35.901  -9.251 -24.122  0.00  0.00    +0.295 HD
ENDBRANCH  18  19
ENDBRANCH  16  18
ENDBRANCH  15  16
ENDBRANCH  14  15
ENDBRANCH   1  14
TORSDOF 5
ENDMDL
MODEL 6
REMARK VINA RESULT:      -8.3      3.527      5.302
REMARK  Name = 448769
REMARK  5 active torsions:
REMARK  status: ('A' for Active; 'I' for Inactive)
REMARK    1  A    between atoms: N_1  and  C_14
REMARK    2  A    between atoms: C_14  and  C_15
REMARK    3  A    between atoms: C_15  and  C_16
REMARK    4  A    between atoms: C_16  and  C_18
REMARK    5  A    between atoms: C_18  and  O_19
REMARK                            x       y       z     vdW  Elec       q    Type
REMARK                         _______ _______ _______ _____ _____    ______ ____
ROOT
ATOM      1  N   UNL     1      33.470 -23.390 -16.039  0.00  0.00    -0.327 N 
ATOM      2  C   UNL     1      34.270 -23.537 -14.930  0.00  0.00    +0.060 A 
ATOM      3  C   UNL     1      34.175 -22.838 -17.081  0.00  0.00    +0.060 A 
ATOM      4  C   UNL     1      35.537 -23.061 -15.268  0.00  0.00    +0.017 A 
ATOM      5  C   UNL     1      35.477 -22.619 -16.628  0.00  0.00    +0.017 A 
ATOM      6  C   UNL     1      33.968 -24.052 -13.664  0.00  0.00    +0.017 C 
ATOM      7  C   UNL     1      33.761 -22.517 -18.379  0.00  0.00    +0.017 C 
ATOM      8  C   UNL     1      36.554 -23.100 -14.293  0.00  0.00    +0.001 C 
ATOM      9  C   UNL     1      36.414 -22.051 -17.518  0.00  0.00    +0.001 C 
ATOM     10  C   UNL     1      34.993 -24.080 -12.715  0.00  0.00    +0.001 C 
ATOM     11  C   UNL     1      34.708 -21.957 -19.242  0.00  0.00    +0.001 C 
ATOM     12  C   UNL     1      36.268 -23.612 -13.023  0.00  0.00    +0.000 C 
ATOM     13  C   UNL     1      36.015 -21.727 -18.820  0.00  0.00    +0.000 C 
ENDROOT
BRANCH   1  14
ATOM     14  C   UNL     1      32.071 -23.767 -16.100  0.00  0.00    +0.107 C 
BRANCH  14  15
ATOM     15  C   UNL     1      31.179 -22.780 -15.344  0.00  0.00    +0.036 C 
BRANCH  15  16
ATOM     16  C   UNL     1      29.758 -23.305 -15.166  0.00  0.00    +0.111 C 
BRANCH  16  18
ATOM     17  O   UNL     1      27.763 -21.959 -15.384  0.00  0.00    -0.250 OA
ATOM     18  C   UNL     1      28.743 -22.472 -15.909  0.00  0.00    +0.314 C 
BRANCH  18  19
ATOM     19  O   UNL     1      29.030 -22.357 -17.230  0.00  0.00    -0.480 OA
ATOM     20  H   UNL     1      28.459 -21.872 -17.792  0.00  0.00    +0.295 HD
ENDBRANCH  18  19
ENDBRANCH  16  18
ENDBRANCH  15  16
ENDBRANCH  14  15
ENDBRANCH   1  14
TORSDOF 5
ENDMDL
MODEL 7
REMARK VINA RESULT:      -8.3     10.920     13.220
REMARK  Name = 448769
REMARK  5 active torsions:
REMARK  status: ('A' for Active; 'I' for Inactive)
REMARK    1  A    between atoms: N_1  and  C_14
REMARK    2  A    between atoms: C_14  and  C_15
REMARK    3  A    between atoms: C_15  and  C_16
REMARK    4  A    between atoms: C_16  and  C_18
REMARK    5  A    between atoms: C_18  and  O_19
REMARK                            x       y       z     vdW  Elec       q    Type
REMARK                         _______ _______ _______ _____ _____    ______ ____
ROOT
ATOM      1  N   UNL     1      33.132 -14.423 -24.225  0.00  0.00    -0.327 N 
ATOM      2  C   UNL     1      32.843 -14.023 -22.941  0.00  0.00    +0.060 A 
ATOM      3  C   UNL     1      33.810 -15.618 -24.223  0.00  0.00    +0.060 A 
ATOM      4  C   UNL     1      33.352 -14.996 -22.080  0.00  0.00    +0.017 A 
ATOM      5  C   UNL     1      33.964 -16.004 -22.891  0.00  0.00    +0.017 A 
ATOM      6  C   UNL     1      32.172 -12.883 -22.482  0.00  0.00    +0.017 C 
ATOM      7  C   UNL     1      34.294 -16.380 -25.293  0.00  0.00    +0.017 C 
ATOM      8  C   UNL     1      33.185 -14.821 -20.692  0.00  0.00    +0.001 C 
ATOM      9  C   UNL     1      34.636 -17.213 -22.613  0.00  0.00    +0.001 C 
ATOM     10  C   UNL     1      32.019 -12.733 -21.102  0.00  0.00    +0.001 C 
ATOM     11  C   UNL     1      34.956 -17.574 -24.992  0.00  0.00    +0.001 C 
ATOM     12  C   UNL     1      32.517 -13.686 -20.217  0.00  0.00    +0.000 C 
ATOM     13  C   UNL     1      35.125 -17.986 -23.672  0.00  0.00    +0.000 C 
ENDROOT
BRANCH   1  14
ATOM     14  C   UNL     1      32.772 -13.681 -25.418  0.00  0.00    +0.107 C 
BRANCH  14  15
ATOM     15  C   UNL     1      33.891 -12.739 -25.866  0.00  0.00    +0.036 C 
BRANCH  15  16
ATOM     16  C   UNL     1      33.790 -11.368 -25.206  0.00  0.00    +0.111 C 
BRANCH  16  18
ATOM     17  O   UNL     1      35.663 -10.428 -26.408  0.00  0.00    -0.250 OA
ATOM     18  C   UNL     1      35.060 -10.567 -25.352  0.00  0.00    +0.314 C 
BRANCH  18  19
ATOM     19  O   UNL     1      35.470 -10.021 -24.180  0.00  0.00    -0.480 OA
ATOM     20  H   UNL     1      36.318 -10.226 -23.839  0.00  0.00    +0.295 HD
ENDBRANCH  18  19
ENDBRANCH  16  18
ENDBRANCH  15  16
ENDBRANCH  14  15
ENDBRANCH   1  14
TORSDOF 5
ENDMDL
MODEL 8
REMARK VINA RESULT:      -8.3      9.446     12.224
REMARK  Name = 448769
REMARK  5 active torsions:
REMARK  status: ('A' for Active; 'I' for Inactive)
REMARK    1  A    between atoms: N_1  and  C_14
REMARK    2  A    between atoms: C_14  and  C_15
REMARK    3  A    between atoms: C_15  and  C_16
REMARK    4  A    between atoms: C_16  and  C_18
REMARK    5  A    between atoms: C_18  and  O_19
REMARK                            x       y       z     vdW  Elec       q    Type
REMARK                         _______ _______ _______ _____ _____    ______ ____
ROOT
ATOM      1  N   UNL     1      34.070 -15.155 -22.364  0.00  0.00    -0.327 N 
ATOM      2  C   UNL     1      33.742 -14.934 -23.682  0.00  0.00    +0.060 A 
ATOM      3  C   UNL     1      34.574 -16.421 -22.192  0.00  0.00    +0.060 A 
ATOM      4  C   UNL     1      34.045 -16.101 -24.384  0.00  0.00    +0.017 A 
ATOM      5  C   UNL     1      34.571 -17.041 -23.442  0.00  0.00    +0.017 A 
ATOM      6  C   UNL     1      33.205 -13.798 -24.298  0.00  0.00    +0.017 C 
ATOM      7  C   UNL     1      35.028 -17.059 -21.031  0.00  0.00    +0.017 C 
ATOM      8  C   UNL     1      33.798 -16.136 -25.771  0.00  0.00    +0.001 C 
ATOM      9  C   UNL     1      35.045 -18.367 -23.539  0.00  0.00    +0.001 C 
ATOM     10  C   UNL     1      32.970 -13.858 -25.674  0.00  0.00    +0.001 C 
ATOM     11  C   UNL     1      35.495 -18.371 -21.153  0.00  0.00    +0.001 C 
ATOM     12  C   UNL     1      33.262 -15.008 -26.402  0.00  0.00    +0.000 C 
ATOM     13  C   UNL     1      35.504 -19.017 -22.387  0.00  0.00    +0.000 C 
ENDROOT
BRANCH   1  14
ATOM     14  C   UNL     1      33.905 -14.182 -21.302  0.00  0.00    +0.107 C 
BRANCH  14  15
ATOM     15  C   UNL     1      32.440 -14.026 -20.890  0.00  0.00    +0.036 C 
BRANCH  15  16
ATOM     16  C   UNL     1      32.124 -12.618 -20.398  0.00  0.00    +0.111 C 
BRANCH  16  18
ATOM     17  O   UNL     1      32.222 -11.243 -22.383  0.00  0.00    -0.250 OA
ATOM     18  C   UNL     1      31.554 -11.745 -21.488  0.00  0.00    +0.314 C 
BRANCH  18  19
ATOM     19  O   UNL     1      30.214 -11.568 -21.366  0.00  0.00    -0.480 OA
ATOM     20  H   UNL     1      29.761 -11.915 -20.624  0.00  0.00    +0.295 HD
ENDBRANCH  18  19
ENDBRANCH  16  18
ENDBRANCH  15  16
ENDBRANCH  14  15
ENDBRANCH   1  14
TORSDOF 5
ENDMDL
MODEL 9
REMARK VINA RESULT:      -8.3      9.461     11.995
REMARK  Name = 448769
REMARK  5 active torsions:
REMARK  status: ('A' for Active; 'I' for Inactive)
REMARK    1  A    between atoms: N_1  and  C_14
REMARK    2  A    between atoms: C_14  and  C_15
REMARK    3  A    between atoms: C_15  and  C_16
REMARK    4  A    between atoms: C_16  and  C_18
REMARK    5  A    between atoms: C_18  and  O_19
REMARK                            x       y       z     vdW  Elec       q    Type
REMARK                         _______ _______ _______ _____ _____    ______ ____
ROOT
ATOM      1  N   UNL     1      34.071 -15.136 -22.377  0.00  0.00    -0.327 N 
ATOM      2  C   UNL     1      34.571 -16.404 -22.196  0.00  0.00    +0.060 A 
ATOM      3  C   UNL     1      33.745 -14.923 -23.694  0.00  0.00    +0.060 A 
ATOM      4  C   UNL     1      34.567 -17.032 -23.442  0.00  0.00    +0.017 A 
ATOM      5  C   UNL     1      34.045 -16.095 -24.390  0.00  0.00    +0.017 A 
ATOM      6  C   UNL     1      35.021 -17.037 -21.031  0.00  0.00    +0.017 C 
ATOM      7  C   UNL     1      33.211 -13.789 -24.318  0.00  0.00    +0.017 C 
ATOM      8  C   UNL     1      35.038 -18.357 -23.531  0.00  0.00    +0.001 C 
ATOM      9  C   UNL     1      33.799 -16.137 -25.778  0.00  0.00    +0.001 C 
ATOM     10  C   UNL     1      35.483 -18.351 -21.145  0.00  0.00    +0.001 C 
ATOM     11  C   UNL     1      32.975 -13.856 -25.694  0.00  0.00    +0.001 C 
ATOM     12  C   UNL     1      35.492 -19.004 -22.375  0.00  0.00    +0.000 C 
ATOM     13  C   UNL     1      33.264 -15.011 -26.415  0.00  0.00    +0.000 C 
ENDROOT
BRANCH   1  14
ATOM     14  C   UNL     1      33.912 -14.156 -21.320  0.00  0.00    +0.107 C 
BRANCH  14  15
ATOM     15  C   UNL     1      32.448 -14.001 -20.899  0.00  0.00    +0.036 C 
BRANCH  15  16
ATOM     16  C   UNL     1      32.136 -12.592 -20.406  0.00  0.00    +0.111 C 
BRANCH  16  18
ATOM     17  O   UNL     1      32.211 -11.205 -22.384  0.00  0.00    -0.250 OA
ATOM     18  C   UNL     1      31.551 -11.722 -21.491  0.00  0.00    +0.314 C 
BRANCH  18  19
ATOM     19  O   UNL     1      30.209 -11.568 -21.368  0.00  0.00    -0.480 OA
ATOM     20  H   UNL     1      29.854 -11.138 -20.615  0.00  0.00    +0.295 HD
ENDBRANCH  18  19
ENDBRANCH  16  18
ENDBRANCH  15  16
ENDBRANCH  14  15
ENDBRANCH   1  14
TORSDOF 5
ENDMDL
