MODEL 1
REMARK VINA RESULT:      -6.9      0.000      0.000
REMARK  Name = 447256
REMARK  3 active torsions:
REMARK  status: ('A' for Active; 'I' for Inactive)
REMARK    1  A    between atoms: C_1  and  C_8
REMARK    2  A    between atoms: C_1  and  N_9
REMARK    3  A    between atoms: C_1  and  C_13
REMARK                            x       y       z     vdW  Elec       q    Type
REMARK                         _______ _______ _______ _____ _____    ______ ____
ROOT
ATOM      1  C   UNL     1      35.367 -19.681 -21.012  0.00  0.00    +0.013 C 
ENDROOT
BRANCH   1   8
ATOM      2  O   UNL     1      35.228 -17.337 -20.612  0.00  0.00    -0.277 OA
ATOM      3  N   UNL     1      34.950 -18.055 -22.791  0.00  0.00    -0.281 N 
ATOM      4  C   UNL     1      34.742 -16.731 -23.361  0.00  0.00    +0.093 C 
ATOM      5  C   UNL     1      34.883 -19.086 -23.821  0.00  0.00    +0.093 C 
ATOM      6  C   UNL     1      34.857 -16.943 -24.863  0.00  0.00    +0.023 C 
ATOM      7  C   UNL     1      34.339 -18.365 -25.045  0.00  0.00    +0.023 C 
ATOM      8  C   UNL     1      35.179 -18.248 -21.440  0.00  0.00    +0.205 C 
ENDBRANCH   1   8
BRANCH   1   9
ATOM      9  N   UNL     1      36.647 -19.731 -20.319  0.00  0.00    +0.387 N 
ATOM     10  H   UNL     1      37.248 -20.426 -20.761  0.00  0.00    -0.089 HD
ATOM     11  H   UNL     1      36.496 -19.985 -19.343  0.00  0.00    -0.089 HD
ATOM     12  H   UNL     1      37.095 -18.815 -20.366  0.00  0.00    -0.089 HD
ENDBRANCH   1   9
BRANCH   1  13
ATOM     13  C   UNL     1      34.203 -20.183 -20.138  0.00  0.00    -0.011 C 
ATOM     14  C   UNL     1      32.842 -20.177 -20.842  0.00  0.00    -0.002 C 
ATOM     15  C   UNL     1      34.491 -21.580 -19.578  0.00  0.00    -0.002 C 
ENDBRANCH   1  13
TORSDOF 3
ENDMDL
MODEL 2
REMARK VINA RESULT:      -6.4      1.336      4.675
REMARK  Name = 447256
REMARK  3 active torsions:
REMARK  status: ('A' for Active; 'I' for Inactive)
REMARK    1  A    between atoms: C_1  and  C_8
REMARK    2  A    between atoms: C_1  and  N_9
REMARK    3  A    between atoms: C_1  and  C_13
REMARK                            x       y       z     vdW  Elec       q    Type
REMARK                         _______ _______ _______ _____ _____    ______ ____
ROOT
ATOM      1  C   UNL     1      34.959 -18.230 -21.620  0.00  0.00    +0.013 C 
ENDROOT
BRANCH   1   8
ATOM      2  O   UNL     1      37.069 -19.184 -21.063  0.00  0.00    -0.277 OA
ATOM      3  N   UNL     1      35.182 -20.295 -20.327  0.00  0.00    -0.281 N 
ATOM      4  C   UNL     1      35.892 -21.379 -19.665  0.00  0.00    +0.093 C 
ATOM      5  C   UNL     1      33.738 -20.455 -20.192  0.00  0.00    +0.093 C 
ATOM      6  C   UNL     1      34.830 -22.072 -18.825  0.00  0.00    +0.023 C 
ATOM      7  C   UNL     1      33.561 -21.862 -19.642  0.00  0.00    +0.023 C 
ATOM      8  C   UNL     1      35.843 -19.272 -20.981  0.00  0.00    +0.205 C 
ENDBRANCH   1   8
BRANCH   1   9
ATOM      9  N   UNL     1      35.052 -17.047 -20.775  0.00  0.00    +0.387 N 
ATOM     10  H   UNL     1      35.452 -16.277 -21.310  0.00  0.00    -0.089 HD
ATOM     11  H   UNL     1      35.648 -17.248 -19.973  0.00  0.00    -0.089 HD
ATOM     12  H   UNL     1      34.120 -16.788 -20.450  0.00  0.00    -0.089 HD
ENDBRANCH   1   9
BRANCH   1  13
ATOM     13  C   UNL     1      35.358 -17.945 -23.079  0.00  0.00    -0.011 C 
ATOM     14  C   UNL     1      34.735 -18.905 -24.098  0.00  0.00    -0.002 C 
ATOM     15  C   UNL     1      35.044 -16.498 -23.470  0.00  0.00    -0.002 C 
ENDBRANCH   1  13
TORSDOF 3
ENDMDL
MODEL 3
REMARK VINA RESULT:      -6.3      1.756      2.391
REMARK  Name = 447256
REMARK  3 active torsions:
REMARK  status: ('A' for Active; 'I' for Inactive)
REMARK    1  A    between atoms: C_1  and  C_8
REMARK    2  A    between atoms: C_1  and  N_9
REMARK    3  A    between atoms: C_1  and  C_13
REMARK                            x       y       z     vdW  Elec       q    Type
REMARK                         _______ _______ _______ _____ _____    ______ ____
ROOT
ATOM      1  C   UNL     1      35.061 -18.122 -21.970  0.00  0.00    +0.013 C 
ENDROOT
BRANCH   1   8
ATOM      2  O   UNL     1      35.115 -16.386 -20.339  0.00  0.00    -0.277 OA
ATOM      3  N   UNL     1      34.439 -15.810 -22.472  0.00  0.00    -0.281 N 
ATOM      4  C   UNL     1      34.209 -14.402 -22.184  0.00  0.00    +0.093 C 
ATOM      5  C   UNL     1      34.147 -16.114 -23.869  0.00  0.00    +0.093 C 
ATOM      6  C   UNL     1      34.060 -13.754 -23.552  0.00  0.00    +0.023 C 
ATOM      7  C   UNL     1      33.444 -14.868 -24.389  0.00  0.00    +0.023 C 
ATOM      8  C   UNL     1      34.880 -16.698 -21.508  0.00  0.00    +0.205 C 
ENDBRANCH   1   8
BRANCH   1   9
ATOM      9  N   UNL     1      36.447 -18.232 -22.406  0.00  0.00    +0.387 N 
ATOM     10  H   UNL     1      36.698 -19.216 -22.500  0.00  0.00    -0.089 HD
ATOM     11  H   UNL     1      37.056 -17.790 -21.719  0.00  0.00    -0.089 HD
ATOM     12  H   UNL     1      36.557 -17.765 -23.307  0.00  0.00    -0.089 HD
ENDBRANCH   1   9
BRANCH   1  13
ATOM     13  C   UNL     1      34.708 -19.139 -20.869  0.00  0.00    -0.011 C 
ATOM     14  C   UNL     1      33.323 -19.775 -21.025  0.00  0.00    -0.002 C 
ATOM     15  C   UNL     1      35.773 -20.235 -20.761  0.00  0.00    -0.002 C 
ENDBRANCH   1  13
TORSDOF 3
ENDMDL
MODEL 4
REMARK VINA RESULT:      -6.1      3.235      5.255
REMARK  Name = 447256
REMARK  3 active torsions:
REMARK  status: ('A' for Active; 'I' for Inactive)
REMARK    1  A    between atoms: C_1  and  C_8
REMARK    2  A    between atoms: C_1  and  N_9
REMARK    3  A    between atoms: C_1  and  C_13
REMARK                            x       y       z     vdW  Elec       q    Type
REMARK                         _______ _______ _______ _____ _____    ______ ____
ROOT
ATOM      1  C   UNL     1      33.923 -14.229 -22.896  0.00  0.00    +0.013 C 
ENDROOT
BRANCH   1   8
ATOM      2  O   UNL     1      33.300 -15.102 -25.023  0.00  0.00    -0.277 OA
ATOM      3  N   UNL     1      34.442 -16.514 -23.595  0.00  0.00    -0.281 N 
ATOM      4  C   UNL     1      34.455 -17.660 -24.493  0.00  0.00    +0.093 C 
ATOM      5  C   UNL     1      35.116 -16.826 -22.339  0.00  0.00    +0.093 C 
ATOM      6  C   UNL     1      35.454 -18.621 -23.868  0.00  0.00    +0.023 C 
ATOM      7  C   UNL     1      35.315 -18.334 -22.378  0.00  0.00    +0.023 C 
ATOM      8  C   UNL     1      33.855 -15.312 -23.943  0.00  0.00    +0.205 C 
ENDBRANCH   1   8
BRANCH   1   9
ATOM      9  N   UNL     1      34.200 -12.991 -23.612  0.00  0.00    +0.387 N 
ATOM     10  H   UNL     1      35.173 -12.724 -23.469  0.00  0.00    -0.089 HD
ATOM     11  H   UNL     1      33.590 -12.252 -23.264  0.00  0.00    -0.089 HD
ATOM     12  H   UNL     1      34.029 -13.129 -24.609  0.00  0.00    -0.089 HD
ENDBRANCH   1   9
BRANCH   1  13
ATOM     13  C   UNL     1      32.634 -14.149 -22.059  0.00  0.00    -0.011 C 
ATOM     14  C   UNL     1      32.796 -14.629 -20.612  0.00  0.00    -0.002 C 
ATOM     15  C   UNL     1      32.047 -12.734 -22.073  0.00  0.00    -0.002 C 
ENDBRANCH   1  13
TORSDOF 3
ENDMDL
MODEL 5
REMARK VINA RESULT:      -6.1      1.901      2.748
REMARK  Name = 447256
REMARK  3 active torsions:
REMARK  status: ('A' for Active; 'I' for Inactive)
REMARK    1  A    between atoms: C_1  and  C_8
REMARK    2  A    between atoms: C_1  and  N_9
REMARK    3  A    between atoms: C_1  and  C_13
REMARK                            x       y       z     vdW  Elec       q    Type
REMARK                         _______ _______ _______ _____ _____    ______ ____
ROOT
ATOM      1  C   UNL     1      34.368 -19.410 -20.925  0.00  0.00    +0.013 C 
ENDROOT
BRANCH   1   8
ATOM      2  O   UNL     1      34.837 -19.414 -23.261  0.00  0.00    -0.277 OA
ATOM      3  N   UNL     1      34.575 -17.358 -22.241  0.00  0.00    -0.281 N 
ATOM      4  C   UNL     1      34.798 -16.564 -23.440  0.00  0.00    +0.093 C 
ATOM      5  C   UNL     1      34.314 -16.503 -21.087  0.00  0.00    +0.093 C 
ATOM      6  C   UNL     1      34.350 -15.162 -23.056  0.00  0.00    +0.023 C 
ATOM      7  C   UNL     1      34.663 -15.102 -21.566  0.00  0.00    +0.023 C 
ATOM      8  C   UNL     1      34.614 -18.740 -22.254  0.00  0.00    +0.205 C 
ENDBRANCH   1   8
BRANCH   1   9
ATOM      9  N   UNL     1      33.016 -19.950 -20.989  0.00  0.00    +0.387 N 
ATOM     10  H   UNL     1      33.041 -20.884 -21.396  0.00  0.00    -0.089 HD
ATOM     11  H   UNL     1      32.434 -19.343 -21.566  0.00  0.00    -0.089 HD
ATOM     12  H   UNL     1      32.626 -19.999 -20.047  0.00  0.00    -0.089 HD
ENDBRANCH   1   9
BRANCH   1  13
ATOM     13  C   UNL     1      35.420 -20.490 -20.616  0.00  0.00    -0.011 C 
ATOM     14  C   UNL     1      36.807 -19.934 -20.275  0.00  0.00    -0.002 C 
ATOM     15  C   UNL     1      34.946 -21.425 -19.498  0.00  0.00    -0.002 C 
ENDBRANCH   1  13
TORSDOF 3
ENDMDL
MODEL 6
REMARK VINA RESULT:      -6.0      9.014     11.118
REMARK  Name = 447256
REMARK  3 active torsions:
REMARK  status: ('A' for Active; 'I' for Inactive)
REMARK    1  A    between atoms: C_1  and  C_8
REMARK    2  A    between atoms: C_1  and  N_9
REMARK    3  A    between atoms: C_1  and  C_13
REMARK                            x       y       z     vdW  Elec       q    Type
REMARK                         _______ _______ _______ _____ _____    ______ ____
ROOT
ATOM      1  C   UNL     1      32.748  -8.013 -22.935  0.00  0.00    +0.013 C 
ENDROOT
BRANCH   1   8
ATOM      2  O   UNL     1      33.030  -7.265 -20.692  0.00  0.00    -0.277 OA
ATOM      3  N   UNL     1      32.117  -9.366 -20.997  0.00  0.00    -0.281 N 
ATOM      4  C   UNL     1      31.961  -9.670 -19.582  0.00  0.00    +0.093 C 
ATOM      5  C   UNL     1      31.645 -10.470 -21.826  0.00  0.00    +0.093 C 
ATOM      6  C   UNL     1      31.067 -10.901 -19.555  0.00  0.00    +0.023 C 
ATOM      7  C   UNL     1      31.436 -11.617 -20.849  0.00  0.00    +0.023 C 
ATOM      8  C   UNL     1      32.648  -8.167 -21.438  0.00  0.00    +0.205 C 
ENDBRANCH   1   8
BRANCH   1   9
ATOM      9  N   UNL     1      32.087  -6.755 -23.257  0.00  0.00    +0.387 N 
ATOM     10  H   UNL     1      31.413  -6.906 -24.006  0.00  0.00    -0.089 HD
ATOM     11  H   UNL     1      32.783  -6.073 -23.557  0.00  0.00    -0.089 HD
ATOM     12  H   UNL     1      31.604  -6.404 -22.429  0.00  0.00    -0.089 HD
ENDBRANCH   1   9
BRANCH   1  13
ATOM     13  C   UNL     1      34.205  -8.056 -23.428  0.00  0.00    -0.011 C 
ATOM     14  C   UNL     1      34.607  -9.384 -24.081  0.00  0.00    -0.002 C 
ATOM     15  C   UNL     1      34.504  -6.897 -24.384  0.00  0.00    -0.002 C 
ENDBRANCH   1  13
TORSDOF 3
ENDMDL
MODEL 7
REMARK VINA RESULT:      -5.9      1.749      4.839
REMARK  Name = 447256
REMARK  3 active torsions:
REMARK  status: ('A' for Active; 'I' for Inactive)
REMARK    1  A    between atoms: C_1  and  C_8
REMARK    2  A    between atoms: C_1  and  N_9
REMARK    3  A    between atoms: C_1  and  C_13
REMARK                            x       y       z     vdW  Elec       q    Type
REMARK                         _______ _______ _______ _____ _____    ______ ____
ROOT
ATOM      1  C   UNL     1      34.891 -18.766 -22.032  0.00  0.00    +0.013 C 
ENDROOT
BRANCH   1   8
ATOM      2  O   UNL     1      32.749 -19.498 -21.291  0.00  0.00    -0.277 OA
ATOM      3  N   UNL     1      34.597 -20.489 -20.321  0.00  0.00    -0.281 N 
ATOM      4  C   UNL     1      33.849 -21.369 -19.435  0.00  0.00    +0.093 C 
ATOM      5  C   UNL     1      36.035 -20.674 -20.154  0.00  0.00    +0.093 C 
ATOM      6  C   UNL     1      34.885 -22.358 -18.920  0.00  0.00    +0.023 C 
ATOM      7  C   UNL     1      36.164 -21.530 -18.902  0.00  0.00    +0.023 C 
ATOM      8  C   UNL     1      33.971 -19.612 -21.188  0.00  0.00    +0.205 C 
ENDBRANCH   1   8
BRANCH   1   9
ATOM      9  N   UNL     1      34.912 -19.383 -23.351  0.00  0.00    +0.387 N 
ATOM     10  H   UNL     1      34.280 -18.881 -23.974  0.00  0.00    -0.089 HD
ATOM     11  H   UNL     1      34.614 -20.355 -23.276  0.00  0.00    -0.089 HD
ATOM     12  H   UNL     1      35.860 -19.348 -23.727  0.00  0.00    -0.089 HD
ENDBRANCH   1   9
BRANCH   1  13
ATOM     13  C   UNL     1      34.445 -17.293 -22.078  0.00  0.00    -0.011 C 
ATOM     14  C   UNL     1      34.836 -16.480 -20.839  0.00  0.00    -0.002 C 
ATOM     15  C   UNL     1      34.960 -16.595 -23.341  0.00  0.00    -0.002 C 
ENDBRANCH   1  13
TORSDOF 3
ENDMDL
MODEL 8
REMARK VINA RESULT:      -5.7      2.547      4.212
REMARK  Name = 447256
REMARK  3 active torsions:
REMARK  status: ('A' for Active; 'I' for Inactive)
REMARK    1  A    between atoms: C_1  and  C_8
REMARK    2  A    between atoms: C_1  and  N_9
REMARK    3  A    between atoms: C_1  and  C_13
REMARK                            x       y       z     vdW  Elec       q    Type
REMARK                         _______ _______ _______ _____ _____    ______ ____
ROOT
ATOM      1  C   UNL     1      35.278 -17.185 -23.025  0.00  0.00    +0.013 C 
ENDROOT
BRANCH   1   8
ATOM      2  O   UNL     1      34.311 -17.874 -20.959  0.00  0.00    -0.277 OA
ATOM      3  N   UNL     1      33.748 -15.773 -21.740  0.00  0.00    -0.281 N 
ATOM      4  C   UNL     1      32.865 -15.432 -20.634  0.00  0.00    +0.093 C 
ATOM      5  C   UNL     1      33.820 -14.684 -22.708  0.00  0.00    +0.093 C 
ATOM      6  C   UNL     1      32.627 -13.937 -20.785  0.00  0.00    +0.023 C 
ATOM      7  C   UNL     1      32.707 -13.733 -22.294  0.00  0.00    +0.023 C 
ATOM      8  C   UNL     1      34.407 -16.987 -21.809  0.00  0.00    +0.205 C 
ENDBRANCH   1   8
BRANCH   1   9
ATOM      9  N   UNL     1      36.383 -18.032 -22.597  0.00  0.00    +0.387 N 
ATOM     10  H   UNL     1      37.129 -17.995 -23.290  0.00  0.00    -0.089 HD
ATOM     11  H   UNL     1      36.057 -18.993 -22.499  0.00  0.00    -0.089 HD
ATOM     12  H   UNL     1      36.736 -17.701 -21.698  0.00  0.00    -0.089 HD
ENDBRANCH   1   9
BRANCH   1  13
ATOM     13  C   UNL     1      34.497 -17.787 -24.206  0.00  0.00    -0.011 C 
ATOM     14  C   UNL     1      34.664 -17.022 -25.524  0.00  0.00    -0.002 C 
ATOM     15  C   UNL     1      34.854 -19.263 -24.415  0.00  0.00    -0.002 C 
ENDBRANCH   1  13
TORSDOF 3
ENDMDL
MODEL 9
REMARK VINA RESULT:      -5.7      9.342     11.546
REMARK  Name = 447256
REMARK  3 active torsions:
REMARK  status: ('A' for Active; 'I' for Inactive)
REMARK    1  A    between atoms: C_1  and  C_8
REMARK    2  A    between atoms: C_1  and  N_9
REMARK    3  A    between atoms: C_1  and  C_13
REMARK                            x       y       z     vdW  Elec       q    Type
REMARK                         _______ _______ _______ _____ _____    ______ ____
ROOT
ATOM      1  C   UNL     1      32.492  -7.581 -22.212  0.00  0.00    +0.013 C 
ENDROOT
BRANCH   1   8
ATOM      2  O   UNL     1      32.017  -9.451 -23.609  0.00  0.00    -0.277 OA
ATOM      3  N   UNL     1      31.878  -9.777 -21.326  0.00  0.00    -0.281 N 
ATOM      4  C   UNL     1      31.495 -11.179 -21.396  0.00  0.00    +0.093 C 
ATOM      5  C   UNL     1      31.973  -9.328 -19.941  0.00  0.00    +0.093 C 
ATOM      6  C   UNL     1      31.662 -11.690 -19.972  0.00  0.00    +0.023 C 
ATOM      7  C   UNL     1      31.352 -10.457 -19.132  0.00  0.00    +0.023 C 
ATOM      8  C   UNL     1      32.110  -9.019 -22.459  0.00  0.00    +0.205 C 
ENDBRANCH   1   8
BRANCH   1   9
ATOM      9  N   UNL     1      33.855  -7.435 -22.704  0.00  0.00    +0.387 N 
ATOM     10  H   UNL     1      33.951  -6.539 -23.181  0.00  0.00    -0.089 HD
ATOM     11  H   UNL     1      34.065  -8.191 -23.355  0.00  0.00    -0.089 HD
ATOM     12  H   UNL     1      34.506  -7.473 -21.918  0.00  0.00    -0.089 HD
ENDBRANCH   1   9
BRANCH   1  13
ATOM     13  C   UNL     1      31.515  -6.598 -22.882  0.00  0.00    -0.011 C 
ATOM     14  C   UNL     1      30.883  -5.588 -21.918  0.00  0.00    -0.002 C 
ATOM     15  C   UNL     1      32.182  -5.857 -24.046  0.00  0.00    -0.002 C 
ENDBRANCH   1  13
TORSDOF 3
ENDMDL
