MODEL 1
REMARK VINA RESULT:      -4.7      0.000      0.000
REMARK  Name = 286
REMARK  4 active torsions:
REMARK  status: ('A' for Active; 'I' for Inactive)
REMARK    1  A    between atoms: C_1  and  C_3
REMARK    2  A    between atoms: C_1  and  O_6
REMARK    3  A    between atoms: C_3  and  O_4
REMARK    4  A    between atoms: O_6  and  N_7
REMARK                            x       y       z     vdW  Elec       q    Type
REMARK                         _______ _______ _______ _____ _____    ______ ____
ROOT
ATOM      1  C   UNL     1      26.643 -22.072 -16.063  0.00  0.00    +0.274 C 
ENDROOT
BRANCH   1   3
ATOM      2  O   UNL     1      28.887 -21.989 -16.995  0.00  0.00    -0.247 OA
ATOM      3  C   UNL     1      27.770 -22.485 -16.970  0.00  0.00    +0.347 C 
BRANCH   3   4
ATOM      4  O   UNL     1      27.376 -23.505 -17.772  0.00  0.00    -0.478 OA
ATOM      5  H   UNL     1      27.926 -23.788 -18.476  0.00  0.00    +0.295 HD
ENDBRANCH   3   4
ENDBRANCH   1   3
BRANCH   1   6
ATOM      6  O   UNL     1      25.569 -21.572 -16.835  0.00  0.00    -0.277 OA
BRANCH   6   7
ATOM      7  N   UNL     1      26.123 -20.656 -17.824  0.00  0.00    -0.213 NA
ATOM      8  H   UNL     1      25.846 -20.956 -18.758  0.00  0.00    +0.150 HD
ATOM      9  H   UNL     1      27.140 -20.654 -17.755  0.00  0.00    +0.150 HD
ENDBRANCH   6   7
ENDBRANCH   1   6
TORSDOF 4
ENDMDL
MODEL 2
REMARK VINA RESULT:      -4.5     12.488     13.145
REMARK  Name = 286
REMARK  4 active torsions:
REMARK  status: ('A' for Active; 'I' for Inactive)
REMARK    1  A    between atoms: C_1  and  C_3
REMARK    2  A    between atoms: C_1  and  O_6
REMARK    3  A    between atoms: C_3  and  O_4
REMARK    4  A    between atoms: O_6  and  N_7
REMARK                            x       y       z     vdW  Elec       q    Type
REMARK                         _______ _______ _______ _____ _____    ______ ____
ROOT
ATOM      1  C   UNL     1      38.797 -25.759 -14.331  0.00  0.00    +0.274 C 
ENDROOT
BRANCH   1   3
ATOM      2  O   UNL     1      40.985 -24.702 -14.268  0.00  0.00    -0.247 OA
ATOM      3  C   UNL     1      40.159 -25.389 -14.851  0.00  0.00    +0.347 C 
BRANCH   3   4
ATOM      4  O   UNL     1      40.355 -25.932 -16.079  0.00  0.00    -0.478 OA
ATOM      5  H   UNL     1      41.134 -26.421 -16.255  0.00  0.00    +0.295 HD
ENDBRANCH   3   4
ENDBRANCH   1   3
BRANCH   1   6
ATOM      6  O   UNL     1      38.428 -27.032 -14.824  0.00  0.00    -0.277 OA
BRANCH   6   7
ATOM      7  N   UNL     1      37.350 -26.839 -15.784  0.00  0.00    -0.213 NA
ATOM      8  H   UNL     1      37.388 -25.888 -16.151  0.00  0.00    +0.150 HD
ATOM      9  H   UNL     1      36.453 -26.991 -15.324  0.00  0.00    +0.150 HD
ENDBRANCH   6   7
ENDBRANCH   1   6
TORSDOF 4
ENDMDL
MODEL 3
REMARK VINA RESULT:      -4.3     10.579     11.364
REMARK  Name = 286
REMARK  4 active torsions:
REMARK  status: ('A' for Active; 'I' for Inactive)
REMARK    1  A    between atoms: C_1  and  C_3
REMARK    2  A    between atoms: C_1  and  O_6
REMARK    3  A    between atoms: C_3  and  O_4
REMARK    4  A    between atoms: O_6  and  N_7
REMARK                            x       y       z     vdW  Elec       q    Type
REMARK                         _______ _______ _______ _____ _____    ______ ____
ROOT
ATOM      1  C   UNL     1      35.701 -23.860 -12.090  0.00  0.00    +0.274 C 
ENDROOT
BRANCH   1   3
ATOM      2  O   UNL     1      37.924 -24.537 -11.381  0.00  0.00    -0.247 OA
ATOM      3  C   UNL     1      37.073 -23.670 -11.503  0.00  0.00    +0.347 C 
BRANCH   3   4
ATOM      4  O   UNL     1      37.244 -22.379 -11.120  0.00  0.00    -0.478 OA
ATOM      5  H   UNL     1      36.753 -22.036 -10.400  0.00  0.00    +0.295 HD
ENDBRANCH   3   4
ENDBRANCH   1   3
BRANCH   1   6
ATOM      6  O   UNL     1      35.014 -24.871 -11.380  0.00  0.00    -0.277 OA
BRANCH   6   7
ATOM      7  N   UNL     1      35.356 -24.732  -9.970  0.00  0.00    -0.213 NA
ATOM      8  H   UNL     1      36.358 -24.876  -9.848  0.00  0.00    +0.150 HD
ATOM      9  H   UNL     1      34.845 -25.427  -9.426  0.00  0.00    +0.150 HD
ENDBRANCH   6   7
ENDBRANCH   1   6
TORSDOF 4
ENDMDL
MODEL 4
REMARK VINA RESULT:      -4.2     12.099     12.945
REMARK  Name = 286
REMARK  4 active torsions:
REMARK  status: ('A' for Active; 'I' for Inactive)
REMARK    1  A    between atoms: C_1  and  C_3
REMARK    2  A    between atoms: C_1  and  O_6
REMARK    3  A    between atoms: C_3  and  O_4
REMARK    4  A    between atoms: O_6  and  N_7
REMARK                            x       y       z     vdW  Elec       q    Type
REMARK                         _______ _______ _______ _____ _____    ______ ____
ROOT
ATOM      1  C   UNL     1      38.736 -25.688 -14.530  0.00  0.00    +0.274 C 
ENDROOT
BRANCH   1   3
ATOM      2  O   UNL     1      40.946 -24.716 -14.250  0.00  0.00    -0.247 OA
ATOM      3  C   UNL     1      40.161 -25.384 -14.905  0.00  0.00    +0.347 C 
BRANCH   3   4
ATOM      4  O   UNL     1      40.465 -25.964 -16.094  0.00  0.00    -0.478 OA
ATOM      5  H   UNL     1      39.800 -26.405 -16.584  0.00  0.00    +0.295 HD
ENDBRANCH   3   4
ENDBRANCH   1   3
BRANCH   1   6
ATOM      6  O   UNL     1      37.899 -24.621 -14.927  0.00  0.00    -0.277 OA
BRANCH   6   7
ATOM      7  N   UNL     1      38.709 -23.688 -15.701  0.00  0.00    -0.213 NA
ATOM      8  H   UNL     1      39.233 -24.201 -16.410  0.00  0.00    +0.150 HD
ATOM      9  H   UNL     1      39.358 -23.205 -15.081  0.00  0.00    +0.150 HD
ENDBRANCH   6   7
ENDBRANCH   1   6
TORSDOF 4
ENDMDL
MODEL 5
REMARK VINA RESULT:      -4.2     12.317     13.216
REMARK  Name = 286
REMARK  4 active torsions:
REMARK  status: ('A' for Active; 'I' for Inactive)
REMARK    1  A    between atoms: C_1  and  C_3
REMARK    2  A    between atoms: C_1  and  O_6
REMARK    3  A    between atoms: C_3  and  O_4
REMARK    4  A    between atoms: O_6  and  N_7
REMARK                            x       y       z     vdW  Elec       q    Type
REMARK                         _______ _______ _______ _____ _____    ______ ____
ROOT
ATOM      1  C   UNL     1      39.705 -25.344 -13.846  0.00  0.00    +0.274 C 
ENDROOT
BRANCH   1   3
ATOM      2  O   UNL     1      38.253 -27.136 -14.611  0.00  0.00    -0.247 OA
ATOM      3  C   UNL     1      38.553 -25.952 -14.597  0.00  0.00    +0.347 C 
BRANCH   3   4
ATOM      4  O   UNL     1      37.873 -24.989 -15.270  0.00  0.00    -0.478 OA
ATOM      5  H   UNL     1      37.790 -24.131 -14.903  0.00  0.00    +0.295 HD
ENDBRANCH   3   4
ENDBRANCH   1   3
BRANCH   1   6
ATOM      6  O   UNL     1      40.793 -25.139 -14.725  0.00  0.00    -0.277 OA
BRANCH   6   7
ATOM      7  N   UNL     1      40.567 -25.960 -15.908  0.00  0.00    -0.213 NA
ATOM      8  H   UNL     1      40.231 -25.371 -16.670  0.00  0.00    +0.150 HD
ATOM      9  H   UNL     1      39.870 -26.674 -15.699  0.00  0.00    +0.150 HD
ENDBRANCH   6   7
ENDBRANCH   1   6
TORSDOF 4
ENDMDL
MODEL 6
REMARK VINA RESULT:      -4.1     11.364     11.636
REMARK  Name = 286
REMARK  4 active torsions:
REMARK  status: ('A' for Active; 'I' for Inactive)
REMARK    1  A    between atoms: C_1  and  C_3
REMARK    2  A    between atoms: C_1  and  O_6
REMARK    3  A    between atoms: C_3  and  O_4
REMARK    4  A    between atoms: O_6  and  N_7
REMARK                            x       y       z     vdW  Elec       q    Type
REMARK                         _______ _______ _______ _____ _____    ______ ____
ROOT
ATOM      1  C   UNL     1      36.310 -23.405 -11.850  0.00  0.00    +0.274 C 
ENDROOT
BRANCH   1   3
ATOM      2  O   UNL     1      35.241 -24.933 -10.292  0.00  0.00    -0.247 OA
ATOM      3  C   UNL     1      35.999 -24.739 -11.230  0.00  0.00    +0.347 C 
BRANCH   3   4
ATOM      4  O   UNL     1      36.685 -25.722 -11.866  0.00  0.00    -0.478 OA
ATOM      5  H   UNL     1      36.797 -25.690 -12.796  0.00  0.00    +0.295 HD
ENDBRANCH   3   4
ENDBRANCH   1   3
BRANCH   1   6
ATOM      6  O   UNL     1      37.356 -22.778 -11.134  0.00  0.00    -0.277 OA
BRANCH   6   7
ATOM      7  N   UNL     1      38.618 -23.244 -11.693  0.00  0.00    -0.213 NA
ATOM      8  H   UNL     1      38.543 -24.236 -11.920  0.00  0.00    +0.150 HD
ATOM      9  H   UNL     1      39.364 -23.107 -11.012  0.00  0.00    +0.150 HD
ENDBRANCH   6   7
ENDBRANCH   1   6
TORSDOF 4
ENDMDL
MODEL 7
REMARK VINA RESULT:      -4.1     10.564     11.298
REMARK  Name = 286
REMARK  4 active torsions:
REMARK  status: ('A' for Active; 'I' for Inactive)
REMARK    1  A    between atoms: C_1  and  C_3
REMARK    2  A    between atoms: C_1  and  O_6
REMARK    3  A    between atoms: C_3  and  O_4
REMARK    4  A    between atoms: O_6  and  N_7
REMARK                            x       y       z     vdW  Elec       q    Type
REMARK                         _______ _______ _______ _____ _____    ______ ____
ROOT
ATOM      1  C   UNL     1      36.777 -23.869 -11.390  0.00  0.00    +0.274 C 
ENDROOT
BRANCH   1   3
ATOM      2  O   UNL     1      36.969 -26.225 -11.952  0.00  0.00    -0.247 OA
ATOM      3  C   UNL     1      36.389 -25.156 -12.064  0.00  0.00    +0.347 C 
BRANCH   3   4
ATOM      4  O   UNL     1      35.283 -24.969 -12.828  0.00  0.00    -0.478 OA
ATOM      5  H   UNL     1      35.360 -24.579 -13.677  0.00  0.00    +0.295 HD
ENDBRANCH   3   4
ENDBRANCH   1   3
BRANCH   1   6
ATOM      6  O   UNL     1      36.443 -23.929 -10.018  0.00  0.00    -0.277 OA
BRANCH   6   7
ATOM      7  N   UNL     1      35.294 -24.815  -9.880  0.00  0.00    -0.213 NA
ATOM      8  H   UNL     1      34.637 -24.417  -9.209  0.00  0.00    +0.150 HD
ATOM      9  H   UNL     1      35.606 -25.728  -9.550  0.00  0.00    +0.150 HD
ENDBRANCH   6   7
ENDBRANCH   1   6
TORSDOF 4
ENDMDL
MODEL 8
REMARK VINA RESULT:      -4.1     11.882     12.683
REMARK  Name = 286
REMARK  4 active torsions:
REMARK  status: ('A' for Active; 'I' for Inactive)
REMARK    1  A    between atoms: C_1  and  C_3
REMARK    2  A    between atoms: C_1  and  O_6
REMARK    3  A    between atoms: C_3  and  O_4
REMARK    4  A    between atoms: O_6  and  N_7
REMARK                            x       y       z     vdW  Elec       q    Type
REMARK                         _______ _______ _______ _____ _____    ______ ____
ROOT
ATOM      1  C   UNL     1      39.069 -25.705 -13.975  0.00  0.00    +0.274 C 
ENDROOT
BRANCH   1   3
ATOM      2  O   UNL     1      38.421 -23.665 -15.125  0.00  0.00    -0.247 OA
ATOM      3  C   UNL     1      38.251 -24.855 -14.908  0.00  0.00    +0.347 C 
BRANCH   3   4
ATOM      4  O   UNL     1      37.281 -25.602 -15.492  0.00  0.00    -0.478 OA
ATOM      5  H   UNL     1      36.418 -25.618 -15.127  0.00  0.00    +0.295 HD
ENDBRANCH   3   4
ENDBRANCH   1   3
BRANCH   1   6
ATOM      6  O   UNL     1      39.847 -26.621 -14.721  0.00  0.00    -0.277 OA
BRANCH   6   7
ATOM      7  N   UNL     1      40.385 -25.909 -15.872  0.00  0.00    -0.213 NA
ATOM      8  H   UNL     1      40.970 -25.137 -15.552  0.00  0.00    +0.150 HD
ATOM      9  H   UNL     1      39.618 -25.542 -16.436  0.00  0.00    +0.150 HD
ENDBRANCH   6   7
ENDBRANCH   1   6
TORSDOF 4
ENDMDL
MODEL 9
REMARK VINA RESULT:      -4.1      2.135      2.560
REMARK  Name = 286
REMARK  4 active torsions:
REMARK  status: ('A' for Active; 'I' for Inactive)
REMARK    1  A    between atoms: C_1  and  C_3
REMARK    2  A    between atoms: C_1  and  O_6
REMARK    3  A    between atoms: C_3  and  O_4
REMARK    4  A    between atoms: O_6  and  N_7
REMARK                            x       y       z     vdW  Elec       q    Type
REMARK                         _______ _______ _______ _____ _____    ______ ____
ROOT
ATOM      1  C   UNL     1      28.535 -24.120 -16.401  0.00  0.00    +0.274 C 
ENDROOT
BRANCH   1   3
ATOM      2  O   UNL     1      29.962 -22.274 -17.079  0.00  0.00    -0.247 OA
ATOM      3  C   UNL     1      29.061 -22.711 -16.379  0.00  0.00    +0.347 C 
BRANCH   3   4
ATOM      4  O   UNL     1      28.388 -21.974 -15.461  0.00  0.00    -0.478 OA
ATOM      5  H   UNL     1      27.837 -21.268 -15.739  0.00  0.00    +0.295 HD
ENDBRANCH   3   4
ENDBRANCH   1   3
BRANCH   1   6
ATOM      6  O   UNL     1      27.711 -24.304 -17.536  0.00  0.00    -0.277 OA
BRANCH   6   7
ATOM      7  N   UNL     1      27.311 -22.985 -18.010  0.00  0.00    -0.213 NA
ATOM      8  H   UNL     1      28.072 -22.574 -18.550  0.00  0.00    +0.150 HD
ATOM      9  H   UNL     1      27.097 -22.387 -17.213  0.00  0.00    +0.150 HD
ENDBRANCH   6   7
ENDBRANCH   1   6
TORSDOF 4
ENDMDL
