MODEL 1
REMARK VINA RESULT:      -6.9      0.000      0.000
REMARK  Name = 107992
REMARK  0 active torsions:
REMARK  status: ('A' for Active; 'I' for Inactive)
REMARK                            x       y       z     vdW  Elec       q    Type
REMARK                         _______ _______ _______ _____ _____    ______ ____
ROOT
ATOM      1  N   UNL     1      34.328 -23.559 -15.936  0.00  0.00    -0.290 N 
ATOM      2  N   UNL     1      34.589 -24.610 -13.295  0.00  0.00    +0.386 N 
ATOM      3  C   UNL     1      35.660 -23.716 -15.334  0.00  0.00    +0.070 C 
ATOM      4  C   UNL     1      33.211 -23.456 -14.991  0.00  0.00    +0.070 C 
ATOM      5  C   UNL     1      35.644 -24.827 -14.284  0.00  0.00    -0.060 C 
ATOM      6  C   UNL     1      33.284 -24.574 -13.951  0.00  0.00    -0.060 C 
ATOM      7  H   UNL     1      34.751 -23.722 -12.818  0.00  0.00    -0.084 HD
ATOM      8  H   UNL     1      34.603 -25.374 -12.620  0.00  0.00    -0.084 HD
ATOM      9 CL   UNL     1      36.614 -21.347 -19.791  0.00  0.00    -0.046 Cl
ATOM     10  N   UNL     1      35.359 -22.487 -17.823  0.00  0.00    -0.376 NA
ATOM     11  N   UNL     1      32.823 -22.181 -18.982  0.00  0.00    -0.256 NA
ATOM     12  C   UNL     1      34.240 -22.935 -17.186  0.00  0.00    +0.186 C 
ATOM     13  C   UNL     1      32.993 -22.771 -17.782  0.00  0.00    +0.200 C 
ATOM     14  C   UNL     1      35.189 -21.896 -19.023  0.00  0.00    +0.209 C 
ATOM     15  C   UNL     1      33.943 -21.746 -19.592  0.00  0.00    +0.138 C 
ENDROOT
TORSDOF 0
ENDMDL
MODEL 2
REMARK VINA RESULT:      -6.6      2.274      3.620
REMARK  Name = 107992
REMARK  0 active torsions:
REMARK  status: ('A' for Active; 'I' for Inactive)
REMARK                            x       y       z     vdW  Elec       q    Type
REMARK                         _______ _______ _______ _____ _____    ______ ____
ROOT
ATOM      1  N   UNL     1      36.050 -25.019 -14.265  0.00  0.00    -0.290 N 
ATOM      2  N   UNL     1      38.502 -25.969 -13.156  0.00  0.00    +0.386 N 
ATOM      3  C   UNL     1      37.258 -25.087 -15.099  0.00  0.00    +0.070 C 
ATOM      4  C   UNL     1      36.279 -24.944 -12.818  0.00  0.00    +0.070 C 
ATOM      5  C   UNL     1      38.210 -26.162 -14.575  0.00  0.00    -0.060 C 
ATOM      6  C   UNL     1      37.267 -26.023 -12.376  0.00  0.00    -0.060 C 
ATOM      7  H   UNL     1      38.946 -25.060 -13.023  0.00  0.00    -0.084 HD
ATOM      8  H   UNL     1      39.129 -26.710 -12.841  0.00  0.00    -0.084 HD
ATOM      9 CL   UNL     1      33.806 -22.815 -18.149  0.00  0.00    -0.046 Cl
ATOM     10  N   UNL     1      34.907 -23.955 -16.091  0.00  0.00    -0.376 NA
ATOM     11  N   UNL     1      32.595 -23.819 -14.510  0.00  0.00    -0.256 NA
ATOM     12  C   UNL     1      34.901 -24.440 -14.817  0.00  0.00    +0.186 C 
ATOM     13  C   UNL     1      33.741 -24.361 -14.053  0.00  0.00    +0.200 C 
ATOM     14  C   UNL     1      33.760 -23.413 -16.548  0.00  0.00    +0.209 C 
ATOM     15  C   UNL     1      32.624 -23.347 -15.771  0.00  0.00    +0.138 C 
ENDROOT
TORSDOF 0
ENDMDL
MODEL 3
REMARK VINA RESULT:      -6.5      7.896     10.208
REMARK  Name = 107992
REMARK  0 active torsions:
REMARK  status: ('A' for Active; 'I' for Inactive)
REMARK                            x       y       z     vdW  Elec       q    Type
REMARK                         _______ _______ _______ _____ _____    ______ ____
ROOT
ATOM      1  N   UNL     1      34.147 -16.217 -22.628  0.00  0.00    -0.290 N 
ATOM      2  N   UNL     1      35.458 -18.741 -22.391  0.00  0.00    +0.386 N 
ATOM      3  C   UNL     1      35.150 -16.622 -23.623  0.00  0.00    +0.070 C 
ATOM      4  C   UNL     1      34.249 -16.872 -21.319  0.00  0.00    +0.070 C 
ATOM      5  C   UNL     1      35.234 -18.146 -23.707  0.00  0.00    -0.060 C 
ATOM      6  C   UNL     1      34.367 -18.387 -21.486  0.00  0.00    -0.060 C 
ATOM      7  H   UNL     1      36.339 -18.395 -22.009  0.00  0.00    -0.084 HD
ATOM      8  H   UNL     1      35.497 -19.756 -22.486  0.00  0.00    -0.084 HD
ATOM      9 CL   UNL     1      33.986 -11.804 -24.967  0.00  0.00    -0.046 Cl
ATOM     10  N   UNL     1      34.017 -14.072 -23.703  0.00  0.00    -0.376 NA
ATOM     11  N   UNL     1      32.102 -13.287 -21.810  0.00  0.00    -0.256 NA
ATOM     12  C   UNL     1      33.614 -14.926 -22.718  0.00  0.00    +0.186 C 
ATOM     13  C   UNL     1      32.662 -14.512 -21.791  0.00  0.00    +0.200 C 
ATOM     14  C   UNL     1      33.456 -12.847 -23.720  0.00  0.00    +0.209 C 
ATOM     15  C   UNL     1      32.515 -12.461 -22.791  0.00  0.00    +0.138 C 
ENDROOT
TORSDOF 0
ENDMDL
MODEL 4
REMARK VINA RESULT:      -6.3      7.417      9.957
REMARK  Name = 107992
REMARK  0 active torsions:
REMARK  status: ('A' for Active; 'I' for Inactive)
REMARK                            x       y       z     vdW  Elec       q    Type
REMARK                         _______ _______ _______ _____ _____    ______ ____
ROOT
ATOM      1  N   UNL     1      33.487 -15.081 -22.030  0.00  0.00    -0.290 N 
ATOM      2  N   UNL     1      31.804 -12.778 -22.108  0.00  0.00    +0.386 N 
ATOM      3  C   UNL     1      32.876 -14.658 -23.298  0.00  0.00    +0.070 C 
ATOM      4  C   UNL     1      32.804 -14.629 -20.813  0.00  0.00    +0.070 C 
ATOM      5  C   UNL     1      32.593 -13.156 -23.279  0.00  0.00    -0.060 C 
ATOM      6  C   UNL     1      32.520 -13.129 -20.884  0.00  0.00    -0.060 C 
ATOM      7  H   UNL     1      30.910 -13.270 -22.129  0.00  0.00    -0.084 HD
ATOM      8  H   UNL     1      31.645 -11.770 -22.125  0.00  0.00    -0.084 HD
ATOM      9 CL   UNL     1      35.198 -19.083 -24.487  0.00  0.00    -0.046 Cl
ATOM     10  N   UNL     1      34.343 -17.029 -23.146  0.00  0.00    -0.376 NA
ATOM     11  N   UNL     1      35.512 -17.848 -20.732  0.00  0.00    -0.256 NA
ATOM     12  C   UNL     1      34.210 -16.280 -22.015  0.00  0.00    +0.186 C 
ATOM     13  C   UNL     1      34.801 -16.708 -20.829  0.00  0.00    +0.200 C 
ATOM     14  C   UNL     1      35.054 -18.170 -23.048  0.00  0.00    +0.209 C 
ATOM     15  C   UNL     1      35.629 -18.572 -21.862  0.00  0.00    +0.138 C 
ENDROOT
TORSDOF 0
ENDMDL
MODEL 5
REMARK VINA RESULT:      -6.3      9.623     10.941
REMARK  Name = 107992
REMARK  0 active torsions:
REMARK  status: ('A' for Active; 'I' for Inactive)
REMARK                            x       y       z     vdW  Elec       q    Type
REMARK                         _______ _______ _______ _____ _____    ______ ____
ROOT
ATOM      1  N   UNL     1      33.117 -14.290 -22.815  0.00  0.00    -0.290 N 
ATOM      2  N   UNL     1      32.232 -12.227 -21.052  0.00  0.00    +0.386 N 
ATOM      3  C   UNL     1      33.325 -14.420 -21.366  0.00  0.00    +0.070 C 
ATOM      4  C   UNL     1      32.949 -12.920 -23.313  0.00  0.00    +0.070 C 
ATOM      5  C   UNL     1      32.274 -13.617 -20.601  0.00  0.00    -0.060 C 
ATOM      6  C   UNL     1      31.912 -12.170 -22.477  0.00  0.00    -0.060 C 
ATOM      7  H   UNL     1      33.142 -11.793 -20.892  0.00  0.00    -0.084 HD
ATOM      8  H   UNL     1      31.513 -11.728 -20.527  0.00  0.00    -0.084 HD
ATOM      9 CL   UNL     1      35.758 -18.504 -23.312  0.00  0.00    -0.046 Cl
ATOM     10  N   UNL     1      34.377 -16.312 -23.130  0.00  0.00    -0.376 NA
ATOM     11  N   UNL     1      33.987 -16.074 -25.897  0.00  0.00    -0.256 NA
ATOM     12  C   UNL     1      33.668 -15.269 -23.650  0.00  0.00    +0.186 C 
ATOM     13  C   UNL     1      33.489 -15.174 -25.026  0.00  0.00    +0.200 C 
ATOM     14  C   UNL     1      34.875 -17.211 -24.001  0.00  0.00    +0.209 C 
ATOM     15  C   UNL     1      34.683 -17.095 -25.360  0.00  0.00    +0.138 C 
ENDROOT
TORSDOF 0
ENDMDL
MODEL 6
REMARK VINA RESULT:      -6.3      2.847      3.805
REMARK  Name = 107992
REMARK  0 active torsions:
REMARK  status: ('A' for Active; 'I' for Inactive)
REMARK                            x       y       z     vdW  Elec       q    Type
REMARK                         _______ _______ _______ _____ _____    ______ ____
ROOT
ATOM      1  N   UNL     1      31.228 -23.357 -16.184  0.00  0.00    -0.290 N 
ATOM      2  N   UNL     1      28.848 -24.191 -14.848  0.00  0.00    +0.386 N 
ATOM      3  C   UNL     1      29.918 -22.883 -16.650  0.00  0.00    +0.070 C 
ATOM      4  C   UNL     1      31.217 -24.607 -15.416  0.00  0.00    +0.070 C 
ATOM      5  C   UNL     1      28.909 -22.884 -15.501  0.00  0.00    -0.060 C 
ATOM      6  C   UNL     1      30.160 -24.548 -14.313  0.00  0.00    -0.060 C 
ATOM      7  H   UNL     1      28.557 -24.895 -15.527  0.00  0.00    -0.084 HD
ATOM      8  H   UNL     1      28.175 -24.149 -14.082  0.00  0.00    -0.084 HD
ATOM      9 CL   UNL     1      33.190 -21.038 -20.153  0.00  0.00    -0.046 Cl
ATOM     10  N   UNL     1      32.241 -22.265 -18.070  0.00  0.00    -0.376 NA
ATOM     11  N   UNL     1      34.748 -23.164 -17.190  0.00  0.00    -0.256 NA
ATOM     12  C   UNL     1      32.358 -23.016 -16.937  0.00  0.00    +0.186 C 
ATOM     13  C   UNL     1      33.613 -23.449 -16.522  0.00  0.00    +0.200 C 
ATOM     14  C   UNL     1      33.376 -21.980 -18.738  0.00  0.00    +0.209 C 
ATOM     15  C   UNL     1      34.608 -22.422 -18.306  0.00  0.00    +0.138 C 
ENDROOT
TORSDOF 0
ENDMDL
MODEL 7
REMARK VINA RESULT:      -6.3      7.747     10.000
REMARK  Name = 107992
REMARK  0 active torsions:
REMARK  status: ('A' for Active; 'I' for Inactive)
REMARK                            x       y       z     vdW  Elec       q    Type
REMARK                         _______ _______ _______ _____ _____    ______ ____
ROOT
ATOM      1  N   UNL     1      34.563 -17.117 -23.373  0.00  0.00    -0.290 N 
ATOM      2  N   UNL     1      35.234 -19.286 -21.644  0.00  0.00    +0.386 N 
ATOM      3  C   UNL     1      34.728 -16.886 -21.931  0.00  0.00    +0.070 C 
ATOM      4  C   UNL     1      34.242 -18.494 -23.764  0.00  0.00    +0.070 C 
ATOM      5  C   UNL     1      35.669 -17.927 -21.327  0.00  0.00    -0.060 C 
ATOM      6  C   UNL     1      35.199 -19.479 -23.092  0.00  0.00    -0.060 C 
ATOM      7  H   UNL     1      34.300 -19.440 -21.260  0.00  0.00    -0.084 HD
ATOM      8  H   UNL     1      35.891 -19.951 -21.234  0.00  0.00    -0.084 HD
ATOM      9 CL   UNL     1      33.110 -12.347 -23.712  0.00  0.00    -0.046 Cl
ATOM     10  N   UNL     1      33.856 -14.833 -23.612  0.00  0.00    -0.376 NA
ATOM     11  N   UNL     1      33.537 -15.263 -26.365  0.00  0.00    -0.256 NA
ATOM     12  C   UNL     1      34.123 -16.050 -24.166  0.00  0.00    +0.186 C 
ATOM     13  C   UNL     1      33.957 -16.238 -25.535  0.00  0.00    +0.200 C 
ATOM     14  C   UNL     1      33.436 -13.859 -24.443  0.00  0.00    +0.209 C 
ATOM     15  C   UNL     1      33.279 -14.070 -25.795  0.00  0.00    +0.138 C 
ENDROOT
TORSDOF 0
ENDMDL
MODEL 8
REMARK VINA RESULT:      -6.3      8.340     10.910
REMARK  Name = 107992
REMARK  0 active torsions:
REMARK  status: ('A' for Active; 'I' for Inactive)
REMARK                            x       y       z     vdW  Elec       q    Type
REMARK                         _______ _______ _______ _____ _____    ______ ____
ROOT
ATOM      1  N   UNL     1      33.993 -15.627 -24.415  0.00  0.00    -0.290 N 
ATOM      2  N   UNL     1      33.349 -12.926 -25.078  0.00  0.00    +0.386 N 
ATOM      3  C   UNL     1      34.310 -14.542 -23.475  0.00  0.00    +0.070 C 
ATOM      4  C   UNL     1      33.850 -15.230 -25.820  0.00  0.00    +0.070 C 
ATOM      5  C   UNL     1      33.362 -13.361 -23.683  0.00  0.00    -0.060 C 
ATOM      6  C   UNL     1      32.920 -14.023 -25.944  0.00  0.00    -0.060 C 
ATOM      7  H   UNL     1      34.289 -12.631 -25.348  0.00  0.00    -0.084 HD
ATOM      8  H   UNL     1      32.699 -12.146 -25.179  0.00  0.00    -0.084 HD
ATOM      9 CL   UNL     1      36.384 -18.696 -21.278  0.00  0.00    -0.046 Cl
ATOM     10  N   UNL     1      35.127 -17.160 -22.954  0.00  0.00    -0.376 NA
ATOM     11  N   UNL     1      34.528 -19.239 -24.739  0.00  0.00    -0.256 NA
ATOM     12  C   UNL     1      34.429 -16.919 -24.100  0.00  0.00    +0.186 C 
ATOM     13  C   UNL     1      34.144 -17.968 -24.970  0.00  0.00    +0.200 C 
ATOM     14  C   UNL     1      35.510 -18.432 -22.724  0.00  0.00    +0.209 C 
ATOM     15  C   UNL     1      35.216 -19.453 -23.601  0.00  0.00    +0.138 C 
ENDROOT
TORSDOF 0
ENDMDL
MODEL 9
REMARK VINA RESULT:      -6.2      1.739      2.707
REMARK  Name = 107992
REMARK  0 active torsions:
REMARK  status: ('A' for Active; 'I' for Inactive)
REMARK                            x       y       z     vdW  Elec       q    Type
REMARK                         _______ _______ _______ _____ _____    ______ ____
ROOT
ATOM      1  N   UNL     1      35.570 -23.326 -14.868  0.00  0.00    -0.290 N 
ATOM      2  N   UNL     1      35.192 -24.759 -12.429  0.00  0.00    +0.386 N 
ATOM      3  C   UNL     1      34.356 -24.128 -14.666  0.00  0.00    +0.070 C 
ATOM      4  C   UNL     1      36.729 -23.710 -14.055  0.00  0.00    +0.070 C 
ATOM      5  C   UNL     1      34.041 -24.255 -13.176  0.00  0.00    -0.060 C 
ATOM      6  C   UNL     1      36.329 -23.855 -12.587  0.00  0.00    -0.060 C 
ATOM      7  H   UNL     1      35.444 -25.683 -12.780  0.00  0.00    -0.084 HD
ATOM      8  H   UNL     1      34.947 -24.819 -11.440  0.00  0.00    -0.084 HD
ATOM      9 CL   UNL     1      33.957 -22.528 -19.531  0.00  0.00    -0.046 Cl
ATOM     10  N   UNL     1      34.857 -22.900 -17.123  0.00  0.00    -0.376 NA
ATOM     11  N   UNL     1      37.171 -21.366 -17.521  0.00  0.00    -0.256 NA
ATOM     12  C   UNL     1      35.768 -22.734 -16.121  0.00  0.00    +0.186 C 
ATOM     13  C   UNL     1      36.908 -21.968 -16.344  0.00  0.00    +0.200 C 
ATOM     14  C   UNL     1      35.121 -22.297 -18.299  0.00  0.00    +0.209 C 
ATOM     15  C   UNL     1      36.258 -21.544 -18.494  0.00  0.00    +0.138 C 
ENDROOT
TORSDOF 0
ENDMDL
