MODEL 1
REMARK VINA RESULT:      -8.8      0.000      0.000
REMARK  Name = 4462
REMARK  4 active torsions:
REMARK  status: ('A' for Active; 'I' for Inactive)
REMARK    1  A    between atoms: C_3  and  C_14
REMARK    2  A    between atoms: C_7  and  O_10
REMARK    3  A    between atoms: C_8  and  O_12
REMARK    4  A    between atoms: C_14  and  C_15
REMARK                            x       y       z     vdW  Elec       q    Type
REMARK                         _______ _______ _______ _____ _____    ______ ____
ROOT
ATOM      1  O   UNL     1      35.148 -16.662 -20.453  0.00  0.00    -0.284 OA
ATOM      2  O   UNL     1      34.388 -16.815 -25.716  0.00  0.00    -0.284 OA
ATOM      3  C   UNL     1      35.118 -18.004 -22.418  0.00  0.00    +0.024 C 
ATOM      4  C   UNL     1      34.908 -18.045 -23.747  0.00  0.00    +0.020 C 
ATOM      5  C   UNL     1      34.983 -16.718 -21.669  0.00  0.00    +0.229 C 
ATOM      6  C   UNL     1      34.564 -16.801 -24.499  0.00  0.00    +0.228 C 
ATOM      7  C   UNL     1      34.635 -15.495 -22.426  0.00  0.00    +0.214 C 
ATOM      8  C   UNL     1      34.440 -15.534 -23.745  0.00  0.00    +0.214 C 
ATOM      9  C   UNL     1      34.971 -19.286 -24.597  0.00  0.00    +0.034 C 
ENDROOT
BRANCH   7  10
ATOM     10  O   UNL     1      34.518 -14.311 -21.726  0.00  0.00    -0.465 OA
ATOM     11  C   UNL     1      33.246 -14.211 -21.120  0.00  0.00    +0.253 C 
ENDBRANCH   7  10
BRANCH   8  12
ATOM     12  O   UNL     1      34.117 -14.410 -24.480  0.00  0.00    -0.465 OA
ATOM     13  C   UNL     1      32.718 -14.311 -24.656  0.00  0.00    +0.253 C 
ENDBRANCH   8  12
BRANCH   3  14
ATOM     14  C   UNL     1      35.511 -19.180 -21.566  0.00  0.00    +0.055 C 
BRANCH  14  15
ATOM     15  C   UNL     1      34.317 -19.828 -20.938  0.00  0.00    -0.030 C 
ATOM     16  C   UNL     1      34.302 -20.812 -20.018  0.00  0.00    -0.048 C 
ATOM     17  C   UNL     1      33.066 -21.424 -19.423  0.00  0.00    +0.026 C 
ATOM     18  C   UNL     1      35.593 -21.383 -19.491  0.00  0.00    +0.026 C 
ENDBRANCH  14  15
ENDBRANCH   3  14
TORSDOF 4
ENDMDL
MODEL 2
REMARK VINA RESULT:      -8.2      1.458      3.176
REMARK  Name = 4462
REMARK  4 active torsions:
REMARK  status: ('A' for Active; 'I' for Inactive)
REMARK    1  A    between atoms: C_3  and  C_14
REMARK    2  A    between atoms: C_7  and  O_10
REMARK    3  A    between atoms: C_8  and  O_12
REMARK    4  A    between atoms: C_14  and  C_15
REMARK                            x       y       z     vdW  Elec       q    Type
REMARK                         _______ _______ _______ _____ _____    ______ ____
ROOT
ATOM      1  O   UNL     1      34.899 -17.657 -25.235  0.00  0.00    -0.284 OA
ATOM      2  O   UNL     1      33.375 -13.806 -21.896  0.00  0.00    -0.284 OA
ATOM      3  C   UNL     1      34.729 -16.941 -22.971  0.00  0.00    +0.024 C 
ATOM      4  C   UNL     1      34.359 -15.959 -22.129  0.00  0.00    +0.020 C 
ATOM      5  C   UNL     1      34.548 -16.783 -24.447  0.00  0.00    +0.229 C 
ATOM      6  C   UNL     1      33.737 -14.706 -22.651  0.00  0.00    +0.228 C 
ATOM      7  C   UNL     1      33.937 -15.533 -24.951  0.00  0.00    +0.214 C 
ATOM      8  C   UNL     1      33.558 -14.565 -24.114  0.00  0.00    +0.214 C 
ATOM      9  C   UNL     1      34.533 -15.988 -20.633  0.00  0.00    +0.034 C 
ENDROOT
BRANCH   7  10
ATOM     10  O   UNL     1      33.769 -15.397 -26.314  0.00  0.00    -0.465 OA
ATOM     11  C   UNL     1      32.447 -15.728 -26.691  0.00  0.00    +0.253 C 
ENDBRANCH   7  10
BRANCH   8  12
ATOM     12  O   UNL     1      32.982 -13.389 -24.553  0.00  0.00    -0.465 OA
ATOM     13  C   UNL     1      33.965 -12.391 -24.744  0.00  0.00    +0.253 C 
ENDBRANCH   8  12
BRANCH   3  14
ATOM     14  C   UNL     1      35.323 -18.261 -22.559  0.00  0.00    +0.055 C 
BRANCH  14  15
ATOM     15  C   UNL     1      34.337 -19.097 -21.806  0.00  0.00    -0.030 C 
ATOM     16  C   UNL     1      34.588 -19.981 -20.821  0.00  0.00    -0.048 C 
ATOM     17  C   UNL     1      33.550 -20.793 -20.100  0.00  0.00    +0.026 C 
ATOM     18  C   UNL     1      35.998 -20.216 -20.349  0.00  0.00    +0.026 C 
ENDBRANCH  14  15
ENDBRANCH   3  14
TORSDOF 4
ENDMDL
MODEL 3
REMARK VINA RESULT:      -8.2      1.732      6.550
REMARK  Name = 4462
REMARK  4 active torsions:
REMARK  status: ('A' for Active; 'I' for Inactive)
REMARK    1  A    between atoms: C_3  and  C_14
REMARK    2  A    between atoms: C_7  and  O_10
REMARK    3  A    between atoms: C_8  and  O_12
REMARK    4  A    between atoms: C_14  and  C_15
REMARK                            x       y       z     vdW  Elec       q    Type
REMARK                         _______ _______ _______ _____ _____    ______ ____
ROOT
ATOM      1  O   UNL     1      33.794 -15.812 -25.291  0.00  0.00    -0.284 OA
ATOM      2  O   UNL     1      34.910 -16.185 -20.104  0.00  0.00    -0.284 OA
ATOM      3  C   UNL     1      33.523 -14.860 -23.127  0.00  0.00    +0.024 C 
ATOM      4  C   UNL     1      33.791 -14.965 -21.812  0.00  0.00    +0.020 C 
ATOM      5  C   UNL     1      34.046 -15.876 -24.091  0.00  0.00    +0.229 C 
ATOM      6  C   UNL     1      34.638 -16.083 -21.298  0.00  0.00    +0.228 C 
ATOM      7  C   UNL     1      34.878 -16.981 -23.566  0.00  0.00    +0.214 C 
ATOM      8  C   UNL     1      35.154 -17.077 -22.264  0.00  0.00    +0.214 C 
ATOM      9  C   UNL     1      33.283 -14.031 -20.746  0.00  0.00    +0.034 C 
ENDROOT
BRANCH   7  10
ATOM     10  O   UNL     1      35.361 -17.912 -24.464  0.00  0.00    -0.465 OA
ATOM     11  C   UNL     1      34.388 -18.900 -24.734  0.00  0.00    +0.253 C 
ENDBRANCH   7  10
BRANCH   8  12
ATOM     12  O   UNL     1      35.930 -18.095 -21.745  0.00  0.00    -0.465 OA
ATOM     13  C   UNL     1      35.118 -19.134 -21.235  0.00  0.00    +0.253 C 
ENDBRANCH   8  12
BRANCH   3  14
ATOM     14  C   UNL     1      32.721 -13.758 -23.763  0.00  0.00    +0.055 C 
BRANCH  14  15
ATOM     15  C   UNL     1      33.530 -12.509 -23.920  0.00  0.00    -0.030 C 
ATOM     16  C   UNL     1      33.924 -11.921 -25.066  0.00  0.00    -0.048 C 
ATOM     17  C   UNL     1      34.739 -10.662 -25.158  0.00  0.00    +0.026 C 
ATOM     18  C   UNL     1      33.545 -12.514 -26.397  0.00  0.00    +0.026 C 
ENDBRANCH  14  15
ENDBRANCH   3  14
TORSDOF 4
ENDMDL
MODEL 4
REMARK VINA RESULT:      -8.0      3.476      6.992
REMARK  Name = 4462
REMARK  4 active torsions:
REMARK  status: ('A' for Active; 'I' for Inactive)
REMARK    1  A    between atoms: C_3  and  C_14
REMARK    2  A    between atoms: C_7  and  O_10
REMARK    3  A    between atoms: C_8  and  O_12
REMARK    4  A    between atoms: C_14  and  C_15
REMARK                            x       y       z     vdW  Elec       q    Type
REMARK                         _______ _______ _______ _____ _____    ______ ____
ROOT
ATOM      1  O   UNL     1      37.286 -20.056 -19.778  0.00  0.00    -0.284 OA
ATOM      2  O   UNL     1      32.461 -22.213 -19.180  0.00  0.00    -0.284 OA
ATOM      3  C   UNL     1      34.982 -19.965 -20.366  0.00  0.00    +0.024 C 
ATOM      4  C   UNL     1      33.765 -20.522 -20.228  0.00  0.00    +0.020 C 
ATOM      5  C   UNL     1      36.163 -20.535 -19.648  0.00  0.00    +0.229 C 
ATOM      6  C   UNL     1      33.568 -21.703 -19.334  0.00  0.00    +0.228 C 
ATOM      7  C   UNL     1      35.954 -21.709 -18.772  0.00  0.00    +0.214 C 
ATOM      8  C   UNL     1      34.745 -22.253 -18.625  0.00  0.00    +0.214 C 
ATOM      9  C   UNL     1      32.516 -20.064 -20.933  0.00  0.00    +0.034 C 
ENDROOT
BRANCH   7  10
ATOM     10  O   UNL     1      37.050 -22.225 -18.109  0.00  0.00    -0.465 OA
ATOM     11  C   UNL     1      37.227 -21.586 -16.861  0.00  0.00    +0.253 C 
ENDBRANCH   7  10
BRANCH   8  12
ATOM     12  O   UNL     1      34.518 -23.346 -17.813  0.00  0.00    -0.465 OA
ATOM     13  C   UNL     1      34.021 -22.940 -16.553  0.00  0.00    +0.253 C 
ENDBRANCH   8  12
BRANCH   3  14
ATOM     14  C   UNL     1      35.291 -18.751 -21.200  0.00  0.00    +0.055 C 
BRANCH  14  15
ATOM     15  C   UNL     1      34.996 -18.989 -22.648  0.00  0.00    -0.030 C 
ATOM     16  C   UNL     1      34.830 -18.068 -23.617  0.00  0.00    -0.048 C 
ATOM     17  C   UNL     1      34.535 -18.370 -25.058  0.00  0.00    +0.026 C 
ATOM     18  C   UNL     1      34.948 -16.600 -23.302  0.00  0.00    +0.026 C 
ENDBRANCH  14  15
ENDBRANCH   3  14
TORSDOF 4
ENDMDL
MODEL 5
REMARK VINA RESULT:      -7.6      5.583      9.578
REMARK  Name = 4462
REMARK  4 active torsions:
REMARK  status: ('A' for Active; 'I' for Inactive)
REMARK    1  A    between atoms: C_3  and  C_14
REMARK    2  A    between atoms: C_7  and  O_10
REMARK    3  A    between atoms: C_8  and  O_12
REMARK    4  A    between atoms: C_14  and  C_15
REMARK                            x       y       z     vdW  Elec       q    Type
REMARK                         _______ _______ _______ _____ _____    ______ ____
ROOT
ATOM      1  O   UNL     1      31.859  -8.692 -21.359  0.00  0.00    -0.284 OA
ATOM      2  O   UNL     1      34.004 -12.282 -24.646  0.00  0.00    -0.284 OA
ATOM      3  C   UNL     1      33.456  -9.113 -23.073  0.00  0.00    +0.024 C 
ATOM      4  C   UNL     1      34.009 -10.026 -23.892  0.00  0.00    +0.020 C 
ATOM      5  C   UNL     1      32.363  -9.504 -22.130  0.00  0.00    +0.229 C 
ATOM      6  C   UNL     1      33.524 -11.438 -23.892  0.00  0.00    +0.228 C 
ATOM      7  C   UNL     1      31.897 -10.908 -22.137  0.00  0.00    +0.214 C 
ATOM      8  C   UNL     1      32.438 -11.810 -22.958  0.00  0.00    +0.214 C 
ATOM      9  C   UNL     1      35.142  -9.760 -24.847  0.00  0.00    +0.034 C 
ENDROOT
BRANCH   7  10
ATOM     10  O   UNL     1      30.883 -11.259 -21.267  0.00  0.00    -0.465 OA
ATOM     11  C   UNL     1      31.393 -11.475 -19.966  0.00  0.00    +0.253 C 
ENDBRANCH   7  10
BRANCH   8  12
ATOM     12  O   UNL     1      32.022 -13.126 -22.990  0.00  0.00    -0.465 OA
ATOM     13  C   UNL     1      32.832 -13.928 -22.153  0.00  0.00    +0.253 C 
ENDBRANCH   8  12
BRANCH   3  14
ATOM     14  C   UNL     1      33.831  -7.657 -23.016  0.00  0.00    +0.055 C 
BRANCH  14  15
ATOM     15  C   UNL     1      33.075  -6.854 -24.027  0.00  0.00    -0.030 C 
ATOM     16  C   UNL     1      32.144  -5.907 -23.799  0.00  0.00    -0.048 C 
ATOM     17  C   UNL     1      31.417  -5.132 -24.861  0.00  0.00    +0.026 C 
ATOM     18  C   UNL     1      31.760  -5.539 -22.389  0.00  0.00    +0.026 C 
ENDBRANCH  14  15
ENDBRANCH   3  14
TORSDOF 4
ENDMDL
MODEL 6
REMARK VINA RESULT:      -7.6      4.870      7.912
REMARK  Name = 4462
REMARK  4 active torsions:
REMARK  status: ('A' for Active; 'I' for Inactive)
REMARK    1  A    between atoms: C_3  and  C_14
REMARK    2  A    between atoms: C_7  and  O_10
REMARK    3  A    between atoms: C_8  and  O_12
REMARK    4  A    between atoms: C_14  and  C_15
REMARK                            x       y       z     vdW  Elec       q    Type
REMARK                         _______ _______ _______ _____ _____    ______ ____
ROOT
ATOM      1  O   UNL     1      32.558 -11.354 -23.498  0.00  0.00    -0.284 OA
ATOM      2  O   UNL     1      31.939  -8.086 -19.347  0.00  0.00    -0.284 OA
ATOM      3  C   UNL     1      31.868 -11.129 -21.231  0.00  0.00    +0.024 C 
ATOM      4  C   UNL     1      31.728 -10.305 -20.176  0.00  0.00    +0.020 C 
ATOM      5  C   UNL     1      32.401 -10.615 -22.529  0.00  0.00    +0.229 C 
ATOM      6  C   UNL     1      32.078  -8.858 -20.293  0.00  0.00    +0.228 C 
ATOM      7  C   UNL     1      32.749  -9.180 -22.628  0.00  0.00    +0.214 C 
ATOM      8  C   UNL     1      32.598  -8.361 -21.586  0.00  0.00    +0.214 C 
ATOM      9  C   UNL     1      31.246 -10.719 -18.811  0.00  0.00    +0.034 C 
ENDROOT
BRANCH   7  10
ATOM     10  O   UNL     1      33.236  -8.713 -23.833  0.00  0.00    -0.465 OA
ATOM     11  C   UNL     1      34.646  -8.793 -23.868  0.00  0.00    +0.253 C 
ENDBRANCH   7  10
BRANCH   8  12
ATOM     12  O   UNL     1      32.912  -7.018 -21.648  0.00  0.00    -0.465 OA
ATOM     13  C   UNL     1      31.806  -6.266 -22.105  0.00  0.00    +0.253 C 
ENDBRANCH   8  12
BRANCH   3  14
ATOM     14  C   UNL     1      31.508 -12.590 -21.244  0.00  0.00    +0.055 C 
BRANCH  14  15
ATOM     15  C   UNL     1      32.591 -13.429 -20.641  0.00  0.00    -0.030 C 
ATOM     16  C   UNL     1      33.322 -14.388 -21.242  0.00  0.00    -0.048 C 
ATOM     17  C   UNL     1      34.399 -15.199 -20.580  0.00  0.00    +0.026 C 
ATOM     18  C   UNL     1      33.101 -14.718 -22.695  0.00  0.00    +0.026 C 
ENDBRANCH  14  15
ENDBRANCH   3  14
TORSDOF 4
ENDMDL
MODEL 7
REMARK VINA RESULT:      -7.6      2.266      6.243
REMARK  Name = 4462
REMARK  4 active torsions:
REMARK  status: ('A' for Active; 'I' for Inactive)
REMARK    1  A    between atoms: C_3  and  C_14
REMARK    2  A    between atoms: C_7  and  O_10
REMARK    3  A    between atoms: C_8  and  O_12
REMARK    4  A    between atoms: C_14  and  C_15
REMARK                            x       y       z     vdW  Elec       q    Type
REMARK                         _______ _______ _______ _____ _____    ______ ____
ROOT
ATOM      1  O   UNL     1      34.148 -14.346 -21.420  0.00  0.00    -0.284 OA
ATOM      2  O   UNL     1      34.145 -16.773 -26.154  0.00  0.00    -0.284 OA
ATOM      3  C   UNL     1      33.444 -14.269 -23.693  0.00  0.00    +0.024 C 
ATOM      4  C   UNL     1      33.459 -14.875 -24.894  0.00  0.00    +0.020 C 
ATOM      5  C   UNL     1      34.130 -14.892 -22.520  0.00  0.00    +0.229 C 
ATOM      6  C   UNL     1      34.138 -16.194 -25.070  0.00  0.00    +0.228 C 
ATOM      7  C   UNL     1      34.804 -16.196 -22.710  0.00  0.00    +0.214 C 
ATOM      8  C   UNL     1      34.807 -16.803 -23.899  0.00  0.00    +0.214 C 
ATOM      9  C   UNL     1      32.843 -14.323 -26.152  0.00  0.00    +0.034 C 
ENDROOT
BRANCH   7  10
ATOM     10  O   UNL     1      35.430 -16.767 -21.620  0.00  0.00    -0.465 OA
ATOM     11  C   UNL     1      34.538 -17.603 -20.912  0.00  0.00    +0.253 C 
ENDBRANCH   7  10
BRANCH   8  12
ATOM     12  O   UNL     1      35.425 -18.020 -24.107  0.00  0.00    -0.465 OA
ATOM     13  C   UNL     1      34.483 -19.074 -24.065  0.00  0.00    +0.253 C 
ENDBRANCH   8  12
BRANCH   3  14
ATOM     14  C   UNL     1      32.757 -12.965 -23.387  0.00  0.00    +0.055 C 
BRANCH  14  15
ATOM     15  C   UNL     1      33.597 -11.793 -23.788  0.00  0.00    -0.030 C 
ATOM     16  C   UNL     1      33.359 -10.489 -23.550  0.00  0.00    -0.048 C 
ATOM     17  C   UNL     1      34.244  -9.354 -23.980  0.00  0.00    +0.026 C 
ATOM     18  C   UNL     1      32.129 -10.065 -22.790  0.00  0.00    +0.026 C 
ENDBRANCH  14  15
ENDBRANCH   3  14
TORSDOF 4
ENDMDL
MODEL 8
REMARK VINA RESULT:      -7.5      8.792     11.005
REMARK  Name = 4462
REMARK  4 active torsions:
REMARK  status: ('A' for Active; 'I' for Inactive)
REMARK    1  A    between atoms: C_3  and  C_14
REMARK    2  A    between atoms: C_7  and  O_10
REMARK    3  A    between atoms: C_8  and  O_12
REMARK    4  A    between atoms: C_14  and  C_15
REMARK                            x       y       z     vdW  Elec       q    Type
REMARK                         _______ _______ _______ _____ _____    ______ ____
ROOT
ATOM      1  O   UNL     1      34.349 -24.639 -12.068  0.00  0.00    -0.284 OA
ATOM      2  O   UNL     1      36.014 -22.853 -16.794  0.00  0.00    -0.284 OA
ATOM      3  C   UNL     1      33.751 -24.067 -14.300  0.00  0.00    +0.024 C 
ATOM      4  C   UNL     1      34.170 -23.598 -15.490  0.00  0.00    +0.020 C 
ATOM      5  C   UNL     1      34.714 -24.235 -13.169  0.00  0.00    +0.229 C 
ATOM      6  C   UNL     1      35.609 -23.264 -15.709  0.00  0.00    +0.228 C 
ATOM      7  C   UNL     1      36.135 -23.893 -13.399  0.00  0.00    +0.214 C 
ATOM      8  C   UNL     1      36.552 -23.441 -14.583  0.00  0.00    +0.214 C 
ATOM      9  C   UNL     1      33.286 -23.347 -16.683  0.00  0.00    +0.034 C 
ENDROOT
BRANCH   7  10
ATOM     10  O   UNL     1      37.019 -24.056 -12.350  0.00  0.00    -0.465 OA
ATOM     11  C   UNL     1      37.141 -22.860 -11.608  0.00  0.00    +0.253 C 
ENDBRANCH   7  10
BRANCH   8  12
ATOM     12  O   UNL     1      37.872 -23.116 -14.829  0.00  0.00    -0.465 OA
ATOM     13  C   UNL     1      38.625 -24.273 -15.131  0.00  0.00    +0.253 C 
ENDBRANCH   8  12
BRANCH   3  14
ATOM     14  C   UNL     1      32.340 -24.477 -13.977  0.00  0.00    +0.055 C 
BRANCH  14  15
ATOM     15  C   UNL     1      31.367 -23.377 -14.265  0.00  0.00    -0.030 C 
ATOM     16  C   UNL     1      30.178 -23.471 -14.891  0.00  0.00    -0.048 C 
ATOM     17  C   UNL     1      29.242 -22.326 -15.151  0.00  0.00    +0.026 C 
ATOM     18  C   UNL     1      29.681 -24.804 -15.387  0.00  0.00    +0.026 C 
ENDBRANCH  14  15
ENDBRANCH   3  14
TORSDOF 4
ENDMDL
MODEL 9
REMARK VINA RESULT:      -7.5      5.527      8.872
REMARK  Name = 4462
REMARK  4 active torsions:
REMARK  status: ('A' for Active; 'I' for Inactive)
REMARK    1  A    between atoms: C_3  and  C_14
REMARK    2  A    between atoms: C_7  and  O_10
REMARK    3  A    between atoms: C_8  and  O_12
REMARK    4  A    between atoms: C_14  and  C_15
REMARK                            x       y       z     vdW  Elec       q    Type
REMARK                         _______ _______ _______ _____ _____    ______ ____
ROOT
ATOM      1  O   UNL     1      32.596 -23.536 -17.674  0.00  0.00    -0.284 OA
ATOM      2  O   UNL     1      37.422 -21.921 -16.126  0.00  0.00    -0.284 OA
ATOM      3  C   UNL     1      34.625 -22.459 -18.296  0.00  0.00    +0.024 C 
ATOM      4  C   UNL     1      35.839 -22.036 -17.898  0.00  0.00    +0.020 C 
ATOM      5  C   UNL     1      33.716 -23.161 -17.339  0.00  0.00    +0.229 C 
ATOM      6  C   UNL     1      36.309 -22.283 -16.502  0.00  0.00    +0.228 C 
ATOM      7  C   UNL     1      34.193 -23.393 -15.957  0.00  0.00    +0.214 C 
ATOM      8  C   UNL     1      35.401 -22.984 -15.567  0.00  0.00    +0.214 C 
ATOM      9  C   UNL     1      36.819 -21.281 -18.757  0.00  0.00    +0.034 C 
ENDROOT
BRANCH   7  10
ATOM     10  O   UNL     1      33.348 -24.047 -15.082  0.00  0.00    -0.465 OA
ATOM     11  C   UNL     1      32.413 -23.147 -14.522  0.00  0.00    +0.253 C 
ENDBRANCH   7  10
BRANCH   8  12
ATOM     12  O   UNL     1      35.875 -23.189 -14.286  0.00  0.00    -0.465 OA
ATOM     13  C   UNL     1      36.499 -24.453 -14.178  0.00  0.00    +0.253 C 
ENDBRANCH   8  12
BRANCH   3  14
ATOM     14  C   UNL     1      34.064 -22.306 -19.683  0.00  0.00    +0.055 C 
BRANCH  14  15
ATOM     15  C   UNL     1      33.263 -21.049 -19.818  0.00  0.00    -0.030 C 
ATOM     16  C   UNL     1      33.541 -19.972 -20.577  0.00  0.00    -0.048 C 
ATOM     17  C   UNL     1      32.694 -18.735 -20.670  0.00  0.00    +0.026 C 
ATOM     18  C   UNL     1      34.780 -19.942 -21.434  0.00  0.00    +0.026 C 
ENDBRANCH  14  15
ENDBRANCH   3  14
TORSDOF 4
ENDMDL
