MODEL 1
REMARK VINA RESULT:      -9.5      0.000      0.000
REMARK  Name = 21850055
REMARK  3 active torsions:
REMARK  status: ('A' for Active; 'I' for Inactive)
REMARK    1  A    between atoms: C_5  and  C_14
REMARK    2  A    between atoms: C_15  and  O_20
REMARK    3  A    between atoms: C_16  and  O_22
REMARK                            x       y       z     vdW  Elec       q    Type
REMARK                         _______ _______ _______ _____ _____    ______ ____
ROOT
ATOM      1  N   UNL     1      36.257 -20.625 -19.837  0.00  0.00    -0.324 NA
ATOM      2  N   UNL     1      35.192 -22.138 -18.444  0.00  0.00    -0.272 NA
ATOM      3  N   UNL     1      32.797 -22.380 -18.446  0.00  0.00    -0.169 NA
ATOM      4  N   UNL     1      34.132 -23.678 -17.027  0.00  0.00    -0.292 N 
ATOM      5  C   UNL     1      34.999 -19.227 -21.352  0.00  0.00    +0.051 C 
ATOM      6  C   UNL     1      33.829 -19.807 -20.894  0.00  0.00    +0.018 C 
ATOM      7  C   UNL     1      33.889 -20.799 -19.904  0.00  0.00    +0.106 C 
ATOM      8  C   UNL     1      36.180 -19.669 -20.794  0.00  0.00    +0.190 C 
ATOM      9  C   UNL     1      35.129 -21.192 -19.388  0.00  0.00    +0.152 C 
ATOM     10  C   UNL     1      32.757 -21.428 -19.394  0.00  0.00    +0.124 C 
ATOM     11  C   UNL     1      34.032 -22.682 -18.022  0.00  0.00    +0.152 C 
ATOM     12  H   UNL     1      35.014 -23.940 -16.678  0.00  0.00    +0.155 HD
ATOM     13  H   UNL     1      33.318 -24.111 -16.681  0.00  0.00    +0.155 HD
ATOM     14  N   UNL     1      37.398 -19.096 -21.238  0.00  0.00    -0.332 N 
ATOM     15  H   UNL     1      38.253 -19.396 -20.854  0.00  0.00    +0.145 HD
ATOM     16  H   UNL     1      37.389 -18.397 -21.932  0.00  0.00    +0.145 HD
ENDROOT
BRANCH   5  17
ATOM     17  C   UNL     1      34.943 -18.202 -22.373  0.00  0.00    +0.072 C 
ATOM     18  C   UNL     1      34.951 -18.561 -23.721  0.00  0.00    +0.142 C 
ATOM     19  C   UNL     1      34.882 -16.857 -22.010  0.00  0.00    +0.142 C 
ATOM     20  C   UNL     1      34.898 -17.574 -24.705  0.00  0.00    +0.037 C 
ATOM     21  C   UNL     1      34.829 -15.870 -22.994  0.00  0.00    +0.037 C 
ATOM     22  C   UNL     1      34.837 -16.228 -24.342  0.00  0.00    +0.006 C 
BRANCH  18  23
ATOM     23  O   UNL     1      35.011 -19.867 -24.107  0.00  0.00    -0.471 OA
ATOM     24  C   UNL     1      34.661 -20.159 -25.458  0.00  0.00    +0.252 C 
ENDBRANCH  18  23
BRANCH  19  25
ATOM     25  O   UNL     1      34.873 -16.476 -20.700  0.00  0.00    -0.471 OA
ATOM     26  C   UNL     1      34.415 -15.157 -20.413  0.00  0.00    +0.252 C 
ENDBRANCH  19  25
ENDBRANCH   5  17
TORSDOF 3
ENDMDL
MODEL 2
REMARK VINA RESULT:      -9.4      0.114      2.786
REMARK  Name = 21850055
REMARK  3 active torsions:
REMARK  status: ('A' for Active; 'I' for Inactive)
REMARK    1  A    between atoms: C_5  and  C_14
REMARK    2  A    between atoms: C_15  and  O_20
REMARK    3  A    between atoms: C_16  and  O_22
REMARK                            x       y       z     vdW  Elec       q    Type
REMARK                         _______ _______ _______ _____ _____    ______ ____
ROOT
ATOM      1  N   UNL     1      36.322 -20.669 -19.766  0.00  0.00    -0.324 NA
ATOM      2  N   UNL     1      35.253 -22.195 -18.389  0.00  0.00    -0.272 NA
ATOM      3  N   UNL     1      32.857 -22.436 -18.402  0.00  0.00    -0.169 NA
ATOM      4  N   UNL     1      34.187 -23.747 -16.990  0.00  0.00    -0.292 N 
ATOM      5  C   UNL     1      35.070 -19.258 -21.272  0.00  0.00    +0.051 C 
ATOM      6  C   UNL     1      33.898 -19.842 -20.824  0.00  0.00    +0.018 C 
ATOM      7  C   UNL     1      33.955 -20.843 -19.843  0.00  0.00    +0.106 C 
ATOM      8  C   UNL     1      36.249 -19.705 -20.714  0.00  0.00    +0.190 C 
ATOM      9  C   UNL     1      35.193 -21.241 -19.326  0.00  0.00    +0.152 C 
ATOM     10  C   UNL     1      32.821 -21.476 -19.342  0.00  0.00    +0.124 C 
ATOM     11  C   UNL     1      34.091 -22.742 -17.977  0.00  0.00    +0.152 C 
ATOM     12  H   UNL     1      35.068 -24.012 -16.640  0.00  0.00    +0.155 HD
ATOM     13  H   UNL     1      33.372 -24.183 -16.651  0.00  0.00    +0.155 HD
ATOM     14  N   UNL     1      37.469 -19.128 -21.149  0.00  0.00    -0.332 N 
ATOM     15  H   UNL     1      38.322 -19.432 -20.764  0.00  0.00    +0.145 HD
ATOM     16  H   UNL     1      37.462 -18.423 -21.837  0.00  0.00    +0.145 HD
ENDROOT
BRANCH   5  17
ATOM     17  C   UNL     1      35.018 -18.225 -22.285  0.00  0.00    +0.072 C 
ATOM     18  C   UNL     1      34.984 -16.882 -21.910  0.00  0.00    +0.142 C 
ATOM     19  C   UNL     1      35.001 -18.572 -23.636  0.00  0.00    +0.142 C 
ATOM     20  C   UNL     1      34.933 -15.886 -22.885  0.00  0.00    +0.037 C 
ATOM     21  C   UNL     1      34.950 -17.576 -24.612  0.00  0.00    +0.037 C 
ATOM     22  C   UNL     1      34.916 -16.233 -24.236  0.00  0.00    +0.006 C 
BRANCH  18  23
ATOM     23  O   UNL     1      34.997 -16.512 -20.598  0.00  0.00    -0.471 OA
ATOM     24  C   UNL     1      34.498 -15.213 -20.287  0.00  0.00    +0.252 C 
ENDBRANCH  18  23
BRANCH  19  25
ATOM     25  O   UNL     1      35.033 -19.876 -24.034  0.00  0.00    -0.471 OA
ATOM     26  C   UNL     1      34.669 -20.149 -25.385  0.00  0.00    +0.252 C 
ENDBRANCH  19  25
ENDBRANCH   5  17
TORSDOF 3
ENDMDL
MODEL 3
REMARK VINA RESULT:      -9.1      6.435      9.495
REMARK  Name = 21850055
REMARK  3 active torsions:
REMARK  status: ('A' for Active; 'I' for Inactive)
REMARK    1  A    between atoms: C_5  and  C_14
REMARK    2  A    between atoms: C_15  and  O_20
REMARK    3  A    between atoms: C_16  and  O_22
REMARK                            x       y       z     vdW  Elec       q    Type
REMARK                         _______ _______ _______ _____ _____    ______ ____
ROOT
ATOM      1  N   UNL     1      32.139 -11.153 -22.416  0.00  0.00    -0.324 NA
ATOM      2  N   UNL     1      32.523  -8.875 -22.586  0.00  0.00    -0.272 NA
ATOM      3  N   UNL     1      34.262  -7.995 -23.999  0.00  0.00    -0.169 NA
ATOM      4  N   UNL     1      32.896  -6.564 -22.746  0.00  0.00    -0.292 N 
ATOM      5  C   UNL     1      33.474 -12.738 -23.657  0.00  0.00    +0.051 C 
ATOM      6  C   UNL     1      34.195 -11.687 -24.197  0.00  0.00    +0.018 C 
ATOM      7  C   UNL     1      33.875 -10.370 -23.835  0.00  0.00    +0.106 C 
ATOM      8  C   UNL     1      32.462 -12.418 -22.778  0.00  0.00    +0.190 C 
ATOM      9  C   UNL     1      32.832 -10.130 -22.934  0.00  0.00    +0.152 C 
ATOM     10  C   UNL     1      34.555  -9.262 -24.334  0.00  0.00    +0.124 C 
ATOM     11  C   UNL     1      33.247  -7.876 -23.131  0.00  0.00    +0.152 C 
ATOM     12  H   UNL     1      32.158  -6.418 -22.110  0.00  0.00    +0.155 HD
ATOM     13  H   UNL     1      33.389  -5.795 -23.112  0.00  0.00    +0.155 HD
ATOM     14  N   UNL     1      31.702 -13.470 -22.205  0.00  0.00    -0.332 N 
ATOM     15  H   UNL     1      30.974 -13.265 -21.574  0.00  0.00    +0.145 HD
ATOM     16  H   UNL     1      31.902 -14.405 -22.438  0.00  0.00    +0.145 HD
ENDROOT
BRANCH   5  17
ATOM     17  C   UNL     1      33.800 -14.099 -24.027  0.00  0.00    +0.072 C 
ATOM     18  C   UNL     1      33.392 -14.603 -25.262  0.00  0.00    +0.142 C 
ATOM     19  C   UNL     1      34.520 -14.907 -23.147  0.00  0.00    +0.142 C 
ATOM     20  C   UNL     1      33.705 -15.915 -25.617  0.00  0.00    +0.037 C 
ATOM     21  C   UNL     1      34.833 -16.220 -23.502  0.00  0.00    +0.037 C 
ATOM     22  C   UNL     1      34.425 -16.723 -24.737  0.00  0.00    +0.006 C 
BRANCH  18  23
ATOM     23  O   UNL     1      32.686 -13.837 -26.141  0.00  0.00    -0.471 OA
ATOM     24  C   UNL     1      33.364 -13.419 -27.324  0.00  0.00    +0.252 C 
ENDBRANCH  18  23
BRANCH  19  25
ATOM     25  O   UNL     1      34.931 -14.442 -21.932  0.00  0.00    -0.471 OA
ATOM     26  C   UNL     1      34.564 -15.211 -20.788  0.00  0.00    +0.252 C 
ENDBRANCH  19  25
ENDBRANCH   5  17
TORSDOF 3
ENDMDL
MODEL 4
REMARK VINA RESULT:      -9.1      6.442      9.704
REMARK  Name = 21850055
REMARK  3 active torsions:
REMARK  status: ('A' for Active; 'I' for Inactive)
REMARK    1  A    between atoms: C_5  and  C_14
REMARK    2  A    between atoms: C_15  and  O_20
REMARK    3  A    between atoms: C_16  and  O_22
REMARK                            x       y       z     vdW  Elec       q    Type
REMARK                         _______ _______ _______ _____ _____    ______ ____
ROOT
ATOM      1  N   UNL     1      32.147 -11.139 -22.424  0.00  0.00    -0.324 NA
ATOM      2  N   UNL     1      32.531  -8.862 -22.609  0.00  0.00    -0.272 NA
ATOM      3  N   UNL     1      34.262  -7.990 -24.037  0.00  0.00    -0.169 NA
ATOM      4  N   UNL     1      32.904  -6.552 -22.784  0.00  0.00    -0.292 N 
ATOM      5  C   UNL     1      33.474 -12.731 -23.663  0.00  0.00    +0.051 C 
ATOM      6  C   UNL     1      34.193 -11.684 -24.213  0.00  0.00    +0.018 C 
ATOM      7  C   UNL     1      33.876 -10.364 -23.857  0.00  0.00    +0.106 C 
ATOM      8  C   UNL     1      32.467 -12.406 -22.779  0.00  0.00    +0.190 C 
ATOM      9  C   UNL     1      32.838 -10.119 -22.951  0.00  0.00    +0.152 C 
ATOM     10  C   UNL     1      34.553  -9.260 -24.367  0.00  0.00    +0.124 C 
ATOM     11  C   UNL     1      33.253  -7.867 -23.164  0.00  0.00    +0.152 C 
ATOM     12  H   UNL     1      32.170  -6.402 -22.145  0.00  0.00    +0.155 HD
ATOM     13  H   UNL     1      33.395  -5.785 -23.159  0.00  0.00    +0.155 HD
ATOM     14  N   UNL     1      31.711 -13.454 -22.196  0.00  0.00    -0.332 N 
ATOM     15  H   UNL     1      30.986 -13.245 -21.562  0.00  0.00    +0.145 HD
ATOM     16  H   UNL     1      31.909 -14.391 -22.425  0.00  0.00    +0.145 HD
ENDROOT
BRANCH   5  17
ATOM     17  C   UNL     1      33.797 -14.095 -24.026  0.00  0.00    +0.072 C 
ATOM     18  C   UNL     1      34.514 -14.900 -23.142  0.00  0.00    +0.142 C 
ATOM     19  C   UNL     1      33.391 -14.603 -25.260  0.00  0.00    +0.142 C 
ATOM     20  C   UNL     1      34.826 -16.214 -23.492  0.00  0.00    +0.037 C 
ATOM     21  C   UNL     1      33.703 -15.917 -25.610  0.00  0.00    +0.037 C 
ATOM     22  C   UNL     1      34.420 -16.722 -24.726  0.00  0.00    +0.006 C 
BRANCH  18  23
ATOM     23  O   UNL     1      34.926 -14.431 -21.930  0.00  0.00    -0.471 OA
ATOM     24  C   UNL     1      34.538 -15.181 -20.781  0.00  0.00    +0.252 C 
ENDBRANCH  18  23
BRANCH  19  25
ATOM     25  O   UNL     1      32.689 -13.839 -26.146  0.00  0.00    -0.471 OA
ATOM     26  C   UNL     1      33.372 -13.429 -27.329  0.00  0.00    +0.252 C 
ENDBRANCH  19  25
ENDBRANCH   5  17
TORSDOF 3
ENDMDL
MODEL 5
REMARK VINA RESULT:      -8.7      4.994      8.156
REMARK  Name = 21850055
REMARK  3 active torsions:
REMARK  status: ('A' for Active; 'I' for Inactive)
REMARK    1  A    between atoms: C_5  and  C_14
REMARK    2  A    between atoms: C_15  and  O_20
REMARK    3  A    between atoms: C_16  and  O_22
REMARK                            x       y       z     vdW  Elec       q    Type
REMARK                         _______ _______ _______ _____ _____    ______ ____
ROOT
ATOM      1  N   UNL     1      37.721 -23.162 -15.345  0.00  0.00    -0.324 NA
ATOM      2  N   UNL     1      39.267 -24.757 -14.688  0.00  0.00    -0.272 NA
ATOM      3  N   UNL     1      38.640 -27.060 -14.371  0.00  0.00    -0.169 NA
ATOM      4  N   UNL     1      40.847 -26.360 -14.024  0.00  0.00    -0.292 N 
ATOM      5  C   UNL     1      35.413 -23.751 -15.740  0.00  0.00    +0.051 C 
ATOM      6  C   UNL     1      35.707 -25.064 -15.415  0.00  0.00    +0.018 C 
ATOM      7  C   UNL     1      37.018 -25.412 -15.057  0.00  0.00    +0.106 C 
ATOM      8  C   UNL     1      36.451 -22.844 -15.690  0.00  0.00    +0.190 C 
ATOM      9  C   UNL     1      38.015 -24.431 -15.029  0.00  0.00    +0.152 C 
ATOM     10  C   UNL     1      37.390 -26.710 -14.717  0.00  0.00    +0.124 C 
ATOM     11  C   UNL     1      39.516 -26.046 -14.378  0.00  0.00    +0.152 C 
ATOM     12  H   UNL     1      41.533 -25.654 -14.011  0.00  0.00    +0.155 HD
ATOM     13  H   UNL     1      41.088 -27.285 -13.789  0.00  0.00    +0.155 HD
ATOM     14  N   UNL     1      36.185 -21.490 -16.015  0.00  0.00    -0.332 N 
ATOM     15  H   UNL     1      36.912 -20.825 -15.985  0.00  0.00    +0.145 HD
ATOM     16  H   UNL     1      35.276 -21.214 -16.271  0.00  0.00    +0.145 HD
ENDROOT
BRANCH   5  17
ATOM     17  C   UNL     1      34.062 -23.386 -16.111  0.00  0.00    +0.072 C 
ATOM     18  C   UNL     1      33.777 -23.011 -17.423  0.00  0.00    +0.142 C 
ATOM     19  C   UNL     1      33.046 -23.409 -15.155  0.00  0.00    +0.142 C 
ATOM     20  C   UNL     1      32.476 -22.659 -17.781  0.00  0.00    +0.037 C 
ATOM     21  C   UNL     1      31.744 -23.055 -15.513  0.00  0.00    +0.037 C 
ATOM     22  C   UNL     1      31.459 -22.680 -16.825  0.00  0.00    +0.006 C 
BRANCH  18  23
ATOM     23  O   UNL     1      34.749 -22.979 -18.379  0.00  0.00    -0.471 OA
ATOM     24  C   UNL     1      34.705 -21.900 -19.310  0.00  0.00    +0.252 C 
ENDBRANCH  18  23
BRANCH  19  25
ATOM     25  O   UNL     1      33.295 -23.770 -13.864  0.00  0.00    -0.471 OA
ATOM     26  C   UNL     1      32.532 -24.854 -13.337  0.00  0.00    +0.252 C 
ENDBRANCH  19  25
ENDBRANCH   5  17
TORSDOF 3
ENDMDL
MODEL 6
REMARK VINA RESULT:      -8.7      4.992      8.348
REMARK  Name = 21850055
REMARK  3 active torsions:
REMARK  status: ('A' for Active; 'I' for Inactive)
REMARK    1  A    between atoms: C_5  and  C_14
REMARK    2  A    between atoms: C_15  and  O_20
REMARK    3  A    between atoms: C_16  and  O_22
REMARK                            x       y       z     vdW  Elec       q    Type
REMARK                         _______ _______ _______ _____ _____    ______ ____
ROOT
ATOM      1  N   UNL     1      37.723 -23.162 -15.358  0.00  0.00    -0.324 NA
ATOM      2  N   UNL     1      39.271 -24.758 -14.709  0.00  0.00    -0.272 NA
ATOM      3  N   UNL     1      38.645 -27.061 -14.393  0.00  0.00    -0.169 NA
ATOM      4  N   UNL     1      40.854 -26.361 -14.053  0.00  0.00    -0.292 N 
ATOM      5  C   UNL     1      35.414 -23.750 -15.745  0.00  0.00    +0.051 C 
ATOM      6  C   UNL     1      35.708 -25.063 -15.423  0.00  0.00    +0.018 C 
ATOM      7  C   UNL     1      37.021 -25.412 -15.070  0.00  0.00    +0.106 C 
ATOM      8  C   UNL     1      36.451 -22.843 -15.697  0.00  0.00    +0.190 C 
ATOM      9  C   UNL     1      38.018 -24.431 -15.045  0.00  0.00    +0.152 C 
ATOM     10  C   UNL     1      37.394 -26.710 -14.734  0.00  0.00    +0.124 C 
ATOM     11  C   UNL     1      39.522 -26.047 -14.402  0.00  0.00    +0.152 C 
ATOM     12  H   UNL     1      41.540 -25.655 -14.042  0.00  0.00    +0.155 HD
ATOM     13  H   UNL     1      41.096 -27.287 -13.820  0.00  0.00    +0.155 HD
ATOM     14  N   UNL     1      36.185 -21.489 -16.020  0.00  0.00    -0.332 N 
ATOM     15  H   UNL     1      36.911 -20.824 -15.992  0.00  0.00    +0.145 HD
ATOM     16  H   UNL     1      35.275 -21.212 -16.272  0.00  0.00    +0.145 HD
ENDROOT
BRANCH   5  17
ATOM     17  C   UNL     1      34.061 -23.384 -16.110  0.00  0.00    +0.072 C 
ATOM     18  C   UNL     1      33.049 -23.412 -15.151  0.00  0.00    +0.142 C 
ATOM     19  C   UNL     1      33.771 -23.005 -17.421  0.00  0.00    +0.142 C 
ATOM     20  C   UNL     1      31.746 -23.059 -15.504  0.00  0.00    +0.037 C 
ATOM     21  C   UNL     1      32.468 -22.654 -17.773  0.00  0.00    +0.037 C 
ATOM     22  C   UNL     1      31.455 -22.681 -16.815  0.00  0.00    +0.006 C 
BRANCH  18  23
ATOM     23  O   UNL     1      33.302 -23.779 -13.863  0.00  0.00    -0.471 OA
ATOM     24  C   UNL     1      32.533 -24.857 -13.335  0.00  0.00    +0.252 C 
ENDBRANCH  18  23
BRANCH  19  25
ATOM     25  O   UNL     1      34.740 -22.971 -18.380  0.00  0.00    -0.471 OA
ATOM     26  C   UNL     1      34.694 -21.888 -19.307  0.00  0.00    +0.252 C 
ENDBRANCH  19  25
ENDBRANCH   5  17
TORSDOF 3
ENDMDL
MODEL 7
REMARK VINA RESULT:      -8.5      4.827      7.284
REMARK  Name = 21850055
REMARK  3 active torsions:
REMARK  status: ('A' for Active; 'I' for Inactive)
REMARK    1  A    between atoms: C_5  and  C_14
REMARK    2  A    between atoms: C_15  and  O_20
REMARK    3  A    between atoms: C_16  and  O_22
REMARK                            x       y       z     vdW  Elec       q    Type
REMARK                         _______ _______ _______ _____ _____    ______ ____
ROOT
ATOM      1  N   UNL     1      33.444 -15.407 -25.876  0.00  0.00    -0.324 NA
ATOM      2  N   UNL     1      34.224 -17.523 -25.347  0.00  0.00    -0.272 NA
ATOM      3  N   UNL     1      35.220 -17.998 -23.208  0.00  0.00    -0.169 NA
ATOM      4  N   UNL     1      35.006 -19.674 -24.829  0.00  0.00    -0.292 N 
ATOM      5  C   UNL     1      33.601 -13.590 -24.293  0.00  0.00    +0.051 C 
ATOM      6  C   UNL     1      34.198 -14.448 -23.387  0.00  0.00    +0.018 C 
ATOM      7  C   UNL     1      34.413 -15.789 -23.741  0.00  0.00    +0.106 C 
ATOM      8  C   UNL     1      33.245 -14.117 -25.517  0.00  0.00    +0.190 C 
ATOM      9  C   UNL     1      34.022 -16.246 -25.005  0.00  0.00    +0.152 C 
ATOM     10  C   UNL     1      35.008 -16.712 -22.885  0.00  0.00    +0.124 C 
ATOM     11  C   UNL     1      34.809 -18.331 -24.439  0.00  0.00    +0.152 C 
ATOM     12  H   UNL     1      34.724 -19.974 -25.723  0.00  0.00    +0.155 HD
ATOM     13  H   UNL     1      35.428 -20.310 -24.207  0.00  0.00    +0.155 HD
ATOM     14  N   UNL     1      32.631 -13.265 -26.470  0.00  0.00    -0.332 N 
ATOM     15  H   UNL     1      32.368 -13.620 -27.351  0.00  0.00    +0.145 HD
ATOM     16  H   UNL     1      32.467 -12.319 -26.252  0.00  0.00    +0.145 HD
ENDROOT
BRANCH   5  17
ATOM     17  C   UNL     1      33.378 -12.206 -23.934  0.00  0.00    +0.072 C 
ATOM     18  C   UNL     1      34.034 -11.190 -24.629  0.00  0.00    +0.142 C 
ATOM     19  C   UNL     1      32.506 -11.887 -22.892  0.00  0.00    +0.142 C 
ATOM     20  C   UNL     1      33.819  -9.856 -24.283  0.00  0.00    +0.037 C 
ATOM     21  C   UNL     1      32.292 -10.553 -22.545  0.00  0.00    +0.037 C 
ATOM     22  C   UNL     1      32.948  -9.538 -23.240  0.00  0.00    +0.006 C 
BRANCH  18  23
ATOM     23  O   UNL     1      34.892 -11.471 -25.651  0.00  0.00    -0.471 OA
ATOM     24  C   UNL     1      35.622 -10.377 -26.200  0.00  0.00    +0.252 C 
ENDBRANCH  18  23
BRANCH  19  25
ATOM     25  O   UNL     1      31.851 -12.858 -22.193  0.00  0.00    -0.471 OA
ATOM     26  C   UNL     1      31.945 -12.806 -20.771  0.00  0.00    +0.252 C 
ENDBRANCH  19  25
ENDBRANCH   5  17
TORSDOF 3
ENDMDL
MODEL 8
REMARK VINA RESULT:      -8.5      4.818      7.451
REMARK  Name = 21850055
REMARK  3 active torsions:
REMARK  status: ('A' for Active; 'I' for Inactive)
REMARK    1  A    between atoms: C_5  and  C_14
REMARK    2  A    between atoms: C_15  and  O_20
REMARK    3  A    between atoms: C_16  and  O_22
REMARK                            x       y       z     vdW  Elec       q    Type
REMARK                         _______ _______ _______ _____ _____    ______ ____
ROOT
ATOM      1  N   UNL     1      33.429 -15.415 -25.899  0.00  0.00    -0.324 NA
ATOM      2  N   UNL     1      34.213 -17.537 -25.398  0.00  0.00    -0.272 NA
ATOM      3  N   UNL     1      35.239 -18.030 -23.277  0.00  0.00    -0.169 NA
ATOM      4  N   UNL     1      34.999 -19.692 -24.908  0.00  0.00    -0.292 N 
ATOM      5  C   UNL     1      33.611 -13.611 -24.304  0.00  0.00    +0.051 C 
ATOM      6  C   UNL     1      34.220 -14.477 -23.413  0.00  0.00    +0.018 C 
ATOM      7  C   UNL     1      34.427 -15.815 -23.781  0.00  0.00    +0.106 C 
ATOM      8  C   UNL     1      33.236 -14.127 -25.526  0.00  0.00    +0.190 C 
ATOM      9  C   UNL     1      34.018 -16.261 -25.043  0.00  0.00    +0.152 C 
ATOM     10  C   UNL     1      35.033 -16.745 -22.941  0.00  0.00    +0.124 C 
ATOM     11  C   UNL     1      34.809 -18.352 -24.504  0.00  0.00    +0.152 C 
ATOM     12  H   UNL     1      34.703 -19.985 -25.800  0.00  0.00    +0.155 HD
ATOM     13  H   UNL     1      35.429 -20.334 -24.297  0.00  0.00    +0.155 HD
ATOM     14  N   UNL     1      32.610 -13.267 -26.464  0.00  0.00    -0.332 N 
ATOM     15  H   UNL     1      32.334 -13.615 -27.344  0.00  0.00    +0.145 HD
ATOM     16  H   UNL     1      32.451 -12.323 -26.237  0.00  0.00    +0.145 HD
ENDROOT
BRANCH   5  17
ATOM     17  C   UNL     1      33.394 -12.229 -23.931  0.00  0.00    +0.072 C 
ATOM     18  C   UNL     1      32.534 -11.918 -22.878  0.00  0.00    +0.142 C 
ATOM     19  C   UNL     1      34.046 -11.209 -24.623  0.00  0.00    +0.142 C 
ATOM     20  C   UNL     1      32.325 -10.587 -22.519  0.00  0.00    +0.037 C 
ATOM     21  C   UNL     1      33.837  -9.877 -24.264  0.00  0.00    +0.037 C 
ATOM     22  C   UNL     1      32.976  -9.566 -23.212  0.00  0.00    +0.006 C 
BRANCH  18  23
ATOM     23  O   UNL     1      31.882 -12.893 -22.183  0.00  0.00    -0.471 OA
ATOM     24  C   UNL     1      32.007 -12.869 -20.764  0.00  0.00    +0.252 C 
ENDBRANCH  18  23
BRANCH  19  25
ATOM     25  O   UNL     1      34.893 -11.482 -25.658  0.00  0.00    -0.471 OA
ATOM     26  C   UNL     1      35.617 -10.384 -26.208  0.00  0.00    +0.252 C 
ENDBRANCH  19  25
ENDBRANCH   5  17
TORSDOF 3
ENDMDL
MODEL 9
REMARK VINA RESULT:      -7.7      6.971      9.889
REMARK  Name = 21850055
REMARK  3 active torsions:
REMARK  status: ('A' for Active; 'I' for Inactive)
REMARK    1  A    between atoms: C_5  and  C_14
REMARK    2  A    between atoms: C_15  and  O_20
REMARK    3  A    between atoms: C_16  and  O_22
REMARK                            x       y       z     vdW  Elec       q    Type
REMARK                         _______ _______ _______ _____ _____    ______ ____
ROOT
ATOM      1  N   UNL     1      32.896 -23.990 -13.850  0.00  0.00    -0.324 NA
ATOM      2  N   UNL     1      31.299 -23.169 -15.314  0.00  0.00    -0.272 NA
ATOM      3  N   UNL     1      31.821 -22.720 -17.621  0.00  0.00    -0.169 NA
ATOM      4  N   UNL     1      29.668 -22.340 -16.783  0.00  0.00    -0.292 N 
ATOM      5  C   UNL     1      35.154 -24.428 -14.586  0.00  0.00    +0.051 C 
ATOM      6  C   UNL     1      34.807 -24.005 -15.857  0.00  0.00    +0.018 C 
ATOM      7  C   UNL     1      33.496 -23.575 -16.110  0.00  0.00    +0.106 C 
ATOM      8  C   UNL     1      34.166 -24.402 -13.624  0.00  0.00    +0.190 C 
ATOM      9  C   UNL     1      32.551 -23.578 -15.078  0.00  0.00    +0.152 C 
ATOM     10  C   UNL     1      33.073 -23.134 -17.362  0.00  0.00    +0.124 C 
ATOM     11  C   UNL     1      30.998 -22.763 -16.565  0.00  0.00    +0.152 C 
ATOM     12  H   UNL     1      29.020 -22.350 -16.042  0.00  0.00    +0.155 HD
ATOM     13  H   UNL     1      29.390 -22.034 -17.676  0.00  0.00    +0.155 HD
ATOM     14  N   UNL     1      34.486 -24.828 -12.310  0.00  0.00    -0.332 N 
ATOM     15  H   UNL     1      33.796 -24.817 -11.607  0.00  0.00    +0.145 HD
ATOM     16  H   UNL     1      35.398 -25.135 -12.100  0.00  0.00    +0.145 HD
ENDROOT
BRANCH   5  17
ATOM     17  C   UNL     1      36.505 -24.872 -14.319  0.00  0.00    +0.072 C 
ATOM     18  C   UNL     1      37.343 -24.106 -13.509  0.00  0.00    +0.142 C 
ATOM     19  C   UNL     1      36.969 -26.067 -14.871  0.00  0.00    +0.142 C 
ATOM     20  C   UNL     1      38.646 -24.534 -13.252  0.00  0.00    +0.037 C 
ATOM     21  C   UNL     1      38.272 -26.494 -14.614  0.00  0.00    +0.037 C 
ATOM     22  C   UNL     1      39.110 -25.728 -13.805  0.00  0.00    +0.006 C 
BRANCH  18  23
ATOM     23  O   UNL     1      36.918 -22.935 -12.956  0.00  0.00    -0.471 OA
ATOM     24  C   UNL     1      37.181 -22.742 -11.569  0.00  0.00    +0.252 C 
ENDBRANCH  18  23
BRANCH  19  25
ATOM     25  O   UNL     1      36.173 -26.836 -15.668  0.00  0.00    -0.471 OA
ATOM     26  C   UNL     1      36.827 -27.693 -16.602  0.00  0.00    +0.252 C 
ENDBRANCH  19  25
ENDBRANCH   5  17
TORSDOF 3
ENDMDL
