MODEL 1
REMARK VINA RESULT:      -9.7      0.000      0.000
REMARK  Name = 5289054
REMARK  6 active torsions:
REMARK  status: ('A' for Active; 'I' for Inactive)
REMARK    1  A    between atoms: C_7  and  O_20
REMARK    2  A    between atoms: O_20  and  C_22
REMARK    3  A    between atoms: C_22  and  C_23
REMARK    4  A    between atoms: C_23  and  C_24
REMARK    5  A    between atoms: C_24  and  C_26
REMARK    6  A    between atoms: C_26  and  O_27
REMARK                            x       y       z     vdW  Elec       q    Type
REMARK                         _______ _______ _______ _____ _____    ______ ____
ROOT
ATOM      1  O   UNL     1      34.663 -24.220 -12.570  0.00  0.00    -0.291 OA
ATOM      2  C   UNL     1      34.222 -20.913 -19.476  0.00  0.00    +0.003 C 
ATOM      3  C   UNL     1      35.552 -20.810 -20.250  0.00  0.00    +0.037 C 
ATOM      4  C   UNL     1      34.168 -22.140 -18.564  0.00  0.00    +0.001 C 
ATOM      5  C   UNL     1      35.323 -22.046 -17.523  0.00  0.00    +0.004 C 
ATOM      6  C   UNL     1      36.681 -20.652 -19.221  0.00  0.00    +0.003 C 
ATOM      7  C   UNL     1      35.259 -19.587 -21.145  0.00  0.00    +0.169 C 
ATOM      8  C   UNL     1      33.162 -20.757 -20.561  0.00  0.00    +0.004 C 
ATOM      9  C   UNL     1      36.694 -21.806 -18.202  0.00  0.00    +0.000 C 
ATOM     10  C   UNL     1      35.333 -23.290 -16.581  0.00  0.00    +0.019 C 
ATOM     11  C   UNL     1      33.786 -19.771 -21.568  0.00  0.00    +0.044 C 
ATOM     12  C   UNL     1      32.822 -22.259 -17.838  0.00  0.00    +0.004 C 
ATOM     13  C   UNL     1      35.851 -22.022 -21.169  0.00  0.00    +0.004 C 
ATOM     14  C   UNL     1      32.793 -23.499 -16.952  0.00  0.00    +0.022 C 
ATOM     15  C   UNL     1      33.953 -23.542 -15.988  0.00  0.00    -0.042 C 
ATOM     16  C   UNL     1      36.406 -23.126 -15.486  0.00  0.00    +0.012 C 
ATOM     17  C   UNL     1      36.252 -24.136 -14.362  0.00  0.00    +0.069 C 
ATOM     18  C   UNL     1      33.736 -23.833 -14.696  0.00  0.00    +0.029 C 
ATOM     19  C   UNL     1      34.871 -24.045 -13.768  0.00  0.00    +0.173 C 
ENDROOT
BRANCH   7  20
ATOM     20  O   UNL     1      35.382 -18.373 -20.411  0.00  0.00    -0.452 OA
BRANCH  20  22
ATOM     21  O   UNL     1      34.914 -16.134 -20.712  0.00  0.00    -0.250 OA
ATOM     22  C   UNL     1      35.273 -17.221 -21.144  0.00  0.00    +0.317 C 
BRANCH  22  23
ATOM     23  C   UNL     1      35.664 -17.509 -22.578  0.00  0.00    +0.121 C 
BRANCH  23  24
ATOM     24  C   UNL     1      35.007 -16.567 -23.579  0.00  0.00    +0.121 C 
BRANCH  24  26
ATOM     25  O   UNL     1      34.442 -18.497 -24.919  0.00  0.00    -0.250 OA
ATOM     26  C   UNL     1      34.636 -17.290 -24.850  0.00  0.00    +0.314 C 
BRANCH  26  27
ATOM     27  O   UNL     1      34.517 -16.455 -25.911  0.00  0.00    -0.480 OA
ATOM     28  H   UNL     1      35.222 -15.880 -26.137  0.00  0.00    +0.295 HD
ENDBRANCH  26  27
ENDBRANCH  24  26
ENDBRANCH  23  24
ENDBRANCH  22  23
ENDBRANCH  20  22
ENDBRANCH   7  20
TORSDOF 6
ENDMDL
MODEL 2
REMARK VINA RESULT:      -9.4      6.851     10.645
REMARK  Name = 5289054
REMARK  6 active torsions:
REMARK  status: ('A' for Active; 'I' for Inactive)
REMARK    1  A    between atoms: C_7  and  O_20
REMARK    2  A    between atoms: O_20  and  C_22
REMARK    3  A    between atoms: C_22  and  C_23
REMARK    4  A    between atoms: C_23  and  C_24
REMARK    5  A    between atoms: C_24  and  C_26
REMARK    6  A    between atoms: C_26  and  O_27
REMARK                            x       y       z     vdW  Elec       q    Type
REMARK                         _______ _______ _______ _____ _____    ______ ____
ROOT
ATOM      1  O   UNL     1      35.876 -18.025 -23.289  0.00  0.00    -0.291 OA
ATOM      2  C   UNL     1      32.190 -11.866 -20.587  0.00  0.00    +0.003 C 
ATOM      3  C   UNL     1      31.661 -10.887 -21.654  0.00  0.00    +0.037 C 
ATOM      4  C   UNL     1      32.213 -13.315 -21.079  0.00  0.00    +0.001 C 
ATOM      5  C   UNL     1      33.146 -13.410 -22.323  0.00  0.00    +0.004 C 
ATOM      6  C   UNL     1      32.621 -10.936 -22.852  0.00  0.00    +0.003 C 
ATOM      7  C   UNL     1      31.640  -9.575 -20.842  0.00  0.00    +0.169 C 
ATOM      8  C   UNL     1      31.370 -11.525 -19.347  0.00  0.00    +0.004 C 
ATOM      9  C   UNL     1      32.775 -12.365 -23.405  0.00  0.00    +0.000 C 
ATOM     10  C   UNL     1      33.184 -14.864 -22.886  0.00  0.00    +0.019 C 
ATOM     11  C   UNL     1      31.147 -10.003 -19.443  0.00  0.00    +0.044 C 
ATOM     12  C   UNL     1      32.693 -14.285 -19.993  0.00  0.00    +0.004 C 
ATOM     13  C   UNL     1      30.217 -11.183 -22.132  0.00  0.00    +0.004 C 
ATOM     14  C   UNL     1      32.686 -15.720 -20.509  0.00  0.00    +0.022 C 
ATOM     15  C   UNL     1      33.478 -15.874 -21.784  0.00  0.00    -0.042 C 
ATOM     16  C   UNL     1      34.200 -14.966 -24.043  0.00  0.00    +0.012 C 
ATOM     17  C   UNL     1      34.517 -16.404 -24.415  0.00  0.00    +0.069 C 
ATOM     18  C   UNL     1      34.350 -16.886 -21.910  0.00  0.00    +0.029 C 
ATOM     19  C   UNL     1      35.012 -17.156 -23.208  0.00  0.00    +0.173 C 
ENDROOT
BRANCH   7  20
ATOM     20  O   UNL     1      32.948  -9.024 -20.722  0.00  0.00    -0.452 OA
BRANCH  20  22
ATOM     21  O   UNL     1      33.016  -7.022 -19.578  0.00  0.00    -0.250 OA
ATOM     22  C   UNL     1      33.013  -7.660 -20.622  0.00  0.00    +0.317 C 
BRANCH  22  23
ATOM     23  C   UNL     1      33.076  -7.065 -22.013  0.00  0.00    +0.121 C 
BRANCH  23  24
ATOM     24  C   UNL     1      31.879  -6.183 -22.342  0.00  0.00    +0.121 C 
BRANCH  24  26
ATOM     25  O   UNL     1      30.863  -7.820 -23.801  0.00  0.00    -0.250 OA
ATOM     26  C   UNL     1      31.177  -6.654 -23.592  0.00  0.00    +0.314 C 
BRANCH  26  27
ATOM     27  O   UNL     1      30.909  -5.644 -24.455  0.00  0.00    -0.480 OA
ATOM     28  H   UNL     1      31.544  -5.396 -25.098  0.00  0.00    +0.295 HD
ENDBRANCH  26  27
ENDBRANCH  24  26
ENDBRANCH  23  24
ENDBRANCH  22  23
ENDBRANCH  20  22
ENDBRANCH   7  20
TORSDOF 6
ENDMDL
MODEL 3
REMARK VINA RESULT:      -9.4      2.772      8.748
REMARK  Name = 5289054
REMARK  6 active torsions:
REMARK  status: ('A' for Active; 'I' for Inactive)
REMARK    1  A    between atoms: C_7  and  O_20
REMARK    2  A    between atoms: O_20  and  C_22
REMARK    3  A    between atoms: C_22  and  C_23
REMARK    4  A    between atoms: C_23  and  C_24
REMARK    5  A    between atoms: C_24  and  C_26
REMARK    6  A    between atoms: C_26  and  O_27
REMARK                            x       y       z     vdW  Elec       q    Type
REMARK                         _______ _______ _______ _____ _____    ______ ____
ROOT
ATOM      1  O   UNL     1      35.305 -19.341 -23.375  0.00  0.00    -0.291 OA
ATOM      2  C   UNL     1      34.994 -23.336 -16.836  0.00  0.00    +0.003 C 
ATOM      3  C   UNL     1      36.101 -23.019 -15.810  0.00  0.00    +0.037 C 
ATOM      4  C   UNL     1      34.624 -22.124 -17.693  0.00  0.00    +0.001 C 
ATOM      5  C   UNL     1      35.887 -21.658 -18.478  0.00  0.00    +0.004 C 
ATOM      6  C   UNL     1      37.363 -22.623 -16.590  0.00  0.00    +0.003 C 
ATOM      7  C   UNL     1      36.158 -24.356 -15.040  0.00  0.00    +0.169 C 
ATOM      8  C   UNL     1      33.907 -24.002 -15.998  0.00  0.00    +0.004 C 
ATOM      9  C   UNL     1      37.101 -21.441 -17.541  0.00  0.00    +0.000 C 
ATOM     10  C   UNL     1      35.573 -20.402 -19.349  0.00  0.00    +0.019 C 
ATOM     11  C   UNL     1      34.681 -24.789 -14.922  0.00  0.00    +0.044 C 
ATOM     12  C   UNL     1      33.488 -22.438 -18.674  0.00  0.00    +0.004 C 
ATOM     13  C   UNL     1      35.737 -21.898 -14.804  0.00  0.00    +0.004 C 
ATOM     14  C   UNL     1      33.132 -21.206 -19.500  0.00  0.00    +0.022 C 
ATOM     15  C   UNL     1      34.331 -20.621 -20.204  0.00  0.00    -0.042 C 
ATOM     16  C   UNL     1      36.799 -20.024 -20.207  0.00  0.00    +0.012 C 
ATOM     17  C   UNL     1      36.461 -19.025 -21.300  0.00  0.00    +0.069 C 
ATOM     18  C   UNL     1      34.247 -20.288 -21.501  0.00  0.00    +0.029 C 
ATOM     19  C   UNL     1      35.352 -19.560 -22.167  0.00  0.00    +0.173 C 
ENDROOT
BRANCH   7  20
ATOM     20  O   UNL     1      36.871 -25.343 -15.779  0.00  0.00    -0.452 OA
BRANCH  20  22
ATOM     21  O   UNL     1      36.775 -27.616 -15.400  0.00  0.00    -0.250 OA
ATOM     22  C   UNL     1      37.166 -26.496 -15.101  0.00  0.00    +0.317 C 
BRANCH  22  23
ATOM     23  C   UNL     1      38.051 -26.163 -13.918  0.00  0.00    +0.121 C 
BRANCH  23  24
ATOM     24  C   UNL     1      39.197 -25.225 -14.274  0.00  0.00    +0.121 C 
BRANCH  24  26
ATOM     25  O   UNL     1      41.169 -26.605 -14.063  0.00  0.00    -0.250 OA
ATOM     26  C   UNL     1      40.393 -25.989 -14.784  0.00  0.00    +0.314 C 
BRANCH  26  27
ATOM     27  O   UNL     1      40.509 -25.943 -16.133  0.00  0.00    -0.480 OA
ATOM     28  H   UNL     1      40.156 -25.217 -16.609  0.00  0.00    +0.295 HD
ENDBRANCH  26  27
ENDBRANCH  24  26
ENDBRANCH  23  24
ENDBRANCH  22  23
ENDBRANCH  20  22
ENDBRANCH   7  20
TORSDOF 6
ENDMDL
MODEL 4
REMARK VINA RESULT:      -9.3      1.278      1.653
REMARK  Name = 5289054
REMARK  6 active torsions:
REMARK  status: ('A' for Active; 'I' for Inactive)
REMARK    1  A    between atoms: C_7  and  O_20
REMARK    2  A    between atoms: O_20  and  C_22
REMARK    3  A    between atoms: C_22  and  C_23
REMARK    4  A    between atoms: C_23  and  C_24
REMARK    5  A    between atoms: C_24  and  C_26
REMARK    6  A    between atoms: C_26  and  O_27
REMARK                            x       y       z     vdW  Elec       q    Type
REMARK                         _______ _______ _______ _____ _____    ______ ____
ROOT
ATOM      1  O   UNL     1      34.703 -24.040 -12.489  0.00  0.00    -0.291 OA
ATOM      2  C   UNL     1      34.245 -20.950 -19.493  0.00  0.00    +0.003 C 
ATOM      3  C   UNL     1      35.578 -20.847 -20.263  0.00  0.00    +0.037 C 
ATOM      4  C   UNL     1      34.207 -22.150 -18.545  0.00  0.00    +0.001 C 
ATOM      5  C   UNL     1      35.354 -22.004 -17.501  0.00  0.00    +0.004 C 
ATOM      6  C   UNL     1      36.698 -20.638 -19.233  0.00  0.00    +0.003 C 
ATOM      7  C   UNL     1      35.269 -19.656 -21.196  0.00  0.00    +0.169 C 
ATOM      8  C   UNL     1      33.189 -20.846 -20.589  0.00  0.00    +0.004 C 
ATOM      9  C   UNL     1      36.725 -21.760 -18.180  0.00  0.00    +0.000 C 
ATOM     10  C   UNL     1      35.381 -23.219 -16.523  0.00  0.00    +0.019 C 
ATOM     11  C   UNL     1      33.802 -19.880 -21.621  0.00  0.00    +0.044 C 
ATOM     12  C   UNL     1      32.859 -22.271 -17.824  0.00  0.00    +0.004 C 
ATOM     13  C   UNL     1      35.904 -22.080 -21.144  0.00  0.00    +0.004 C 
ATOM     14  C   UNL     1      32.847 -23.485 -16.901  0.00  0.00    +0.022 C 
ATOM     15  C   UNL     1      34.002 -23.478 -15.929  0.00  0.00    -0.042 C 
ATOM     16  C   UNL     1      36.445 -23.003 -15.427  0.00  0.00    +0.012 C 
ATOM     17  C   UNL     1      36.302 -23.982 -14.274  0.00  0.00    +0.069 C 
ATOM     18  C   UNL     1      33.782 -23.734 -14.630  0.00  0.00    +0.029 C 
ATOM     19  C   UNL     1      34.916 -23.898 -13.691  0.00  0.00    +0.173 C 
ENDROOT
BRANCH   7  20
ATOM     20  O   UNL     1      35.365 -18.419 -20.498  0.00  0.00    -0.452 OA
BRANCH  20  22
ATOM     21  O   UNL     1      35.781 -17.143 -22.374  0.00  0.00    -0.250 OA
ATOM     22  C   UNL     1      35.275 -17.291 -21.271  0.00  0.00    +0.317 C 
BRANCH  22  23
ATOM     23  C   UNL     1      34.450 -16.254 -20.537  0.00  0.00    +0.121 C 
BRANCH  23  24
ATOM     24  C   UNL     1      34.377 -14.921 -21.270  0.00  0.00    +0.121 C 
BRANCH  24  26
ATOM     25  O   UNL     1      32.101 -14.467 -21.945  0.00  0.00    -0.250 OA
ATOM     26  C   UNL     1      33.215 -14.887 -22.232  0.00  0.00    +0.314 C 
BRANCH  26  27
ATOM     27  O   UNL     1      33.541 -15.353 -23.463  0.00  0.00    -0.480 OA
ATOM     28  H   UNL     1      32.901 -15.803 -23.979  0.00  0.00    +0.295 HD
ENDBRANCH  26  27
ENDBRANCH  24  26
ENDBRANCH  23  24
ENDBRANCH  22  23
ENDBRANCH  20  22
ENDBRANCH   7  20
TORSDOF 6
ENDMDL
MODEL 5
REMARK VINA RESULT:      -9.2      6.082      8.696
REMARK  Name = 5289054
REMARK  6 active torsions:
REMARK  status: ('A' for Active; 'I' for Inactive)
REMARK    1  A    between atoms: C_7  and  O_20
REMARK    2  A    between atoms: O_20  and  C_22
REMARK    3  A    between atoms: C_22  and  C_23
REMARK    4  A    between atoms: C_23  and  C_24
REMARK    5  A    between atoms: C_24  and  C_26
REMARK    6  A    between atoms: C_26  and  O_27
REMARK                            x       y       z     vdW  Elec       q    Type
REMARK                         _______ _______ _______ _____ _____    ______ ____
ROOT
ATOM      1  O   UNL     1      27.401 -22.798 -15.482  0.00  0.00    -0.291 OA
ATOM      2  C   UNL     1      35.058 -23.207 -15.361  0.00  0.00    +0.003 C 
ATOM      3  C   UNL     1      35.650 -24.350 -14.510  0.00  0.00    +0.037 C 
ATOM      4  C   UNL     1      33.699 -23.568 -15.963  0.00  0.00    +0.001 C 
ATOM      5  C   UNL     1      32.700 -23.872 -14.808  0.00  0.00    +0.004 C 
ATOM      6  C   UNL     1      34.693 -24.602 -13.335  0.00  0.00    +0.003 C 
ATOM      7  C   UNL     1      37.029 -23.750 -14.159  0.00  0.00    +0.169 C 
ATOM      8  C   UNL     1      36.201 -22.829 -16.298  0.00  0.00    +0.004 C 
ATOM      9  C   UNL     1      33.266 -24.919 -13.816  0.00  0.00    +0.000 C 
ATOM     10  C   UNL     1      31.301 -24.276 -15.367  0.00  0.00    +0.019 C 
ATOM     11  C   UNL     1      37.473 -23.040 -15.456  0.00  0.00    +0.044 C 
ATOM     12  C   UNL     1      33.145 -22.444 -16.848  0.00  0.00    +0.004 C 
ATOM     13  C   UNL     1      35.880 -25.671 -15.286  0.00  0.00    +0.004 C 
ATOM     14  C   UNL     1      31.800 -22.841 -17.447  0.00  0.00    +0.022 C 
ATOM     15  C   UNL     1      30.806 -23.264 -16.394  0.00  0.00    -0.042 C 
ATOM     16  C   UNL     1      30.293 -24.460 -14.214  0.00  0.00    +0.012 C 
ATOM     17  C   UNL     1      28.856 -24.534 -14.700  0.00  0.00    +0.069 C 
ATOM     18  C   UNL     1      29.554 -22.782 -16.426  0.00  0.00    +0.029 C 
ATOM     19  C   UNL     1      28.518 -23.309 -15.507  0.00  0.00    +0.173 C 
ENDROOT
BRANCH   7  20
ATOM     20  O   UNL     1      36.919 -22.785 -13.118  0.00  0.00    -0.452 OA
BRANCH  20  22
ATOM     21  O   UNL     1      37.070 -22.888 -10.818  0.00  0.00    -0.250 OA
ATOM     22  C   UNL     1      37.519 -23.119 -11.932  0.00  0.00    +0.317 C 
BRANCH  22  23
ATOM     23  C   UNL     1      38.832 -23.815 -12.222  0.00  0.00    +0.121 C 
BRANCH  23  24
ATOM     24  C   UNL     1      38.665 -25.292 -12.554  0.00  0.00    +0.121 C 
BRANCH  24  26
ATOM     25  O   UNL     1      39.281 -26.640 -14.463  0.00  0.00    -0.250 OA
ATOM     26  C   UNL     1      39.525 -25.692 -13.728  0.00  0.00    +0.314 C 
BRANCH  26  27
ATOM     27  O   UNL     1      40.591 -24.872 -13.898  0.00  0.00    -0.480 OA
ATOM     28  H   UNL     1      40.458 -23.962 -14.080  0.00  0.00    +0.295 HD
ENDBRANCH  26  27
ENDBRANCH  24  26
ENDBRANCH  23  24
ENDBRANCH  22  23
ENDBRANCH  20  22
ENDBRANCH   7  20
TORSDOF 6
ENDMDL
MODEL 6
REMARK VINA RESULT:      -9.2      2.750      8.146
REMARK  Name = 5289054
REMARK  6 active torsions:
REMARK  status: ('A' for Active; 'I' for Inactive)
REMARK    1  A    between atoms: C_7  and  O_20
REMARK    2  A    between atoms: O_20  and  C_22
REMARK    3  A    between atoms: C_22  and  C_23
REMARK    4  A    between atoms: C_23  and  C_24
REMARK    5  A    between atoms: C_24  and  C_26
REMARK    6  A    between atoms: C_26  and  O_27
REMARK                            x       y       z     vdW  Elec       q    Type
REMARK                         _______ _______ _______ _____ _____    ______ ____
ROOT
ATOM      1  O   UNL     1      35.720 -17.208 -22.447  0.00  0.00    -0.291 OA
ATOM      2  C   UNL     1      34.842 -22.576 -17.042  0.00  0.00    +0.003 C 
ATOM      3  C   UNL     1      33.554 -23.418 -17.144  0.00  0.00    +0.037 C 
ATOM      4  C   UNL     1      35.348 -22.110 -18.408  0.00  0.00    +0.001 C 
ATOM      5  C   UNL     1      34.252 -21.230 -19.079  0.00  0.00    +0.004 C 
ATOM      6  C   UNL     1      32.458 -22.526 -17.745  0.00  0.00    +0.003 C 
ATOM      7  C   UNL     1      33.374 -23.831 -15.667  0.00  0.00    +0.169 C 
ATOM      8  C   UNL     1      35.760 -23.428 -16.170  0.00  0.00    +0.004 C 
ATOM      9  C   UNL     1      32.877 -21.943 -19.108  0.00  0.00    +0.000 C 
ATOM     10  C   UNL     1      34.704 -20.750 -20.492  0.00  0.00    +0.019 C 
ATOM     11  C   UNL     1      34.808 -24.124 -15.178  0.00  0.00    +0.044 C 
ATOM     12  C   UNL     1      36.656 -21.318 -18.298  0.00  0.00    +0.004 C 
ATOM     13  C   UNL     1      33.699 -24.707 -17.992  0.00  0.00    +0.004 C 
ATOM     14  C   UNL     1      37.143 -20.884 -19.676  0.00  0.00    +0.022 C 
ATOM     15  C   UNL     1      36.090 -20.120 -20.442  0.00  0.00    -0.042 C 
ATOM     16  C   UNL     1      33.659 -19.787 -21.093  0.00  0.00    +0.012 C 
ATOM     17  C   UNL     1      34.183 -19.041 -22.308  0.00  0.00    +0.069 C 
ATOM     18  C   UNL     1      36.416 -18.976 -21.064  0.00  0.00    +0.029 C 
ATOM     19  C   UNL     1      35.446 -18.300 -21.957  0.00  0.00    +0.173 C 
ENDROOT
BRANCH   7  20
ATOM     20  O   UNL     1      32.832 -22.762 -14.899  0.00  0.00    -0.452 OA
BRANCH  20  22
ATOM     21  O   UNL     1      32.091 -23.110 -12.742  0.00  0.00    -0.250 OA
ATOM     22  C   UNL     1      31.908 -23.118 -13.951  0.00  0.00    +0.317 C 
BRANCH  22  23
ATOM     23  C   UNL     1      30.625 -23.528 -14.642  0.00  0.00    +0.121 C 
BRANCH  23  24
ATOM     24  C   UNL     1      29.699 -22.354 -14.930  0.00  0.00    +0.121 C 
BRANCH  24  26
ATOM     25  O   UNL     1      28.959 -22.346 -17.230  0.00  0.00    -0.250 OA
ATOM     26  C   UNL     1      28.755 -22.665 -16.065  0.00  0.00    +0.314 C 
BRANCH  26  27
ATOM     27  O   UNL     1      27.662 -23.358 -15.663  0.00  0.00    -0.480 OA
ATOM     28  H   UNL     1      26.826 -22.936 -15.628  0.00  0.00    +0.295 HD
ENDBRANCH  26  27
ENDBRANCH  24  26
ENDBRANCH  23  24
ENDBRANCH  22  23
ENDBRANCH  20  22
ENDBRANCH   7  20
TORSDOF 6
ENDMDL
MODEL 7
REMARK VINA RESULT:      -9.1      6.489     10.377
REMARK  Name = 5289054
REMARK  6 active torsions:
REMARK  status: ('A' for Active; 'I' for Inactive)
REMARK    1  A    between atoms: C_7  and  O_20
REMARK    2  A    between atoms: O_20  and  C_22
REMARK    3  A    between atoms: C_22  and  C_23
REMARK    4  A    between atoms: C_23  and  C_24
REMARK    5  A    between atoms: C_24  and  C_26
REMARK    6  A    between atoms: C_26  and  O_27
REMARK                            x       y       z     vdW  Elec       q    Type
REMARK                         _______ _______ _______ _____ _____    ______ ____
ROOT
ATOM      1  O   UNL     1      35.927 -18.012 -23.259  0.00  0.00    -0.291 OA
ATOM      2  C   UNL     1      32.191 -11.888 -20.546  0.00  0.00    +0.003 C 
ATOM      3  C   UNL     1      31.678 -10.897 -21.611  0.00  0.00    +0.037 C 
ATOM      4  C   UNL     1      32.223 -13.331 -21.055  0.00  0.00    +0.001 C 
ATOM      5  C   UNL     1      33.176 -13.411 -22.285  0.00  0.00    +0.004 C 
ATOM      6  C   UNL     1      32.657 -10.932 -22.794  0.00  0.00    +0.003 C 
ATOM      7  C   UNL     1      31.643  -9.594 -20.784  0.00  0.00    +0.169 C 
ATOM      8  C   UNL     1      31.351 -11.561 -19.316  0.00  0.00    +0.004 C 
ATOM      9  C   UNL     1      32.822 -12.354 -23.360  0.00  0.00    +0.000 C 
ATOM     10  C   UNL     1      33.225 -14.859 -22.864  0.00  0.00    +0.019 C 
ATOM     11  C   UNL     1      31.127 -10.039 -19.399  0.00  0.00    +0.044 C 
ATOM     12  C   UNL     1      32.687 -14.312 -19.972  0.00  0.00    +0.004 C 
ATOM     13  C   UNL     1      30.242 -11.189 -22.116  0.00  0.00    +0.004 C 
ATOM     14  C   UNL     1      32.691 -15.741 -20.504  0.00  0.00    +0.022 C 
ATOM     15  C   UNL     1      33.503 -15.881 -21.769  0.00  0.00    -0.042 C 
ATOM     16  C   UNL     1      34.259 -14.947 -24.005  0.00  0.00    +0.012 C 
ATOM     17  C   UNL     1      34.585 -16.380 -24.389  0.00  0.00    +0.069 C 
ATOM     18  C   UNL     1      34.378 -16.890 -21.892  0.00  0.00    +0.029 C 
ATOM     19  C   UNL     1      35.061 -17.145 -23.182  0.00  0.00    +0.173 C 
ENDROOT
BRANCH   7  20
ATOM     20  O   UNL     1      32.948  -9.044 -20.637  0.00  0.00    -0.452 OA
BRANCH  20  22
ATOM     21  O   UNL     1      32.964  -6.959 -19.650  0.00  0.00    -0.250 OA
ATOM     22  C   UNL     1      33.021  -7.676 -20.639  0.00  0.00    +0.317 C 
BRANCH  22  23
ATOM     23  C   UNL     1      33.180  -7.192 -22.065  0.00  0.00    +0.121 C 
BRANCH  23  24
ATOM     24  C   UNL     1      34.495  -7.622 -22.701  0.00  0.00    +0.121 C 
BRANCH  24  26
ATOM     25  O   UNL     1      34.763  -8.726 -24.834  0.00  0.00    -0.250 OA
ATOM     26  C   UNL     1      34.363  -7.758 -24.197  0.00  0.00    +0.314 C 
BRANCH  26  27
ATOM     27  O   UNL     1      33.732  -6.702 -24.766  0.00  0.00    -0.480 OA
ATOM     28  H   UNL     1      33.420  -6.762 -25.648  0.00  0.00    +0.295 HD
ENDBRANCH  26  27
ENDBRANCH  24  26
ENDBRANCH  23  24
ENDBRANCH  22  23
ENDBRANCH  20  22
ENDBRANCH   7  20
TORSDOF 6
ENDMDL
MODEL 8
REMARK VINA RESULT:      -8.8     10.653     16.182
REMARK  Name = 5289054
REMARK  6 active torsions:
REMARK  status: ('A' for Active; 'I' for Inactive)
REMARK    1  A    between atoms: C_7  and  O_20
REMARK    2  A    between atoms: O_20  and  C_22
REMARK    3  A    between atoms: C_22  and  C_23
REMARK    4  A    between atoms: C_23  and  C_24
REMARK    5  A    between atoms: C_24  and  C_26
REMARK    6  A    between atoms: C_26  and  O_27
REMARK                            x       y       z     vdW  Elec       q    Type
REMARK                         _______ _______ _______ _____ _____    ______ ____
ROOT
ATOM      1  O   UNL     1      32.935  -2.459 -29.300  0.00  0.00    -0.291 OA
ATOM      2  C   UNL     1      32.134  -7.686 -23.746  0.00  0.00    +0.003 C 
ATOM      3  C   UNL     1      33.448  -8.273 -23.191  0.00  0.00    +0.037 C 
ATOM      4  C   UNL     1      32.292  -6.242 -24.224  0.00  0.00    +0.001 C 
ATOM      5  C   UNL     1      33.355  -6.201 -25.362  0.00  0.00    +0.004 C 
ATOM      6  C   UNL     1      34.473  -8.291 -24.335  0.00  0.00    +0.003 C 
ATOM      7  C   UNL     1      32.950  -9.646 -22.690  0.00  0.00    +0.169 C 
ATOM      8  C   UNL     1      31.114  -7.991 -22.653  0.00  0.00    +0.004 C 
ATOM      9  C   UNL     1      34.677  -6.892 -24.943  0.00  0.00    +0.000 C 
ATOM     10  C   UNL     1      33.579  -4.742 -25.869  0.00  0.00    +0.019 C 
ATOM     11  C   UNL     1      31.567  -9.345 -22.074  0.00  0.00    +0.044 C 
ATOM     12  C   UNL     1      30.969  -5.653 -24.727  0.00  0.00    +0.004 C 
ATOM     13  C   UNL     1      34.031  -7.500 -21.981  0.00  0.00    +0.004 C 
ATOM     14  C   UNL     1      31.156  -4.209 -25.178  0.00  0.00    +0.022 C 
ATOM     15  C   UNL     1      32.255  -4.067 -26.203  0.00  0.00    -0.042 C 
ATOM     16  C   UNL     1      34.545  -4.734 -27.072  0.00  0.00    +0.012 C 
ATOM     17  C   UNL     1      34.552  -3.404 -27.806  0.00  0.00    +0.069 C 
ATOM     18  C   UNL     1      32.044  -3.339 -27.311  0.00  0.00    +0.029 C 
ATOM     19  C   UNL     1      33.156  -3.047 -28.245  0.00  0.00    +0.173 C 
ENDROOT
BRANCH   7  20
ATOM     20  O   UNL     1      32.786 -10.558 -23.772  0.00  0.00    -0.452 OA
BRANCH  20  22
ATOM     21  O   UNL     1      32.491 -12.473 -22.521  0.00  0.00    -0.250 OA
ATOM     22  C   UNL     1      32.983 -11.880 -23.470  0.00  0.00    +0.317 C 
BRANCH  22  23
ATOM     23  C   UNL     1      33.911 -12.488 -24.500  0.00  0.00    +0.121 C 
BRANCH  23  24
ATOM     24  C   UNL     1      33.552 -12.106 -25.930  0.00  0.00    +0.121 C 
BRANCH  24  26
ATOM     25  O   UNL     1      33.912 -13.543 -27.839  0.00  0.00    -0.250 OA
ATOM     26  C   UNL     1      33.327 -13.329 -26.784  0.00  0.00    +0.314 C 
BRANCH  26  27
ATOM     27  O   UNL     1      32.421 -14.183 -26.248  0.00  0.00    -0.480 OA
ATOM     28  H   UNL     1      31.523 -14.140 -26.511  0.00  0.00    +0.295 HD
ENDBRANCH  26  27
ENDBRANCH  24  26
ENDBRANCH  23  24
ENDBRANCH  22  23
ENDBRANCH  20  22
ENDBRANCH   7  20
TORSDOF 6
ENDMDL
MODEL 9
REMARK VINA RESULT:      -8.8      7.262     10.962
REMARK  Name = 5289054
REMARK  6 active torsions:
REMARK  status: ('A' for Active; 'I' for Inactive)
REMARK    1  A    between atoms: C_7  and  O_20
REMARK    2  A    between atoms: O_20  and  C_22
REMARK    3  A    between atoms: C_22  and  C_23
REMARK    4  A    between atoms: C_23  and  C_24
REMARK    5  A    between atoms: C_24  and  C_26
REMARK    6  A    between atoms: C_26  and  O_27
REMARK                            x       y       z     vdW  Elec       q    Type
REMARK                         _______ _______ _______ _____ _____    ______ ____
ROOT
ATOM      1  O   UNL     1      35.714 -18.077 -22.863  0.00  0.00    -0.291 OA
ATOM      2  C   UNL     1      32.261 -11.594 -20.661  0.00  0.00    +0.003 C 
ATOM      3  C   UNL     1      31.666 -10.737 -21.798  0.00  0.00    +0.037 C 
ATOM      4  C   UNL     1      32.240 -13.090 -20.981  0.00  0.00    +0.001 C 
ATOM      5  C   UNL     1      33.086 -13.342 -22.264  0.00  0.00    +0.004 C 
ATOM      6  C   UNL     1      32.542 -10.940 -23.043  0.00  0.00    +0.003 C 
ATOM      7  C   UNL     1      31.709  -9.339 -21.145  0.00  0.00    +0.169 C 
ATOM      8  C   UNL     1      31.529 -11.098 -19.418  0.00  0.00    +0.004 C 
ATOM      9  C   UNL     1      32.649 -12.425 -23.434  0.00  0.00    +0.000 C 
ATOM     10  C   UNL     1      33.076 -14.853 -22.654  0.00  0.00    +0.019 C 
ATOM     11  C   UNL     1      31.310  -9.595 -19.676  0.00  0.00    +0.044 C 
ATOM     12  C   UNL     1      32.787 -13.933 -19.823  0.00  0.00    +0.004 C 
ATOM     13  C   UNL     1      30.191 -11.067 -22.140  0.00  0.00    +0.004 C 
ATOM     14  C   UNL     1      32.736 -15.418 -20.165  0.00  0.00    +0.022 C 
ATOM     15  C   UNL     1      33.438 -15.731 -21.464  0.00  0.00    -0.042 C 
ATOM     16  C   UNL     1      34.010 -15.104 -23.857  0.00  0.00    +0.012 C 
ATOM     17  C   UNL     1      34.292 -16.580 -24.078  0.00  0.00    +0.069 C 
ATOM     18  C   UNL     1      34.293 -16.764 -21.528  0.00  0.00    +0.029 C 
ATOM     19  C   UNL     1      34.863 -17.192 -22.827  0.00  0.00    +0.173 C 
ENDROOT
BRANCH   7  20
ATOM     20  O   UNL     1      33.026  -8.798 -21.179  0.00  0.00    -0.452 OA
BRANCH  20  22
ATOM     21  O   UNL     1      34.168  -7.687 -22.848  0.00  0.00    -0.250 OA
ATOM     22  C   UNL     1      33.227  -7.778 -22.071  0.00  0.00    +0.317 C 
BRANCH  22  23
ATOM     23  C   UNL     1      32.098  -6.777 -21.941  0.00  0.00    +0.121 C 
BRANCH  23  24
ATOM     24  C   UNL     1      31.626  -6.229 -23.281  0.00  0.00    +0.121 C 
BRANCH  24  26
ATOM     25  O   UNL     1      31.387  -3.889 -23.832  0.00  0.00    -0.250 OA
ATOM     26  C   UNL     1      31.056  -4.840 -23.136  0.00  0.00    +0.314 C 
BRANCH  26  27
ATOM     27  O   UNL     1      30.115  -4.759 -22.163  0.00  0.00    -0.480 OA
ATOM     28  H   UNL     1      30.034  -3.977 -21.653  0.00  0.00    +0.295 HD
ENDBRANCH  26  27
ENDBRANCH  24  26
ENDBRANCH  23  24
ENDBRANCH  22  23
ENDBRANCH  20  22
ENDBRANCH   7  20
TORSDOF 6
ENDMDL
