MODEL 1
REMARK VINA RESULT:      -7.5      0.000      0.000
REMARK  Name = 6917779
REMARK  6 active torsions:
REMARK  status: ('A' for Active; 'I' for Inactive)
REMARK    1  A    between atoms: C_1  and  C_4
REMARK    2  A    between atoms: C_1  and  C_12
REMARK    3  A    between atoms: C_2  and  C_17
REMARK    4  A    between atoms: N_11  and  C_13
REMARK    5  A    between atoms: N_11  and  C_15
REMARK    6  A    between atoms: C_17  and  N_18
REMARK                            x       y       z     vdW  Elec       q    Type
REMARK                         _______ _______ _______ _____ _____    ______ ____
ROOT
ATOM      1  C   UNL     1      33.437  -7.584 -23.787  0.00  0.00    +0.086 C 
ATOM      2  C   UNL     1      34.625  -8.343 -24.282  0.00  0.00    -0.009 C 
ATOM      3  C   UNL     1      34.722  -7.524 -23.028  0.00  0.00    +0.011 C 
ENDROOT
BRANCH   1   4
ATOM      4  C   UNL     1      32.974  -6.367 -24.499  0.00  0.00    -0.015 C 
ATOM      5  C   UNL     1      31.819  -5.701 -24.077  0.00  0.00    -0.004 C 
ATOM      6  C   UNL     1      33.688  -5.879 -25.598  0.00  0.00    -0.004 C 
ATOM      7  C   UNL     1      31.383  -4.558 -24.748  0.00  0.00    -0.000 C 
ATOM      8  C   UNL     1      33.251  -4.737 -26.269  0.00  0.00    -0.000 C 
ATOM      9  C   UNL     1      32.099  -4.076 -25.843  0.00  0.00    -0.000 C 
ENDBRANCH   1   4
BRANCH   1  12
ATOM     10  O   UNL     1      31.509  -8.896 -23.933  0.00  0.00    -0.275 OA
ATOM     11  N   UNL     1      32.334  -8.527 -21.785  0.00  0.00    -0.279 N 
ATOM     12  C   UNL     1      32.339  -8.395 -23.178  0.00  0.00    +0.228 C 
BRANCH  11  13
ATOM     13  C   UNL     1      31.798  -9.706 -21.120  0.00  0.00    +0.093 C 
ATOM     14  C   UNL     1      32.023  -9.646 -19.644  0.00  0.00    +0.023 C 
ENDBRANCH  11  13
BRANCH  11  15
ATOM     15  C   UNL     1      32.865  -7.491 -20.904  0.00  0.00    +0.093 C 
ATOM     16  C   UNL     1      31.908  -6.353 -20.765  0.00  0.00    +0.023 C 
ENDBRANCH  11  15
ENDBRANCH   1  12
BRANCH   2  17
ATOM     17  C   UNL     1      34.679  -9.824 -24.176  0.00  0.00    -0.085 C 
BRANCH  17  18
ATOM     18  N   UNL     1      35.521 -10.408 -25.216  0.00  0.00    +0.380 N 
ATOM     19  H   UNL     1      36.404 -10.715 -24.806  0.00  0.00    -0.089 HD
ATOM     20  H   UNL     1      35.706  -9.710 -25.936  0.00  0.00    -0.089 HD
ATOM     21  H   UNL     1      35.044 -11.207 -25.632  0.00  0.00    -0.089 HD
ENDBRANCH  17  18
ENDBRANCH   2  17
TORSDOF 6
ENDMDL
MODEL 2
REMARK VINA RESULT:      -7.0      1.127      1.638
REMARK  Name = 6917779
REMARK  6 active torsions:
REMARK  status: ('A' for Active; 'I' for Inactive)
REMARK    1  A    between atoms: C_1  and  C_4
REMARK    2  A    between atoms: C_1  and  C_12
REMARK    3  A    between atoms: C_2  and  C_17
REMARK    4  A    between atoms: N_11  and  C_13
REMARK    5  A    between atoms: N_11  and  C_15
REMARK    6  A    between atoms: C_17  and  N_18
REMARK                            x       y       z     vdW  Elec       q    Type
REMARK                         _______ _______ _______ _____ _____    ______ ____
ROOT
ATOM      1  C   UNL     1      32.845  -7.722 -23.119  0.00  0.00    +0.086 C 
ATOM      2  C   UNL     1      34.108  -8.282 -23.689  0.00  0.00    -0.009 C 
ATOM      3  C   UNL     1      34.052  -7.861 -22.249  0.00  0.00    +0.011 C 
ENDROOT
BRANCH   1   4
ATOM      4  C   UNL     1      32.392  -6.359 -23.494  0.00  0.00    -0.015 C 
ATOM      5  C   UNL     1      31.724  -5.558 -22.562  0.00  0.00    -0.004 C 
ATOM      6  C   UNL     1      32.628  -5.868 -24.782  0.00  0.00    -0.004 C 
ATOM      7  C   UNL     1      31.296  -4.279 -22.915  0.00  0.00    -0.000 C 
ATOM      8  C   UNL     1      32.199  -4.588 -25.134  0.00  0.00    -0.000 C 
ATOM      9  C   UNL     1      31.533  -3.794 -24.201  0.00  0.00    -0.000 C 
ENDBRANCH   1   4
BRANCH   1  12
ATOM     10  O   UNL     1      30.893  -8.831 -23.767  0.00  0.00    -0.275 OA
ATOM     11  N   UNL     1      31.735  -9.387 -21.667  0.00  0.00    -0.279 N 
ATOM     12  C   UNL     1      31.736  -8.696 -22.884  0.00  0.00    +0.228 C 
BRANCH  11  13
ATOM     13  C   UNL     1      31.182 -10.728 -21.537  0.00  0.00    +0.093 C 
ATOM     14  C   UNL     1      32.001 -11.729 -22.283  0.00  0.00    +0.023 C 
ENDBRANCH  11  13
BRANCH  11  15
ATOM     15  C   UNL     1      32.289  -8.811 -20.445  0.00  0.00    +0.093 C 
ATOM     16  C   UNL     1      32.020  -9.684 -19.263  0.00  0.00    +0.023 C 
ENDBRANCH  11  15
ENDBRANCH   1  12
BRANCH   2  17
ATOM     17  C   UNL     1      34.222  -9.728 -24.009  0.00  0.00    -0.085 C 
BRANCH  17  18
ATOM     18  N   UNL     1      35.458 -10.025 -24.726  0.00  0.00    +0.380 N 
ATOM     19  H   UNL     1      36.180 -10.301 -24.060  0.00  0.00    -0.089 HD
ATOM     20  H   UNL     1      35.764  -9.196 -25.235  0.00  0.00    -0.089 HD
ATOM     21  H   UNL     1      35.295 -10.787 -25.385  0.00  0.00    -0.089 HD
ENDBRANCH  17  18
ENDBRANCH   2  17
TORSDOF 6
ENDMDL
MODEL 3
REMARK VINA RESULT:      -6.8      1.581      5.603
REMARK  Name = 6917779
REMARK  6 active torsions:
REMARK  status: ('A' for Active; 'I' for Inactive)
REMARK    1  A    between atoms: C_1  and  C_4
REMARK    2  A    between atoms: C_1  and  C_12
REMARK    3  A    between atoms: C_2  and  C_17
REMARK    4  A    between atoms: N_11  and  C_13
REMARK    5  A    between atoms: N_11  and  C_15
REMARK    6  A    between atoms: C_17  and  N_18
REMARK                            x       y       z     vdW  Elec       q    Type
REMARK                         _______ _______ _______ _____ _____    ______ ____
ROOT
ATOM      1  C   UNL     1      32.228  -7.828 -21.828  0.00  0.00    +0.086 C 
ATOM      2  C   UNL     1      31.857  -6.689 -20.934  0.00  0.00    -0.009 C 
ATOM      3  C   UNL     1      33.296  -7.082 -21.097  0.00  0.00    +0.011 C 
ENDROOT
BRANCH   1   4
ATOM      4  C   UNL     1      31.934  -9.225 -21.426  0.00  0.00    -0.015 C 
ATOM      5  C   UNL     1      31.758  -9.548 -20.076  0.00  0.00    -0.004 C 
ATOM      6  C   UNL     1      31.834 -10.231 -22.393  0.00  0.00    -0.004 C 
ATOM      7  C   UNL     1      31.484 -10.862 -19.698  0.00  0.00    -0.000 C 
ATOM      8  C   UNL     1      31.561 -11.545 -22.014  0.00  0.00    -0.000 C 
ATOM      9  C   UNL     1      31.386 -11.860 -20.666  0.00  0.00    -0.000 C 
ENDBRANCH   1   4
BRANCH   1  12
ATOM     10  O   UNL     1      31.015  -7.669 -23.819  0.00  0.00    -0.275 OA
ATOM     11  N   UNL     1      33.302  -7.251 -23.979  0.00  0.00    -0.279 N 
ATOM     12  C   UNL     1      32.124  -7.576 -23.298  0.00  0.00    +0.228 C 
BRANCH  11  13
ATOM     13  C   UNL     1      33.305  -6.399 -25.161  0.00  0.00    +0.093 C 
ATOM     14  C   UNL     1      32.502  -5.160 -24.939  0.00  0.00    +0.023 C 
ENDBRANCH  11  13
BRANCH  11  15
ATOM     15  C   UNL     1      34.608  -7.743 -23.553  0.00  0.00    +0.093 C 
ATOM     16  C   UNL     1      34.913  -9.073 -24.163  0.00  0.00    +0.023 C 
ENDBRANCH  11  15
ENDBRANCH   1  12
BRANCH   2  17
ATOM     17  C   UNL     1      31.398  -5.396 -21.501  0.00  0.00    -0.085 C 
BRANCH  17  18
ATOM     18  N   UNL     1      29.993  -5.448 -21.893  0.00  0.00    +0.380 N 
ATOM     19  H   UNL     1      29.487  -6.072 -21.263  0.00  0.00    -0.089 HD
ATOM     20  H   UNL     1      29.919  -5.797 -22.849  0.00  0.00    -0.089 HD
ATOM     21  H   UNL     1      29.589  -4.512 -21.840  0.00  0.00    -0.089 HD
ENDBRANCH  17  18
ENDBRANCH   2  17
TORSDOF 6
ENDMDL
MODEL 4
REMARK VINA RESULT:      -6.7      1.837      4.963
REMARK  Name = 6917779
REMARK  6 active torsions:
REMARK  status: ('A' for Active; 'I' for Inactive)
REMARK    1  A    between atoms: C_1  and  C_4
REMARK    2  A    between atoms: C_1  and  C_12
REMARK    3  A    between atoms: C_2  and  C_17
REMARK    4  A    between atoms: N_11  and  C_13
REMARK    5  A    between atoms: N_11  and  C_15
REMARK    6  A    between atoms: C_17  and  N_18
REMARK                            x       y       z     vdW  Elec       q    Type
REMARK                         _______ _______ _______ _____ _____    ______ ____
ROOT
ATOM      1  C   UNL     1      33.204  -8.258 -23.186  0.00  0.00    +0.086 C 
ATOM      2  C   UNL     1      33.421  -8.031 -21.725  0.00  0.00    -0.009 C 
ATOM      3  C   UNL     1      34.325  -7.381 -22.732  0.00  0.00    +0.011 C 
ENDROOT
BRANCH   1   4
ATOM      4  C   UNL     1      33.530  -9.569 -23.799  0.00  0.00    -0.015 C 
ATOM      5  C   UNL     1      32.898 -10.733 -23.350  0.00  0.00    -0.004 C 
ATOM      6  C   UNL     1      34.473  -9.651 -24.829  0.00  0.00    -0.004 C 
ATOM      7  C   UNL     1      33.207 -11.966 -23.924  0.00  0.00    -0.000 C 
ATOM      8  C   UNL     1      34.782 -10.884 -25.402  0.00  0.00    -0.000 C 
ATOM      9  C   UNL     1      34.148 -12.042 -24.950  0.00  0.00    -0.000 C 
ENDBRANCH   1   4
BRANCH   1  12
ATOM     10  O   UNL     1      30.925  -8.108 -23.681  0.00  0.00    -0.275 OA
ATOM     11  N   UNL     1      32.256  -6.359 -24.456  0.00  0.00    -0.279 N 
ATOM     12  C   UNL     1      32.024  -7.571 -23.795  0.00  0.00    +0.228 C 
BRANCH  11  13
ATOM     13  C   UNL     1      31.251  -5.308 -24.525  0.00  0.00    +0.093 C 
ATOM     14  C   UNL     1      31.245  -4.480 -23.282  0.00  0.00    +0.023 C 
ENDBRANCH  11  13
BRANCH  11  15
ATOM     15  C   UNL     1      33.522  -6.067 -25.122  0.00  0.00    +0.093 C 
ATOM     16  C   UNL     1      33.320  -5.179 -26.306  0.00  0.00    +0.023 C 
ENDBRANCH  11  15
ENDBRANCH   1  12
BRANCH   2  17
ATOM     17  C   UNL     1      32.490  -7.179 -20.942  0.00  0.00    -0.085 C 
BRANCH  17  18
ATOM     18  N   UNL     1      32.794  -7.220 -19.515  0.00  0.00    +0.380 N 
ATOM     19  H   UNL     1      33.311  -8.073 -19.302  0.00  0.00    -0.089 HD
ATOM     20  H   UNL     1      31.925  -7.208 -18.981  0.00  0.00    -0.089 HD
ATOM     21  H   UNL     1      33.359  -6.409 -19.263  0.00  0.00    -0.089 HD
ENDBRANCH  17  18
ENDBRANCH   2  17
TORSDOF 6
ENDMDL
MODEL 5
REMARK VINA RESULT:      -6.7     17.733     19.536
REMARK  Name = 6917779
REMARK  6 active torsions:
REMARK  status: ('A' for Active; 'I' for Inactive)
REMARK    1  A    between atoms: C_1  and  C_4
REMARK    2  A    between atoms: C_1  and  C_12
REMARK    3  A    between atoms: C_2  and  C_17
REMARK    4  A    between atoms: N_11  and  C_13
REMARK    5  A    between atoms: N_11  and  C_15
REMARK    6  A    between atoms: C_17  and  N_18
REMARK                            x       y       z     vdW  Elec       q    Type
REMARK                         _______ _______ _______ _____ _____    ______ ____
ROOT
ATOM      1  C   UNL     1      35.049 -23.918 -14.793  0.00  0.00    +0.086 C 
ATOM      2  C   UNL     1      35.685 -22.748 -15.472  0.00  0.00    -0.009 C 
ATOM      3  C   UNL     1      35.676 -22.837 -13.974  0.00  0.00    +0.011 C 
ENDROOT
BRANCH   1   4
ATOM      4  C   UNL     1      33.572 -24.061 -14.770  0.00  0.00    -0.015 C 
ATOM      5  C   UNL     1      32.791 -23.459 -15.761  0.00  0.00    -0.004 C 
ATOM      6  C   UNL     1      32.952 -24.798 -13.756  0.00  0.00    -0.004 C 
ATOM      7  C   UNL     1      31.403 -23.592 -15.738  0.00  0.00    -0.000 C 
ATOM      8  C   UNL     1      31.564 -24.930 -13.734  0.00  0.00    -0.000 C 
ATOM      9  C   UNL     1      30.789 -24.328 -14.725  0.00  0.00    -0.000 C 
ENDBRANCH   1   4
BRANCH   1  12
ATOM     10  O   UNL     1      35.626 -25.910 -15.869  0.00  0.00    -0.275 OA
ATOM     11  N   UNL     1      36.628 -25.540 -13.798  0.00  0.00    -0.279 N 
ATOM     12  C   UNL     1      35.792 -25.212 -14.871  0.00  0.00    +0.228 C 
BRANCH  11  13
ATOM     13  C   UNL     1      37.827 -26.348 -13.966  0.00  0.00    +0.093 C 
ATOM     14  C   UNL     1      38.866 -25.620 -14.755  0.00  0.00    +0.023 C 
ENDBRANCH  11  13
BRANCH  11  15
ATOM     15  C   UNL     1      36.352 -25.095 -12.435  0.00  0.00    +0.093 C 
ATOM     16  C   UNL     1      37.599 -24.632 -11.752  0.00  0.00    +0.023 C 
ENDBRANCH  11  15
ENDBRANCH   1  12
BRANCH   2  17
ATOM     17  C   UNL     1      36.976 -22.896 -16.191  0.00  0.00    -0.085 C 
BRANCH  17  18
ATOM     18  N   UNL     1      37.086 -21.951 -17.299  0.00  0.00    +0.380 N 
ATOM     19  H   UNL     1      37.033 -20.998 -16.940  0.00  0.00    -0.089 HD
ATOM     20  H   UNL     1      36.323 -22.109 -17.958  0.00  0.00    -0.089 HD
ATOM     21  H   UNL     1      37.979 -22.086 -17.774  0.00  0.00    -0.089 HD
ENDBRANCH  17  18
ENDBRANCH   2  17
TORSDOF 6
ENDMDL
MODEL 6
REMARK VINA RESULT:      -6.5      9.530     12.525
REMARK  Name = 6917779
REMARK  6 active torsions:
REMARK  status: ('A' for Active; 'I' for Inactive)
REMARK    1  A    between atoms: C_1  and  C_4
REMARK    2  A    between atoms: C_1  and  C_12
REMARK    3  A    between atoms: C_2  and  C_17
REMARK    4  A    between atoms: N_11  and  C_13
REMARK    5  A    between atoms: N_11  and  C_15
REMARK    6  A    between atoms: C_17  and  N_18
REMARK                            x       y       z     vdW  Elec       q    Type
REMARK                         _______ _______ _______ _____ _____    ______ ____
ROOT
ATOM      1  C   UNL     1      34.458 -19.006 -21.591  0.00  0.00    +0.086 C 
ATOM      2  C   UNL     1      34.711 -19.256 -23.042  0.00  0.00    -0.009 C 
ATOM      3  C   UNL     1      33.325 -18.935 -22.563  0.00  0.00    +0.011 C 
ENDROOT
BRANCH   1   4
ATOM      4  C   UNL     1      34.493 -20.125 -20.619  0.00  0.00    -0.015 C 
ATOM      5  C   UNL     1      35.714 -20.693 -20.241  0.00  0.00    -0.004 C 
ATOM      6  C   UNL     1      33.304 -20.624 -20.075  0.00  0.00    -0.004 C 
ATOM      7  C   UNL     1      35.747 -21.747 -19.328  0.00  0.00    -0.000 C 
ATOM      8  C   UNL     1      33.337 -21.679 -19.163  0.00  0.00    -0.000 C 
ATOM      9  C   UNL     1      34.558 -22.240 -18.790  0.00  0.00    -0.000 C 
ENDBRANCH   1   4
BRANCH   1  12
ATOM     10  O   UNL     1      36.096 -17.666 -20.599  0.00  0.00    -0.275 OA
ATOM     11  N   UNL     1      34.076 -16.615 -21.089  0.00  0.00    -0.279 N 
ATOM     12  C   UNL     1      34.953 -17.704 -21.048  0.00  0.00    +0.228 C 
BRANCH  11  13
ATOM     13  C   UNL     1      34.546 -15.243 -21.216  0.00  0.00    +0.093 C 
ATOM     14  C   UNL     1      34.543 -14.797 -22.641  0.00  0.00    +0.023 C 
ENDBRANCH  11  13
BRANCH  11  15
ATOM     15  C   UNL     1      32.627 -16.780 -21.006  0.00  0.00    +0.093 C 
ATOM     16  C   UNL     1      31.985 -15.612 -20.331  0.00  0.00    +0.023 C 
ENDBRANCH  11  15
ENDBRANCH   1  12
BRANCH   2  17
ATOM     17  C   UNL     1      35.431 -18.257 -23.872  0.00  0.00    -0.085 C 
BRANCH  17  18
ATOM     18  N   UNL     1      34.724 -17.982 -25.119  0.00  0.00    +0.380 N 
ATOM     19  H   UNL     1      34.009 -18.695 -25.269  0.00  0.00    -0.089 HD
ATOM     20  H   UNL     1      35.385 -17.996 -25.896  0.00  0.00    -0.089 HD
ATOM     21  H   UNL     1      34.281 -17.064 -25.065  0.00  0.00    -0.089 HD
ENDBRANCH  17  18
ENDBRANCH   2  17
TORSDOF 6
ENDMDL
MODEL 7
REMARK VINA RESULT:      -6.5     17.601     19.659
REMARK  Name = 6917779
REMARK  6 active torsions:
REMARK  status: ('A' for Active; 'I' for Inactive)
REMARK    1  A    between atoms: C_1  and  C_4
REMARK    2  A    between atoms: C_1  and  C_12
REMARK    3  A    between atoms: C_2  and  C_17
REMARK    4  A    between atoms: N_11  and  C_13
REMARK    5  A    between atoms: N_11  and  C_15
REMARK    6  A    between atoms: C_17  and  N_18
REMARK                            x       y       z     vdW  Elec       q    Type
REMARK                         _______ _______ _______ _____ _____    ______ ____
ROOT
ATOM      1  C   UNL     1      35.655 -23.921 -13.981  0.00  0.00    +0.086 C 
ATOM      2  C   UNL     1      35.586 -23.474 -12.556  0.00  0.00    -0.009 C 
ATOM      3  C   UNL     1      35.447 -24.929 -12.898  0.00  0.00    +0.011 C 
ENDROOT
BRANCH   1   4
ATOM      4  C   UNL     1      34.535 -23.637 -14.912  0.00  0.00    -0.015 C 
ATOM      5  C   UNL     1      33.216 -23.636 -14.448  0.00  0.00    -0.004 C 
ATOM      6  C   UNL     1      34.791 -23.370 -16.261  0.00  0.00    -0.004 C 
ATOM      7  C   UNL     1      32.163 -23.372 -15.324  0.00  0.00    -0.000 C 
ATOM      8  C   UNL     1      33.738 -23.106 -17.136  0.00  0.00    -0.000 C 
ATOM      9  C   UNL     1      32.424 -23.106 -16.668  0.00  0.00    -0.000 C 
ENDBRANCH   1   4
BRANCH   1  12
ATOM     10  O   UNL     1      37.529 -22.799 -14.810  0.00  0.00    -0.275 OA
ATOM     11  N   UNL     1      37.584 -25.124 -14.953  0.00  0.00    -0.279 N 
ATOM     12  C   UNL     1      37.007 -23.894 -14.618  0.00  0.00    +0.228 C 
BRANCH  11  13
ATOM     13  C   UNL     1      39.026 -25.327 -14.963  0.00  0.00    +0.093 C 
ATOM     14  C   UNL     1      39.596 -25.246 -13.585  0.00  0.00    +0.023 C 
ENDBRANCH  11  13
BRANCH  11  15
ATOM     15  C   UNL     1      36.780 -26.287 -15.315  0.00  0.00    +0.093 C 
ATOM     16  C   UNL     1      37.164 -27.485 -14.509  0.00  0.00    +0.023 C 
ENDBRANCH  11  15
ENDBRANCH   1  12
BRANCH   2  17
ATOM     17  C   UNL     1      36.806 -23.019 -11.842  0.00  0.00    -0.085 C 
BRANCH  17  18
ATOM     18  N   UNL     1      36.747 -23.336 -10.419  0.00  0.00    +0.380 N 
ATOM     19  H   UNL     1      37.553 -22.929  -9.946  0.00  0.00    -0.089 HD
ATOM     20  H   UNL     1      36.756 -24.349 -10.295  0.00  0.00    -0.089 HD
ATOM     21  H   UNL     1      35.889 -22.953 -10.019  0.00  0.00    -0.089 HD
ENDBRANCH  17  18
ENDBRANCH   2  17
TORSDOF 6
ENDMDL
MODEL 8
REMARK VINA RESULT:      -6.4      1.535      4.881
REMARK  Name = 6917779
REMARK  6 active torsions:
REMARK  status: ('A' for Active; 'I' for Inactive)
REMARK    1  A    between atoms: C_1  and  C_4
REMARK    2  A    between atoms: C_1  and  C_12
REMARK    3  A    between atoms: C_2  and  C_17
REMARK    4  A    between atoms: N_11  and  C_13
REMARK    5  A    between atoms: N_11  and  C_15
REMARK    6  A    between atoms: C_17  and  N_18
REMARK                            x       y       z     vdW  Elec       q    Type
REMARK                         _______ _______ _______ _____ _____    ______ ____
ROOT
ATOM      1  C   UNL     1      32.918  -9.095 -22.980  0.00  0.00    +0.086 C 
ATOM      2  C   UNL     1      33.795 -10.017 -23.764  0.00  0.00    -0.009 C 
ATOM      3  C   UNL     1      32.433  -9.654 -24.278  0.00  0.00    +0.011 C 
ENDROOT
BRANCH   1   4
ATOM      4  C   UNL     1      32.278  -9.556 -21.723  0.00  0.00    -0.015 C 
ATOM      5  C   UNL     1      32.447  -8.832 -20.539  0.00  0.00    -0.004 C 
ATOM      6  C   UNL     1      31.503 -10.720 -21.713  0.00  0.00    -0.004 C 
ATOM      7  C   UNL     1      31.848  -9.266 -19.358  0.00  0.00    -0.000 C 
ATOM      8  C   UNL     1      30.904 -11.155 -20.531  0.00  0.00    -0.000 C 
ATOM      9  C   UNL     1      31.076 -10.428 -19.354  0.00  0.00    -0.000 C 
ENDBRANCH   1   4
BRANCH   1  12
ATOM     10  O   UNL     1      34.456  -7.368 -22.644  0.00  0.00    -0.275 OA
ATOM     11  N   UNL     1      32.334  -6.723 -23.358  0.00  0.00    -0.279 N 
ATOM     12  C   UNL     1      33.308  -7.652 -22.978  0.00  0.00    +0.228 C 
BRANCH  11  13
ATOM     13  C   UNL     1      32.673  -5.462 -24.003  0.00  0.00    +0.093 C 
ATOM     14  C   UNL     1      33.081  -5.672 -25.425  0.00  0.00    +0.023 C 
ENDBRANCH  11  13
BRANCH  11  15
ATOM     15  C   UNL     1      30.910  -6.953 -23.133  0.00  0.00    +0.093 C 
ATOM     16  C   UNL     1      30.326  -5.910 -22.237  0.00  0.00    +0.023 C 
ENDBRANCH  11  15
ENDBRANCH   1  12
BRANCH   2  17
ATOM     17  C   UNL     1      34.991  -9.502 -24.479  0.00  0.00    -0.085 C 
BRANCH  17  18
ATOM     18  N   UNL     1      35.544 -10.500 -25.390  0.00  0.00    +0.380 N 
ATOM     19  H   UNL     1      35.971 -10.031 -26.190  0.00  0.00    -0.089 HD
ATOM     20  H   UNL     1      34.798 -11.114 -25.716  0.00  0.00    -0.089 HD
ATOM     21  H   UNL     1      36.250 -11.052 -24.903  0.00  0.00    -0.089 HD
ENDBRANCH  17  18
ENDBRANCH   2  17
TORSDOF 6
ENDMDL
MODEL 9
REMARK VINA RESULT:      -6.3      2.747      4.535
REMARK  Name = 6917779
REMARK  6 active torsions:
REMARK  status: ('A' for Active; 'I' for Inactive)
REMARK    1  A    between atoms: C_1  and  C_4
REMARK    2  A    between atoms: C_1  and  C_12
REMARK    3  A    between atoms: C_2  and  C_17
REMARK    4  A    between atoms: N_11  and  C_13
REMARK    5  A    between atoms: N_11  and  C_15
REMARK    6  A    between atoms: C_17  and  N_18
REMARK                            x       y       z     vdW  Elec       q    Type
REMARK                         _______ _______ _______ _____ _____    ______ ____
ROOT
ATOM      1  C   UNL     1      32.109  -8.665 -22.714  0.00  0.00    +0.086 C 
ATOM      2  C   UNL     1      31.599  -7.292 -23.009  0.00  0.00    -0.009 C 
ATOM      3  C   UNL     1      30.746  -8.491 -23.301  0.00  0.00    +0.011 C 
ENDROOT
BRANCH   1   4
ATOM      4  C   UNL     1      33.174  -9.267 -23.554  0.00  0.00    -0.015 C 
ATOM      5  C   UNL     1      33.016 -10.555 -24.075  0.00  0.00    -0.004 C 
ATOM      6  C   UNL     1      34.343  -8.551 -23.830  0.00  0.00    -0.004 C 
ATOM      7  C   UNL     1      34.017 -11.122 -24.863  0.00  0.00    -0.000 C 
ATOM      8  C   UNL     1      35.345  -9.119 -24.617  0.00  0.00    -0.000 C 
ATOM      9  C   UNL     1      35.182 -10.404 -25.134  0.00  0.00    -0.000 C 
ENDBRANCH   1   4
BRANCH   1  12
ATOM     10  O   UNL     1      32.949  -8.439 -20.545  0.00  0.00    -0.275 OA
ATOM     11  N   UNL     1      31.335 -10.092 -20.849  0.00  0.00    -0.279 N 
ATOM     12  C   UNL     1      32.171  -9.052 -21.272  0.00  0.00    +0.228 C 
BRANCH  11  13
ATOM     13  C   UNL     1      30.809 -10.162 -19.493  0.00  0.00    +0.093 C 
ATOM     14  C   UNL     1      31.761 -10.857 -18.576  0.00  0.00    +0.023 C 
ENDBRANCH  11  13
BRANCH  11  15
ATOM     15  C   UNL     1      30.934 -11.178 -21.739  0.00  0.00    +0.093 C 
ATOM     16  C   UNL     1      31.768 -12.398 -21.518  0.00  0.00    +0.023 C 
ENDBRANCH  11  15
ENDBRANCH   1  12
BRANCH   2  17
ATOM     17  C   UNL     1      31.198  -6.377 -21.909  0.00  0.00    -0.085 C 
BRANCH  17  18
ATOM     18  N   UNL     1      31.721  -5.030 -22.111  0.00  0.00    +0.380 N 
ATOM     19  H   UNL     1      32.641  -5.084 -22.550  0.00  0.00    -0.089 HD
ATOM     20  H   UNL     1      31.801  -4.557 -21.211  0.00  0.00    -0.089 HD
ATOM     21  H   UNL     1      31.088  -4.505 -22.715  0.00  0.00    -0.089 HD
ENDBRANCH  17  18
ENDBRANCH   2  17
TORSDOF 6
ENDMDL
