MODEL 1
REMARK VINA RESULT:     -12.4      0.000      0.000
REMARK  Name = 9826451
REMARK  9 active torsions:
REMARK  status: ('A' for Active; 'I' for Inactive)
REMARK    1  A    between atoms: C_1  and  N_2
REMARK    2  A    between atoms: C_1  and  C_19
REMARK    3  A    between atoms: C_8  and  O_10
REMARK    4  A    between atoms: O_10  and  C_11
REMARK    5  A    between atoms: C_14  and  O_17
REMARK    6  A    between atoms: C_19  and  O_20
REMARK    7  A    between atoms: O_20  and  C_24
REMARK    8  A    between atoms: C_21  and  C_27
REMARK    9  A    between atoms: C_27  and  C_32
REMARK                            x       y       z     vdW  Elec       q    Type
REMARK                         _______ _______ _______ _____ _____    ______ ____
ROOT
ATOM      1  C   UNL     1      33.557 -14.967 -25.519  0.00  0.00    +0.139 C 
ENDROOT
BRANCH   1   2
ATOM      2  N   UNL     1      34.122 -15.478 -24.293  0.00  0.00    -0.291 N 
ATOM      3  C   UNL     1      34.356 -14.546 -23.189  0.00  0.00    +0.113 C 
ATOM      4  N   UNL     1      34.232 -17.670 -25.183  0.00  0.00    -0.233 NA
ATOM      5  N   UNL     1      35.122 -19.460 -23.839  0.00  0.00    -0.214 NA
ATOM      6  C   UNL     1      34.458 -16.831 -24.150  0.00  0.00    +0.115 C 
ATOM      7  C   UNL     1      35.005 -17.227 -22.947  0.00  0.00    +0.146 C 
ATOM      8  C   UNL     1      35.321 -18.567 -22.848  0.00  0.00    +0.210 C 
ATOM      9  C   UNL     1      34.583 -18.951 -24.962  0.00  0.00    +0.254 C 
BRANCH   8  10
ATOM     10  O   UNL     1      35.868 -19.040 -21.684  0.00  0.00    -0.440 OA
BRANCH  10  11
ATOM     11  C   UNL     1      35.100 -19.900 -20.924  0.00  0.00    +0.147 C 
ATOM     12  C   UNL     1      35.700 -20.967 -20.257  0.00  0.00    +0.041 C 
ATOM     13  C   UNL     1      33.722 -19.699 -20.824  0.00  0.00    +0.041 C 
ATOM     14  C   UNL     1      33.547 -21.635 -19.390  0.00  0.00    +0.139 C 
ATOM     15  C   UNL     1      34.924 -21.835 -19.490  0.00  0.00    +0.040 C 
ATOM     16  C   UNL     1      32.947 -20.566 -20.056  0.00  0.00    +0.040 C 
BRANCH  14  17
ATOM     17  O   UNL     1      32.789 -22.482 -18.640  0.00  0.00    -0.471 OA
ATOM     18  C   UNL     1      33.428 -23.124 -17.539  0.00  0.00    +0.252 C 
ENDBRANCH  14  17
ENDBRANCH  10  11
ENDBRANCH   8  10
ENDBRANCH   1   2
BRANCH   1  19
ATOM     19  C   UNL     1      32.967 -13.587 -25.285  0.00  0.00    +0.227 C 
BRANCH  19  20
ATOM     20  O   UNL     1      33.965 -12.597 -25.529  0.00  0.00    -0.474 OA
BRANCH  20  24
ATOM     21  C   UNL     1      33.700  -9.068 -23.360  0.00  0.00    -0.021 C 
ATOM     22  C   UNL     1      32.772 -10.088 -23.149  0.00  0.00    -0.001 C 
ATOM     23  C   UNL     1      34.717  -9.235 -24.301  0.00  0.00    -0.001 C 
ATOM     24  C   UNL     1      33.877 -11.440 -24.818  0.00  0.00    +0.139 C 
ATOM     25  C   UNL     1      32.860 -11.273 -23.878  0.00  0.00    +0.037 C 
ATOM     26  C   UNL     1      34.805 -10.420 -25.029  0.00  0.00    +0.037 C 
BRANCH  21  27
ATOM     27  C   UNL     1      33.603  -7.787 -22.572  0.00  0.00    +0.047 C 
BRANCH  27  32
ATOM     28  S   UNL     1      31.231  -6.560 -23.247  0.00  0.00    -0.048 S 
ATOM     29  O   UNL     1      32.808  -7.087 -19.765  0.00  0.00    -0.274 OA
ATOM     30  O   UNL     1      30.169  -4.326 -22.359  0.00  0.00    -0.263 OA
ATOM     31  N   UNL     1      31.458  -5.589 -20.896  0.00  0.00    -0.246 N 
ATOM     32  C   UNL     1      32.196  -7.543 -22.058  0.00  0.00    +0.137 C 
ATOM     33  C   UNL     1      32.207  -6.740 -20.776  0.00  0.00    +0.239 C 
ATOM     34  C   UNL     1      30.858  -5.299 -22.093  0.00  0.00    +0.279 C 
ATOM     35  H   UNL     1      31.356  -4.980 -20.129  0.00  0.00    +0.158 HD
ENDBRANCH  27  32
ENDBRANCH  21  27
ENDBRANCH  20  24
ENDBRANCH  19  20
ENDBRANCH   1  19
TORSDOF 9
ENDMDL
MODEL 2
REMARK VINA RESULT:     -12.3      1.138      1.598
REMARK  Name = 9826451
REMARK  9 active torsions:
REMARK  status: ('A' for Active; 'I' for Inactive)
REMARK    1  A    between atoms: C_1  and  N_2
REMARK    2  A    between atoms: C_1  and  C_19
REMARK    3  A    between atoms: C_8  and  O_10
REMARK    4  A    between atoms: O_10  and  C_11
REMARK    5  A    between atoms: C_14  and  O_17
REMARK    6  A    between atoms: C_19  and  O_20
REMARK    7  A    between atoms: O_20  and  C_24
REMARK    8  A    between atoms: C_21  and  C_27
REMARK    9  A    between atoms: C_27  and  C_32
REMARK                            x       y       z     vdW  Elec       q    Type
REMARK                         _______ _______ _______ _____ _____    ______ ____
ROOT
ATOM      1  C   UNL     1      33.138 -13.891 -24.163  0.00  0.00    +0.139 C 
ENDROOT
BRANCH   1   2
ATOM      2  N   UNL     1      33.745 -15.197 -24.070  0.00  0.00    -0.291 N 
ATOM      3  C   UNL     1      33.840 -16.012 -25.283  0.00  0.00    +0.113 C 
ATOM      4  N   UNL     1      34.125 -14.924 -21.749  0.00  0.00    -0.233 NA
ATOM      5  N   UNL     1      35.170 -16.696 -20.494  0.00  0.00    -0.214 NA
ATOM      6  C   UNL     1      34.225 -15.695 -22.852  0.00  0.00    +0.115 C 
ATOM      7  C   UNL     1      34.777 -16.960 -22.855  0.00  0.00    +0.146 C 
ATOM      8  C   UNL     1      35.238 -17.413 -21.635  0.00  0.00    +0.210 C 
ATOM      9  C   UNL     1      34.610 -15.479 -20.622  0.00  0.00    +0.254 C 
BRANCH   8  10
ATOM     10  O   UNL     1      35.801 -18.660 -21.555  0.00  0.00    -0.440 OA
BRANCH  10  11
ATOM     11  C   UNL     1      35.089 -19.635 -20.885  0.00  0.00    +0.147 C 
ATOM     12  C   UNL     1      35.763 -20.619 -20.162  0.00  0.00    +0.041 C 
ATOM     13  C   UNL     1      33.694 -19.636 -20.931  0.00  0.00    +0.041 C 
ATOM     14  C   UNL     1      33.650 -21.605 -19.532  0.00  0.00    +0.139 C 
ATOM     15  C   UNL     1      35.044 -21.604 -19.486  0.00  0.00    +0.040 C 
ATOM     16  C   UNL     1      32.975 -20.620 -20.254  0.00  0.00    +0.040 C 
BRANCH  14  17
ATOM     17  O   UNL     1      32.948 -22.565 -18.871  0.00  0.00    -0.471 OA
ATOM     18  C   UNL     1      33.483 -23.024 -17.630  0.00  0.00    +0.252 C 
ENDBRANCH  14  17
ENDBRANCH  10  11
ENDBRANCH   8  10
ENDBRANCH   1   2
BRANCH   1  19
ATOM     19  C   UNL     1      33.238 -13.371 -25.587  0.00  0.00    +0.227 C 
BRANCH  19  20
ATOM     20  O   UNL     1      34.281 -12.401 -25.667  0.00  0.00    -0.474 OA
BRANCH  20  24
ATOM     21  C   UNL     1      33.822  -8.937 -23.428  0.00  0.00    -0.021 C 
ATOM     22  C   UNL     1      32.912  -9.984 -23.286  0.00  0.00    -0.001 C 
ATOM     23  C   UNL     1      34.886  -9.054 -24.322  0.00  0.00    -0.001 C 
ATOM     24  C   UNL     1      34.130 -11.265 -24.933  0.00  0.00    +0.139 C 
ATOM     25  C   UNL     1      33.065 -11.148 -24.039  0.00  0.00    +0.037 C 
ATOM     26  C   UNL     1      35.039 -10.217 -25.074  0.00  0.00    +0.037 C 
BRANCH  21  27
ATOM     27  C   UNL     1      33.655  -7.679 -22.614  0.00  0.00    +0.047 C 
BRANCH  27  32
ATOM     28  S   UNL     1      31.281  -6.467 -23.311  0.00  0.00    -0.048 S 
ATOM     29  O   UNL     1      32.738  -7.159 -19.804  0.00  0.00    -0.274 OA
ATOM     30  O   UNL     1      30.133  -4.311 -22.340  0.00  0.00    -0.263 OA
ATOM     31  N   UNL     1      31.396  -5.628 -20.902  0.00  0.00    -0.246 N 
ATOM     32  C   UNL     1      32.224  -7.495 -22.142  0.00  0.00    +0.137 C 
ATOM     33  C   UNL     1      32.167  -6.768 -20.817  0.00  0.00    +0.239 C 
ATOM     34  C   UNL     1      30.834  -5.283 -22.102  0.00  0.00    +0.279 C 
ATOM     35  H   UNL     1      31.251  -5.067 -20.106  0.00  0.00    +0.158 HD
ENDBRANCH  27  32
ENDBRANCH  21  27
ENDBRANCH  20  24
ENDBRANCH  19  20
ENDBRANCH   1  19
TORSDOF 9
ENDMDL
MODEL 3
REMARK VINA RESULT:     -11.9      4.275     12.382
REMARK  Name = 9826451
REMARK  9 active torsions:
REMARK  status: ('A' for Active; 'I' for Inactive)
REMARK    1  A    between atoms: C_1  and  N_2
REMARK    2  A    between atoms: C_1  and  C_19
REMARK    3  A    between atoms: C_8  and  O_10
REMARK    4  A    between atoms: O_10  and  C_11
REMARK    5  A    between atoms: C_14  and  O_17
REMARK    6  A    between atoms: C_19  and  O_20
REMARK    7  A    between atoms: O_20  and  C_24
REMARK    8  A    between atoms: C_21  and  C_27
REMARK    9  A    between atoms: C_27  and  C_32
REMARK                            x       y       z     vdW  Elec       q    Type
REMARK                         _______ _______ _______ _____ _____    ______ ____
ROOT
ATOM      1  C   UNL     1      35.710 -18.264 -23.171  0.00  0.00    +0.139 C 
ENDROOT
BRANCH   1   2
ATOM      2  N   UNL     1      34.818 -17.258 -23.695  0.00  0.00    -0.291 N 
ATOM      3  C   UNL     1      34.361 -17.381 -25.081  0.00  0.00    +0.113 C 
ATOM      4  N   UNL     1      34.834 -16.084 -21.638  0.00  0.00    -0.233 NA
ATOM      5  N   UNL     1      33.563 -14.050 -21.415  0.00  0.00    -0.214 NA
ATOM      6  C   UNL     1      34.399 -16.174 -22.913  0.00  0.00    +0.115 C 
ATOM      7  C   UNL     1      33.556 -15.253 -23.501  0.00  0.00    +0.146 C 
ATOM      8  C   UNL     1      33.166 -14.201 -22.696  0.00  0.00    +0.210 C 
ATOM      9  C   UNL     1      34.384 -15.013 -20.958  0.00  0.00    +0.254 C 
BRANCH   8  10
ATOM     10  O   UNL     1      32.329 -13.244 -23.206  0.00  0.00    -0.440 OA
BRANCH  10  11
ATOM     11  C   UNL     1      32.858 -11.988 -23.422  0.00  0.00    +0.147 C 
ATOM     12  C   UNL     1      33.913 -11.819 -24.318  0.00  0.00    +0.041 C 
ATOM     13  C   UNL     1      32.337 -10.885 -22.743  0.00  0.00    +0.041 C 
ATOM     14  C   UNL     1      33.926  -9.448 -23.858  0.00  0.00    +0.139 C 
ATOM     15  C   UNL     1      34.447 -10.549 -24.536  0.00  0.00    +0.040 C 
ATOM     16  C   UNL     1      32.870  -9.616 -22.962  0.00  0.00    +0.040 C 
BRANCH  14  17
ATOM     17  O   UNL     1      34.447  -8.208 -24.071  0.00  0.00    -0.471 OA
ATOM     18  C   UNL     1      33.721  -7.099 -23.542  0.00  0.00    +0.252 C 
ENDBRANCH  14  17
ENDBRANCH  10  11
ENDBRANCH   8  10
ENDBRANCH   1   2
BRANCH   1  19
ATOM     19  C   UNL     1      34.924 -19.295 -22.379  0.00  0.00    +0.227 C 
BRANCH  19  20
ATOM     20  O   UNL     1      35.494 -19.429 -21.078  0.00  0.00    -0.474 OA
BRANCH  20  24
ATOM     21  C   UNL     1      33.941 -22.397 -18.628  0.00  0.00    -0.021 C 
ATOM     22  C   UNL     1      33.083 -21.590 -19.374  0.00  0.00    -0.001 C 
ATOM     23  C   UNL     1      35.321 -22.208 -18.705  0.00  0.00    -0.001 C 
ATOM     24  C   UNL     1      34.984 -20.402 -20.275  0.00  0.00    +0.139 C 
ATOM     25  C   UNL     1      33.604 -20.592 -20.197  0.00  0.00    +0.037 C 
ATOM     26  C   UNL     1      35.842 -21.210 -19.528  0.00  0.00    +0.037 C 
BRANCH  21  27
ATOM     27  C   UNL     1      33.376 -23.475 -17.739  0.00  0.00    +0.047 C 
BRANCH  27  32
ATOM     28  S   UNL     1      33.758 -23.823 -15.033  0.00  0.00    -0.048 S 
ATOM     29  O   UNL     1      30.599 -22.677 -16.931  0.00  0.00    -0.274 OA
ATOM     30  O   UNL     1      32.198 -24.933 -13.233  0.00  0.00    -0.263 OA
ATOM     31  N   UNL     1      31.204 -23.828 -15.018  0.00  0.00    -0.246 N 
ATOM     32  C   UNL     1      32.941 -22.929 -16.391  0.00  0.00    +0.137 C 
ATOM     33  C   UNL     1      31.456 -23.115 -16.172  0.00  0.00    +0.239 C 
ATOM     34  C   UNL     1      32.254 -24.290 -14.270  0.00  0.00    +0.279 C 
ATOM     35  H   UNL     1      30.277 -24.005 -14.737  0.00  0.00    +0.158 HD
ENDBRANCH  27  32
ENDBRANCH  21  27
ENDBRANCH  20  24
ENDBRANCH  19  20
ENDBRANCH   1  19
TORSDOF 9
ENDMDL
MODEL 4
REMARK VINA RESULT:     -11.8      4.937      9.674
REMARK  Name = 9826451
REMARK  9 active torsions:
REMARK  status: ('A' for Active; 'I' for Inactive)
REMARK    1  A    between atoms: C_1  and  N_2
REMARK    2  A    between atoms: C_1  and  C_19
REMARK    3  A    between atoms: C_8  and  O_10
REMARK    4  A    between atoms: O_10  and  C_11
REMARK    5  A    between atoms: C_14  and  O_17
REMARK    6  A    between atoms: C_19  and  O_20
REMARK    7  A    between atoms: O_20  and  C_24
REMARK    8  A    between atoms: C_21  and  C_27
REMARK    9  A    between atoms: C_27  and  C_32
REMARK                            x       y       z     vdW  Elec       q    Type
REMARK                         _______ _______ _______ _____ _____    ______ ____
ROOT
ATOM      1  C   UNL     1      36.155 -22.098 -17.599  0.00  0.00    +0.139 C 
ENDROOT
BRANCH   1   2
ATOM      2  N   UNL     1      34.972 -22.720 -17.055  0.00  0.00    -0.291 N 
ATOM      3  C   UNL     1      33.810 -22.897 -17.928  0.00  0.00    +0.113 C 
ATOM      4  N   UNL     1      36.000 -22.968 -14.936  0.00  0.00    -0.233 NA
ATOM      5  N   UNL     1      34.772 -23.973 -13.124  0.00  0.00    -0.214 NA
ATOM      6  C   UNL     1      34.916 -23.141 -15.720  0.00  0.00    +0.115 C 
ATOM      7  C   UNL     1      33.739 -23.715 -15.283  0.00  0.00    +0.146 C 
ATOM      8  C   UNL     1      33.725 -24.116 -13.962  0.00  0.00    +0.210 C 
ATOM      9  C   UNL     1      35.861 -23.399 -13.669  0.00  0.00    +0.254 C 
BRANCH   8  10
ATOM     10  O   UNL     1      32.593 -24.695 -13.452  0.00  0.00    -0.440 OA
BRANCH  10  11
ATOM     11  C   UNL     1      31.389 -24.362 -14.041  0.00  0.00    +0.147 C 
ATOM     12  C   UNL     1      31.040 -23.022 -14.206  0.00  0.00    +0.041 C 
ATOM     13  C   UNL     1      30.522 -25.367 -14.472  0.00  0.00    +0.041 C 
ATOM     14  C   UNL     1      28.958 -23.690 -15.232  0.00  0.00    +0.139 C 
ATOM     15  C   UNL     1      29.824 -22.686 -14.801  0.00  0.00    +0.040 C 
ATOM     16  C   UNL     1      29.308 -25.031 -15.068  0.00  0.00    +0.040 C 
BRANCH  14  17
ATOM     17  O   UNL     1      27.772 -23.363 -15.814  0.00  0.00    -0.471 OA
ATOM     18  C   UNL     1      27.827 -22.728 -17.091  0.00  0.00    +0.252 C 
ENDBRANCH  14  17
ENDBRANCH  10  11
ENDBRANCH   8  10
ENDBRANCH   1   2
BRANCH   1  19
ATOM     19  C   UNL     1      35.944 -21.773 -19.068  0.00  0.00    +0.227 C 
BRANCH  19  20
ATOM     20  O   UNL     1      36.472 -20.478 -19.349  0.00  0.00    -0.474 OA
BRANCH  20  24
ATOM     21  C   UNL     1      35.079 -18.563 -22.758  0.00  0.00    -0.021 C 
ATOM     22  C   UNL     1      34.221 -19.370 -22.012  0.00  0.00    -0.001 C 
ATOM     23  C   UNL     1      36.406 -18.399 -22.358  0.00  0.00    -0.001 C 
ATOM     24  C   UNL     1      36.015 -19.850 -20.467  0.00  0.00    +0.139 C 
ATOM     25  C   UNL     1      34.688 -20.014 -20.866  0.00  0.00    +0.037 C 
ATOM     26  C   UNL     1      36.873 -19.043 -21.214  0.00  0.00    +0.037 C 
BRANCH  21  27
ATOM     27  C   UNL     1      34.573 -17.868 -23.995  0.00  0.00    +0.047 C 
BRANCH  27  32
ATOM     28  S   UNL     1      34.244 -15.710 -22.315  0.00  0.00    -0.048 S 
ATOM     29  O   UNL     1      34.011 -15.871 -26.164  0.00  0.00    -0.274 OA
ATOM     30  O   UNL     1      32.439 -13.800 -22.347  0.00  0.00    -0.263 OA
ATOM     31  N   UNL     1      33.114 -14.710 -24.375  0.00  0.00    -0.246 N 
ATOM     32  C   UNL     1      34.778 -16.365 -23.926  0.00  0.00    +0.137 C 
ATOM     33  C   UNL     1      33.943 -15.644 -24.960  0.00  0.00    +0.239 C 
ATOM     34  C   UNL     1      33.111 -14.573 -23.012  0.00  0.00    +0.279 C 
ATOM     35  H   UNL     1      32.530 -14.147 -24.933  0.00  0.00    +0.158 HD
ENDBRANCH  27  32
ENDBRANCH  21  27
ENDBRANCH  20  24
ENDBRANCH  19  20
ENDBRANCH   1  19
TORSDOF 9
ENDMDL
MODEL 5
REMARK VINA RESULT:     -11.8      4.281     12.419
REMARK  Name = 9826451
REMARK  9 active torsions:
REMARK  status: ('A' for Active; 'I' for Inactive)
REMARK    1  A    between atoms: C_1  and  N_2
REMARK    2  A    between atoms: C_1  and  C_19
REMARK    3  A    between atoms: C_8  and  O_10
REMARK    4  A    between atoms: O_10  and  C_11
REMARK    5  A    between atoms: C_14  and  O_17
REMARK    6  A    between atoms: C_19  and  O_20
REMARK    7  A    between atoms: O_20  and  C_24
REMARK    8  A    between atoms: C_21  and  C_27
REMARK    9  A    between atoms: C_27  and  C_32
REMARK                            x       y       z     vdW  Elec       q    Type
REMARK                         _______ _______ _______ _____ _____    ______ ____
ROOT
ATOM      1  C   UNL     1      34.767 -16.981 -22.182  0.00  0.00    +0.139 C 
ENDROOT
BRANCH   1   2
ATOM      2  N   UNL     1      33.702 -16.092 -21.783  0.00  0.00    -0.291 N 
ATOM      3  C   UNL     1      32.840 -16.490 -20.668  0.00  0.00    +0.113 C 
ATOM      4  N   UNL     1      34.284 -14.535 -23.469  0.00  0.00    -0.233 NA
ATOM      5  N   UNL     1      33.007 -12.507 -23.713  0.00  0.00    -0.214 NA
ATOM      6  C   UNL     1      33.476 -14.879 -22.445  0.00  0.00    +0.115 C 
ATOM      7  C   UNL     1      32.426 -14.099 -22.003  0.00  0.00    +0.146 C 
ATOM      8  C   UNL     1      32.237 -12.912 -22.682  0.00  0.00    +0.210 C 
ATOM      9  C   UNL     1      33.997 -13.355 -24.050  0.00  0.00    +0.254 C 
BRANCH   8  10
ATOM     10  O   UNL     1      31.215 -12.081 -22.304  0.00  0.00    -0.440 OA
BRANCH  10  11
ATOM     11  C   UNL     1      31.553 -10.932 -21.618  0.00  0.00    +0.147 C 
ATOM     12  C   UNL     1      31.531 -10.918 -20.223  0.00  0.00    +0.041 C 
ATOM     13  C   UNL     1      31.918  -9.782 -22.321  0.00  0.00    +0.041 C 
ATOM     14  C   UNL     1      32.237  -8.609 -20.234  0.00  0.00    +0.139 C 
ATOM     15  C   UNL     1      31.872  -9.757 -19.531  0.00  0.00    +0.040 C 
ATOM     16  C   UNL     1      32.261  -8.622 -21.629  0.00  0.00    +0.040 C 
BRANCH  14  17
ATOM     17  O   UNL     1      32.572  -7.475 -19.558  0.00  0.00    -0.471 OA
ATOM     18  C   UNL     1      32.377  -6.234 -20.235  0.00  0.00    +0.252 C 
ENDBRANCH  14  17
ENDBRANCH  10  11
ENDBRANCH   8  10
ENDBRANCH   1   2
BRANCH   1  19
ATOM     19  C   UNL     1      35.201 -17.836 -21.003  0.00  0.00    +0.227 C 
BRANCH  19  20
ATOM     20  O   UNL     1      35.394 -19.181 -21.438  0.00  0.00    -0.474 OA
BRANCH  20  24
ATOM     21  C   UNL     1      34.008 -22.192 -18.941  0.00  0.00    -0.021 C 
ATOM     22  C   UNL     1      35.375 -22.058 -19.178  0.00  0.00    -0.001 C 
ATOM     23  C   UNL     1      33.106 -21.314 -19.543  0.00  0.00    -0.001 C 
ATOM     24  C   UNL     1      34.940 -20.168 -20.619  0.00  0.00    +0.139 C 
ATOM     25  C   UNL     1      35.842 -21.046 -20.017  0.00  0.00    +0.037 C 
ATOM     26  C   UNL     1      33.572 -20.303 -20.382  0.00  0.00    +0.037 C 
BRANCH  21  27
ATOM     27  C   UNL     1      33.505 -23.285 -18.034  0.00  0.00    +0.047 C 
BRANCH  27  32
ATOM     28  S   UNL     1      34.006 -23.591 -15.343  0.00  0.00    -0.048 S 
ATOM     29  O   UNL     1      30.724 -22.619 -17.124  0.00  0.00    -0.274 OA
ATOM     30  O   UNL     1      32.573 -24.764 -13.477  0.00  0.00    -0.263 OA
ATOM     31  N   UNL     1      31.458 -23.724 -15.229  0.00  0.00    -0.246 N 
ATOM     32  C   UNL     1      33.094 -22.750 -16.674  0.00  0.00    +0.137 C 
ATOM     33  C   UNL     1      31.630 -23.008 -16.396  0.00  0.00    +0.239 C 
ATOM     34  C   UNL     1      32.558 -24.127 -14.519  0.00  0.00    +0.279 C 
ATOM     35  H   UNL     1      30.553 -23.943 -14.911  0.00  0.00    +0.158 HD
ENDBRANCH  27  32
ENDBRANCH  21  27
ENDBRANCH  20  24
ENDBRANCH  19  20
ENDBRANCH   1  19
TORSDOF 9
ENDMDL
MODEL 6
REMARK VINA RESULT:     -11.7      3.587     12.467
REMARK  Name = 9826451
REMARK  9 active torsions:
REMARK  status: ('A' for Active; 'I' for Inactive)
REMARK    1  A    between atoms: C_1  and  N_2
REMARK    2  A    between atoms: C_1  and  C_19
REMARK    3  A    between atoms: C_8  and  O_10
REMARK    4  A    between atoms: O_10  and  C_11
REMARK    5  A    between atoms: C_14  and  O_17
REMARK    6  A    between atoms: C_19  and  O_20
REMARK    7  A    between atoms: O_20  and  C_24
REMARK    8  A    between atoms: C_21  and  C_27
REMARK    9  A    between atoms: C_27  and  C_32
REMARK                            x       y       z     vdW  Elec       q    Type
REMARK                         _______ _______ _______ _____ _____    ______ ____
ROOT
ATOM      1  C   UNL     1      32.724 -13.310 -24.187  0.00  0.00    +0.139 C 
ENDROOT
BRANCH   1   2
ATOM      2  N   UNL     1      33.221 -11.955 -24.166  0.00  0.00    -0.291 N 
ATOM      3  C   UNL     1      34.197 -11.552 -25.180  0.00  0.00    +0.113 C 
ATOM      4  N   UNL     1      31.896 -11.432 -22.274  0.00  0.00    -0.233 NA
ATOM      5  N   UNL     1      31.995  -9.221 -21.322  0.00  0.00    -0.214 NA
ATOM      6  C   UNL     1      32.798 -11.036 -23.197  0.00  0.00    +0.115 C 
ATOM      7  C   UNL     1      33.336  -9.766 -23.246  0.00  0.00    +0.146 C 
ATOM      8  C   UNL     1      32.893  -8.892 -22.274  0.00  0.00    +0.210 C 
ATOM      9  C   UNL     1      31.545 -10.488 -21.380  0.00  0.00    +0.254 C 
BRANCH   8  10
ATOM     10  O   UNL     1      33.380  -7.611 -22.255  0.00  0.00    -0.440 OA
BRANCH  10  11
ATOM     11  C   UNL     1      32.623  -6.635 -22.871  0.00  0.00    +0.147 C 
ATOM     12  C   UNL     1      32.736  -6.427 -24.245  0.00  0.00    +0.041 C 
ATOM     13  C   UNL     1      31.742  -5.857 -22.118  0.00  0.00    +0.041 C 
ATOM     14  C   UNL     1      31.091  -4.663 -24.114  0.00  0.00    +0.139 C 
ATOM     15  C   UNL     1      31.970  -5.441 -24.867  0.00  0.00    +0.040 C 
ATOM     16  C   UNL     1      30.976  -4.872 -22.739  0.00  0.00    +0.040 C 
BRANCH  14  17
ATOM     17  O   UNL     1      30.342  -3.702 -24.721  0.00  0.00    -0.471 OA
ATOM     18  C   UNL     1      31.038  -2.735 -25.506  0.00  0.00    +0.252 C 
ENDBRANCH  14  17
ENDBRANCH  10  11
ENDBRANCH   8  10
ENDBRANCH   1   2
BRANCH   1  19
ATOM     19  C   UNL     1      33.867 -14.280 -24.430  0.00  0.00    +0.227 C 
BRANCH  19  20
ATOM     20  O   UNL     1      34.546 -14.530 -23.201  0.00  0.00    -0.474 OA
BRANCH  20  24
ATOM     21  C   UNL     1      34.979 -18.496 -22.054  0.00  0.00    -0.021 C 
ATOM     22  C   UNL     1      34.872 -17.498 -21.086  0.00  0.00    -0.001 C 
ATOM     23  C   UNL     1      34.942 -18.161 -23.408  0.00  0.00    -0.001 C 
ATOM     24  C   UNL     1      34.689 -15.831 -22.825  0.00  0.00    +0.139 C 
ATOM     25  C   UNL     1      34.727 -16.165 -21.471  0.00  0.00    +0.037 C 
ATOM     26  C   UNL     1      34.797 -16.829 -23.793  0.00  0.00    +0.037 C 
BRANCH  21  27
ATOM     27  C   UNL     1      35.136 -19.935 -21.637  0.00  0.00    +0.047 C 
BRANCH  27  32
ATOM     28  S   UNL     1      35.520 -21.501 -19.403  0.00  0.00    -0.048 S 
ATOM     29  O   UNL     1      32.246 -20.044 -20.838  0.00  0.00    -0.274 OA
ATOM     30  O   UNL     1      34.145 -23.561 -18.524  0.00  0.00    -0.263 OA
ATOM     31  N   UNL     1      33.007 -21.882 -19.657  0.00  0.00    -0.246 N 
ATOM     32  C   UNL     1      34.585 -20.186 -20.245  0.00  0.00    +0.137 C 
ATOM     33  C   UNL     1      33.152 -20.668 -20.296  0.00  0.00    +0.239 C 
ATOM     34  C   UNL     1      34.107 -22.493 -19.116  0.00  0.00    +0.279 C 
ATOM     35  H   UNL     1      32.121 -22.305 -19.591  0.00  0.00    +0.158 HD
ENDBRANCH  27  32
ENDBRANCH  21  27
ENDBRANCH  20  24
ENDBRANCH  19  20
ENDBRANCH   1  19
TORSDOF 9
ENDMDL
MODEL 7
REMARK VINA RESULT:     -11.6      6.234     10.743
REMARK  Name = 9826451
REMARK  9 active torsions:
REMARK  status: ('A' for Active; 'I' for Inactive)
REMARK    1  A    between atoms: C_1  and  N_2
REMARK    2  A    between atoms: C_1  and  C_19
REMARK    3  A    between atoms: C_8  and  O_10
REMARK    4  A    between atoms: O_10  and  C_11
REMARK    5  A    between atoms: C_14  and  O_17
REMARK    6  A    between atoms: C_19  and  O_20
REMARK    7  A    between atoms: O_20  and  C_24
REMARK    8  A    between atoms: C_21  and  C_27
REMARK    9  A    between atoms: C_27  and  C_32
REMARK                            x       y       z     vdW  Elec       q    Type
REMARK                         _______ _______ _______ _____ _____    ______ ____
ROOT
ATOM      1  C   UNL     1      36.794 -22.778 -16.470  0.00  0.00    +0.139 C 
ENDROOT
BRANCH   1   2
ATOM      2  N   UNL     1      35.448 -23.175 -16.131  0.00  0.00    -0.291 N 
ATOM      3  C   UNL     1      34.427 -23.152 -17.180  0.00  0.00    +0.113 C 
ATOM      4  N   UNL     1      36.067 -23.577 -13.881  0.00  0.00    -0.233 NA
ATOM      5  N   UNL     1      34.408 -24.327 -12.303  0.00  0.00    -0.214 NA
ATOM      6  C   UNL     1      35.107 -23.564 -14.829  0.00  0.00    +0.115 C 
ATOM      7  C   UNL     1      33.793 -23.914 -14.594  0.00  0.00    +0.146 C 
ATOM      8  C   UNL     1      33.499 -24.291 -13.298  0.00  0.00    +0.210 C 
ATOM      9  C   UNL     1      35.654 -23.962 -12.659  0.00  0.00    +0.254 C 
BRANCH   8  10
ATOM     10  O   UNL     1      32.215 -24.654 -12.984  0.00  0.00    -0.440 OA
BRANCH  10  11
ATOM     11  C   UNL     1      31.227 -24.347 -13.898  0.00  0.00    +0.147 C 
ATOM     12  C   UNL     1      30.502 -25.367 -14.512  0.00  0.00    +0.041 C 
ATOM     13  C   UNL     1      30.953 -23.013 -14.207  0.00  0.00    +0.041 C 
ATOM     14  C   UNL     1      29.231 -23.725 -15.743  0.00  0.00    +0.139 C 
ATOM     15  C   UNL     1      29.504 -25.057 -15.434  0.00  0.00    +0.040 C 
ATOM     16  C   UNL     1      29.955 -22.703 -15.129  0.00  0.00    +0.040 C 
BRANCH  14  17
ATOM     17  O   UNL     1      28.255 -23.421 -16.644  0.00  0.00    -0.471 OA
ATOM     18  C   UNL     1      27.353 -22.372 -16.295  0.00  0.00    +0.252 C 
ENDBRANCH  14  17
ENDBRANCH  10  11
ENDBRANCH   8  10
ENDBRANCH   1   2
BRANCH   1  19
ATOM     19  C   UNL     1      36.772 -21.474 -17.248  0.00  0.00    +0.227 C 
BRANCH  19  20
ATOM     20  O   UNL     1      36.830 -21.753 -18.646  0.00  0.00    -0.474 OA
BRANCH  20  24
ATOM     21  C   UNL     1      34.832 -19.144 -21.181  0.00  0.00    -0.021 C 
ATOM     22  C   UNL     1      34.132 -20.164 -20.538  0.00  0.00    -0.001 C 
ATOM     23  C   UNL     1      36.204 -19.000 -20.972  0.00  0.00    -0.001 C 
ATOM     24  C   UNL     1      36.175 -20.898 -19.477  0.00  0.00    +0.139 C 
ATOM     25  C   UNL     1      34.803 -21.041 -19.686  0.00  0.00    +0.037 C 
ATOM     26  C   UNL     1      36.875 -19.878 -20.121  0.00  0.00    +0.037 C 
BRANCH  21  27
ATOM     27  C   UNL     1      34.106 -18.197 -22.101  0.00  0.00    +0.047 C 
BRANCH  27  32
ATOM     28  S   UNL     1      34.582 -16.005 -23.700  0.00  0.00    -0.048 S 
ATOM     29  O   UNL     1      34.938 -19.758 -24.524  0.00  0.00    -0.274 OA
ATOM     30  O   UNL     1      33.951 -15.576 -26.215  0.00  0.00    -0.263 OA
ATOM     31  N   UNL     1      34.429 -17.752 -25.557  0.00  0.00    -0.246 N 
ATOM     32  C   UNL     1      34.993 -17.715 -23.235  0.00  0.00    +0.137 C 
ATOM     33  C   UNL     1      34.791 -18.542 -24.485  0.00  0.00    +0.239 C 
ATOM     34  C   UNL     1      34.268 -16.404 -25.375  0.00  0.00    +0.279 C 
ATOM     35  H   UNL     1      34.288 -18.154 -26.444  0.00  0.00    +0.158 HD
ENDBRANCH  27  32
ENDBRANCH  21  27
ENDBRANCH  20  24
ENDBRANCH  19  20
ENDBRANCH   1  19
TORSDOF 9
ENDMDL
MODEL 8
REMARK VINA RESULT:     -11.5      3.764     12.420
REMARK  Name = 9826451
REMARK  9 active torsions:
REMARK  status: ('A' for Active; 'I' for Inactive)
REMARK    1  A    between atoms: C_1  and  N_2
REMARK    2  A    between atoms: C_1  and  C_19
REMARK    3  A    between atoms: C_8  and  O_10
REMARK    4  A    between atoms: O_10  and  C_11
REMARK    5  A    between atoms: C_14  and  O_17
REMARK    6  A    between atoms: C_19  and  O_20
REMARK    7  A    between atoms: O_20  and  C_24
REMARK    8  A    between atoms: C_21  and  C_27
REMARK    9  A    between atoms: C_27  and  C_32
REMARK                            x       y       z     vdW  Elec       q    Type
REMARK                         _______ _______ _______ _____ _____    ______ ____
ROOT
ATOM      1  C   UNL     1      33.053 -13.652 -24.433  0.00  0.00    +0.139 C 
ENDROOT
BRANCH   1   2
ATOM      2  N   UNL     1      33.063 -12.374 -23.760  0.00  0.00    -0.291 N 
ATOM      3  C   UNL     1      32.236 -12.207 -22.564  0.00  0.00    +0.113 C 
ATOM      4  N   UNL     1      34.585 -11.484 -25.342  0.00  0.00    -0.233 NA
ATOM      5  N   UNL     1      35.316  -9.198 -25.138  0.00  0.00    -0.214 NA
ATOM      6  C   UNL     1      33.831 -11.304 -24.237  0.00  0.00    +0.115 C 
ATOM      7  C   UNL     1      33.769 -10.115 -23.538  0.00  0.00    +0.146 C 
ATOM      8  C   UNL     1      34.541  -9.086 -24.040  0.00  0.00    +0.210 C 
ATOM      9  C   UNL     1      35.291 -10.406 -25.731  0.00  0.00    +0.254 C 
BRANCH   8  10
ATOM     10  O   UNL     1      34.534  -7.874 -23.402  0.00  0.00    -0.440 OA
BRANCH  10  11
ATOM     11  C   UNL     1      33.527  -6.989 -23.732  0.00  0.00    +0.147 C 
ATOM     12  C   UNL     1      32.445  -6.808 -22.871  0.00  0.00    +0.041 C 
ATOM     13  C   UNL     1      33.593  -6.274 -24.929  0.00  0.00    +0.041 C 
ATOM     14  C   UNL     1      31.495  -5.199 -24.402  0.00  0.00    +0.139 C 
ATOM     15  C   UNL     1      31.429  -5.914 -23.205  0.00  0.00    +0.040 C 
ATOM     16  C   UNL     1      32.578  -5.379 -25.263  0.00  0.00    +0.040 C 
BRANCH  14  17
ATOM     17  O   UNL     1      30.504  -4.325 -24.728  0.00  0.00    -0.471 OA
ATOM     18  C   UNL     1      30.879  -2.964 -24.934  0.00  0.00    +0.252 C 
ENDBRANCH  14  17
ENDBRANCH  10  11
ENDBRANCH   8  10
ENDBRANCH   1   2
BRANCH   1  19
ATOM     19  C   UNL     1      33.331 -14.766 -23.438  0.00  0.00    +0.227 C 
BRANCH  19  20
ATOM     20  O   UNL     1      34.450 -15.531 -23.883  0.00  0.00    -0.474 OA
BRANCH  20  24
ATOM     21  C   UNL     1      35.149 -19.148 -21.971  0.00  0.00    -0.021 C 
ATOM     22  C   UNL     1      34.960 -19.114 -23.353  0.00  0.00    -0.001 C 
ATOM     23  C   UNL     1      35.102 -17.966 -21.232  0.00  0.00    -0.001 C 
ATOM     24  C   UNL     1      34.679 -16.717 -23.256  0.00  0.00    +0.139 C 
ATOM     25  C   UNL     1      34.725 -17.899 -23.996  0.00  0.00    +0.037 C 
ATOM     26  C   UNL     1      34.867 -16.751 -21.874  0.00  0.00    +0.037 C 
BRANCH  21  27
ATOM     27  C   UNL     1      35.403 -20.462 -21.278  0.00  0.00    +0.047 C 
BRANCH  27  32
ATOM     28  S   UNL     1      35.471 -21.798 -18.870  0.00  0.00    -0.048 S 
ATOM     29  O   UNL     1      32.445 -20.352 -20.780  0.00  0.00    -0.274 OA
ATOM     30  O   UNL     1      33.901 -23.689 -17.939  0.00  0.00    -0.263 OA
ATOM     31  N   UNL     1      32.979 -22.088 -19.347  0.00  0.00    -0.246 N 
ATOM     32  C   UNL     1      34.701 -20.538 -19.933  0.00  0.00    +0.137 C 
ATOM     33  C   UNL     1      33.256 -20.956 -20.086  0.00  0.00    +0.239 C 
ATOM     34  C   UNL     1      33.983 -22.689 -18.635  0.00  0.00    +0.279 C 
ATOM     35  H   UNL     1      32.068 -22.460 -19.333  0.00  0.00    +0.158 HD
ENDBRANCH  27  32
ENDBRANCH  21  27
ENDBRANCH  20  24
ENDBRANCH  19  20
ENDBRANCH   1  19
TORSDOF 9
ENDMDL
MODEL 9
REMARK VINA RESULT:     -11.4      3.831     12.359
REMARK  Name = 9826451
REMARK  9 active torsions:
REMARK  status: ('A' for Active; 'I' for Inactive)
REMARK    1  A    between atoms: C_1  and  N_2
REMARK    2  A    between atoms: C_1  and  C_19
REMARK    3  A    between atoms: C_8  and  O_10
REMARK    4  A    between atoms: O_10  and  C_11
REMARK    5  A    between atoms: C_14  and  O_17
REMARK    6  A    between atoms: C_19  and  O_20
REMARK    7  A    between atoms: O_20  and  C_24
REMARK    8  A    between atoms: C_21  and  C_27
REMARK    9  A    between atoms: C_27  and  C_32
REMARK                            x       y       z     vdW  Elec       q    Type
REMARK                         _______ _______ _______ _____ _____    ______ ____
ROOT
ATOM      1  C   UNL     1      33.064 -13.297 -24.232  0.00  0.00    +0.139 C 
ENDROOT
BRANCH   1   2
ATOM      2  N   UNL     1      33.427 -11.901 -24.173  0.00  0.00    -0.291 N 
ATOM      3  C   UNL     1      34.418 -11.395 -25.124  0.00  0.00    +0.113 C 
ATOM      4  N   UNL     1      31.951 -11.529 -22.359  0.00  0.00    -0.233 NA
ATOM      5  N   UNL     1      31.782  -9.330 -21.389  0.00  0.00    -0.214 NA
ATOM      6  C   UNL     1      32.863 -11.038 -23.224  0.00  0.00    +0.115 C 
ATOM      7  C   UNL     1      33.279  -9.722 -23.233  0.00  0.00    +0.146 C 
ATOM      8  C   UNL     1      32.699  -8.906 -22.283  0.00  0.00    +0.210 C 
ATOM      9  C   UNL     1      31.460 -10.634 -21.481  0.00  0.00    +0.254 C 
BRANCH   8  10
ATOM     10  O   UNL     1      33.060  -7.585 -22.228  0.00  0.00    -0.440 OA
BRANCH  10  11
ATOM     11  C   UNL     1      33.155  -6.903 -23.424  0.00  0.00    +0.147 C 
ATOM     12  C   UNL     1      34.338  -6.948 -24.162  0.00  0.00    +0.041 C 
ATOM     13  C   UNL     1      32.067  -6.167 -23.896  0.00  0.00    +0.041 C 
ATOM     14  C   UNL     1      33.346  -5.524 -25.841  0.00  0.00    +0.139 C 
ATOM     15  C   UNL     1      34.434  -6.259 -25.370  0.00  0.00    +0.040 C 
ATOM     16  C   UNL     1      32.162  -5.479 -25.104  0.00  0.00    +0.040 C 
BRANCH  14  17
ATOM     17  O   UNL     1      33.439  -4.852 -27.022  0.00  0.00    -0.471 OA
ATOM     18  C   UNL     1      34.750  -4.595 -27.522  0.00  0.00    +0.252 C 
ENDBRANCH  14  17
ENDBRANCH  10  11
ENDBRANCH   8  10
ENDBRANCH   1   2
BRANCH   1  19
ATOM     19  C   UNL     1      33.859 -14.085 -23.205  0.00  0.00    +0.227 C 
BRANCH  19  20
ATOM     20  O   UNL     1      34.724 -15.000 -23.875  0.00  0.00    -0.474 OA
BRANCH  20  24
ATOM     21  C   UNL     1      35.044 -18.817 -22.279  0.00  0.00    -0.021 C 
ATOM     22  C   UNL     1      34.973 -18.644 -23.660  0.00  0.00    -0.001 C 
ATOM     23  C   UNL     1      35.007 -17.708 -21.433  0.00  0.00    -0.001 C 
ATOM     24  C   UNL     1      34.829 -16.252 -23.352  0.00  0.00    +0.139 C 
ATOM     25  C   UNL     1      34.865 -17.361 -24.198  0.00  0.00    +0.037 C 
ATOM     26  C   UNL     1      34.899 -16.426 -21.970  0.00  0.00    +0.037 C 
BRANCH  21  27
ATOM     27  C   UNL     1      35.160 -20.204 -21.699  0.00  0.00    +0.047 C 
BRANCH  27  32
ATOM     28  S   UNL     1      35.518 -21.515 -19.303  0.00  0.00    -0.048 S 
ATOM     29  O   UNL     1      32.277 -20.124 -20.871  0.00  0.00    -0.274 OA
ATOM     30  O   UNL     1      34.087 -23.414 -18.183  0.00  0.00    -0.263 OA
ATOM     31  N   UNL     1      32.991 -21.838 -19.492  0.00  0.00    -0.246 N 
ATOM     32  C   UNL     1      34.616 -20.275 -20.283  0.00  0.00    +0.137 C 
ATOM     33  C   UNL     1      33.169 -20.711 -20.268  0.00  0.00    +0.239 C 
ATOM     34  C   UNL     1      34.077 -22.420 -18.893  0.00  0.00    +0.279 C 
ATOM     35  H   UNL     1      32.092 -22.221 -19.372  0.00  0.00    +0.158 HD
ENDBRANCH  27  32
ENDBRANCH  21  27
ENDBRANCH  20  24
ENDBRANCH  19  20
ENDBRANCH   1  19
TORSDOF 9
ENDMDL
