MODEL 1
REMARK VINA RESULT:      -8.1      0.000      0.000
REMARK  Name = 4011
REMARK  4 active torsions:
REMARK  status: ('A' for Active; 'I' for Inactive)
REMARK    1  A    between atoms: C_1  and  C_17
REMARK    2  A    between atoms: C_17  and  C_18
REMARK    3  A    between atoms: C_18  and  C_19
REMARK    4  A    between atoms: C_19  and  N_20
REMARK                            x       y       z     vdW  Elec       q    Type
REMARK                         _______ _______ _______ _____ _____    ______ ____
ROOT
ATOM      1  C   UNL     1      32.566  -8.641 -23.000  0.00  0.00    +0.037 C 
ATOM      2  C   UNL     1      34.650  -7.416 -24.084  0.00  0.00    +0.044 C 
ATOM      3  C   UNL     1      33.572  -8.157 -21.901  0.00  0.00    +0.009 C 
ATOM      4  C   UNL     1      34.795  -7.436 -22.544  0.00  0.00    +0.009 C 
ATOM      5  C   UNL     1      32.198  -7.374 -23.796  0.00  0.00    -0.023 C 
ATOM      6  C   UNL     1      33.396  -9.539 -23.938  0.00  0.00    -0.023 C 
ATOM      7  C   UNL     1      33.325  -6.725 -24.371  0.00  0.00    -0.022 C 
ATOM      8  C   UNL     1      34.513  -8.871 -24.511  0.00  0.00    -0.022 C 
ATOM      9  C   UNL     1      30.926  -6.848 -23.997  0.00  0.00    -0.004 C 
ATOM     10  C   UNL     1      33.152 -10.870 -24.261  0.00  0.00    -0.004 C 
ATOM     11  C   UNL     1      33.180  -5.569 -25.129  0.00  0.00    -0.004 C 
ATOM     12  C   UNL     1      35.369  -9.525 -25.388  0.00  0.00    -0.004 C 
ATOM     13  C   UNL     1      30.783  -5.685 -24.759  0.00  0.00    -0.000 C 
ATOM     14  C   UNL     1      34.016 -11.526 -25.143  0.00  0.00    -0.000 C 
ATOM     15  C   UNL     1      31.899  -5.051 -25.320  0.00  0.00    -0.000 C 
ATOM     16  C   UNL     1      35.115 -10.861 -25.701  0.00  0.00    -0.000 C 
ENDROOT
BRANCH   1  17
ATOM     17  C   UNL     1      31.375  -9.343 -22.340  0.00  0.00    +0.006 C 
BRANCH  17  18
ATOM     18  C   UNL     1      31.726  -9.815 -20.933  0.00  0.00    -0.023 C 
BRANCH  18  19
ATOM     19  C   UNL     1      31.035 -11.140 -20.616  0.00  0.00    -0.082 C 
BRANCH  19  20
ATOM     20  N   UNL     1      31.130 -12.047 -21.754  0.00  0.00    +0.382 N 
ATOM     21  C   UNL     1      32.115 -13.090 -21.506  0.00  0.00    -0.106 C 
ATOM     22  H   UNL     1      31.405 -11.517 -22.581  0.00  0.00    -0.085 HD
ATOM     23  H   UNL     1      30.220 -12.484 -21.898  0.00  0.00    -0.085 HD
ENDBRANCH  19  20
ENDBRANCH  18  19
ENDBRANCH  17  18
ENDBRANCH   1  17
TORSDOF 4
ENDMDL
MODEL 2
REMARK VINA RESULT:      -7.8      1.530      4.827
REMARK  Name = 4011
REMARK  4 active torsions:
REMARK  status: ('A' for Active; 'I' for Inactive)
REMARK    1  A    between atoms: C_1  and  C_17
REMARK    2  A    between atoms: C_17  and  C_18
REMARK    3  A    between atoms: C_18  and  C_19
REMARK    4  A    between atoms: C_19  and  N_20
REMARK                            x       y       z     vdW  Elec       q    Type
REMARK                         _______ _______ _______ _____ _____    ______ ____
ROOT
ATOM      1  C   UNL     1      32.729  -8.780 -23.140  0.00  0.00    +0.037 C 
ATOM      2  C   UNL     1      32.705  -7.327 -20.924  0.00  0.00    +0.044 C 
ATOM      3  C   UNL     1      34.183  -8.393 -22.701  0.00  0.00    +0.009 C 
ATOM      4  C   UNL     1      34.163  -7.539 -21.398  0.00  0.00    +0.009 C 
ATOM      5  C   UNL     1      32.122  -9.508 -21.924  0.00  0.00    -0.023 C 
ATOM      6  C   UNL     1      31.982  -7.440 -23.283  0.00  0.00    -0.023 C 
ATOM      7  C   UNL     1      32.116  -8.718 -20.742  0.00  0.00    -0.022 C 
ATOM      8  C   UNL     1      31.978  -6.668 -22.089  0.00  0.00    -0.022 C 
ATOM      9  C   UNL     1      31.598 -10.796 -21.893  0.00  0.00    -0.004 C 
ATOM     10  C   UNL     1      31.338  -6.954 -24.417  0.00  0.00    -0.004 C 
ATOM     11  C   UNL     1      31.599  -9.212 -19.550  0.00  0.00    -0.004 C 
ATOM     12  C   UNL     1      31.345  -5.433 -22.034  0.00  0.00    -0.004 C 
ATOM     13  C   UNL     1      31.079 -11.290 -20.692  0.00  0.00    -0.000 C 
ATOM     14  C   UNL     1      30.702  -5.710 -24.359  0.00  0.00    -0.000 C 
ATOM     15  C   UNL     1      31.080 -10.507 -19.532  0.00  0.00    -0.000 C 
ATOM     16  C   UNL     1      30.705  -4.957 -23.178  0.00  0.00    -0.000 C 
ENDROOT
BRANCH   1  17
ATOM     17  C   UNL     1      32.780  -9.618 -24.421  0.00  0.00    +0.006 C 
BRANCH  17  18
ATOM     18  C   UNL     1      34.082 -10.406 -24.511  0.00  0.00    -0.023 C 
BRANCH  18  19
ATOM     19  C   UNL     1      33.809 -11.873 -24.838  0.00  0.00    -0.082 C 
BRANCH  19  20
ATOM     20  N   UNL     1      34.122 -12.715 -23.689  0.00  0.00    +0.382 N 
ATOM     21  C   UNL     1      33.719 -14.092 -23.930  0.00  0.00    -0.106 C 
ATOM     22  H   UNL     1      33.627 -12.360 -22.871  0.00  0.00    -0.085 HD
ATOM     23  H   UNL     1      35.130 -12.692 -23.533  0.00  0.00    -0.085 HD
ENDBRANCH  19  20
ENDBRANCH  18  19
ENDBRANCH  17  18
ENDBRANCH   1  17
TORSDOF 4
ENDMDL
MODEL 3
REMARK VINA RESULT:      -7.7      2.514      5.412
REMARK  Name = 4011
REMARK  4 active torsions:
REMARK  status: ('A' for Active; 'I' for Inactive)
REMARK    1  A    between atoms: C_1  and  C_17
REMARK    2  A    between atoms: C_17  and  C_18
REMARK    3  A    between atoms: C_18  and  C_19
REMARK    4  A    between atoms: C_19  and  N_20
REMARK                            x       y       z     vdW  Elec       q    Type
REMARK                         _______ _______ _______ _____ _____    ______ ____
ROOT
ATOM      1  C   UNL     1      32.067  -7.852 -21.959  0.00  0.00    +0.037 C 
ATOM      2  C   UNL     1      31.713 -10.268 -22.990  0.00  0.00    +0.044 C 
ATOM      3  C   UNL     1      30.780  -7.904 -22.852  0.00  0.00    +0.009 C 
ATOM      4  C   UNL     1      30.577  -9.326 -23.455  0.00  0.00    +0.009 C 
ATOM      5  C   UNL     1      31.868  -8.957 -20.903  0.00  0.00    -0.023 C 
ATOM      6  C   UNL     1      33.214  -8.309 -22.881  0.00  0.00    -0.023 C 
ATOM      7  C   UNL     1      31.679 -10.248 -21.469  0.00  0.00    -0.022 C 
ATOM      8  C   UNL     1      33.012  -9.604 -23.430  0.00  0.00    -0.022 C 
ATOM      9  C   UNL     1      31.872  -8.807 -19.520  0.00  0.00    -0.004 C 
ATOM     10  C   UNL     1      34.371  -7.603 -23.194  0.00  0.00    -0.004 C 
ATOM     11  C   UNL     1      31.492 -11.365 -20.664  0.00  0.00    -0.004 C 
ATOM     12  C   UNL     1      33.950 -10.179 -24.279  0.00  0.00    -0.004 C 
ATOM     13  C   UNL     1      31.682  -9.933 -18.713  0.00  0.00    -0.000 C 
ATOM     14  C   UNL     1      35.312  -8.183 -24.050  0.00  0.00    -0.000 C 
ATOM     15  C   UNL     1      31.494 -11.200 -19.279  0.00  0.00    -0.000 C 
ATOM     16  C   UNL     1      35.104  -9.460 -24.587  0.00  0.00    -0.000 C 
ENDROOT
BRANCH   1  17
ATOM     17  C   UNL     1      32.239  -6.445 -21.380  0.00  0.00    +0.006 C 
BRANCH  17  18
ATOM     18  C   UNL     1      31.004  -5.589 -21.636  0.00  0.00    -0.023 C 
BRANCH  18  19
ATOM     19  C   UNL     1      31.307  -4.486 -22.648  0.00  0.00    -0.082 C 
BRANCH  19  20
ATOM     20  N   UNL     1      30.465  -3.322 -22.397  0.00  0.00    +0.382 N 
ATOM     21  C   UNL     1      30.971  -2.154 -23.102  0.00  0.00    -0.106 C 
ATOM     22  H   UNL     1      30.452  -3.129 -21.395  0.00  0.00    -0.085 HD
ATOM     23  H   UNL     1      29.523  -3.523 -22.733  0.00  0.00    -0.085 HD
ENDBRANCH  19  20
ENDBRANCH  18  19
ENDBRANCH  17  18
ENDBRANCH   1  17
TORSDOF 4
ENDMDL
MODEL 4
REMARK VINA RESULT:      -7.4      1.781      4.138
REMARK  Name = 4011
REMARK  4 active torsions:
REMARK  status: ('A' for Active; 'I' for Inactive)
REMARK    1  A    between atoms: C_1  and  C_17
REMARK    2  A    between atoms: C_17  and  C_18
REMARK    3  A    between atoms: C_18  and  C_19
REMARK    4  A    between atoms: C_19  and  N_20
REMARK                            x       y       z     vdW  Elec       q    Type
REMARK                         _______ _______ _______ _____ _____    ______ ____
ROOT
ATOM      1  C   UNL     1      32.991  -7.980 -23.734  0.00  0.00    +0.037 C 
ATOM      2  C   UNL     1      31.124  -6.101 -23.807  0.00  0.00    +0.044 C 
ATOM      3  C   UNL     1      31.630  -8.554 -24.256  0.00  0.00    +0.009 C 
ATOM      4  C   UNL     1      30.536  -7.445 -24.298  0.00  0.00    +0.009 C 
ATOM      5  C   UNL     1      33.323  -6.809 -24.679  0.00  0.00    -0.023 C 
ATOM      6  C   UNL     1      32.668  -7.371 -22.356  0.00  0.00    -0.023 C 
ATOM      7  C   UNL     1      32.313  -5.808 -24.710  0.00  0.00    -0.022 C 
ATOM      8  C   UNL     1      31.663  -6.366 -22.407  0.00  0.00    -0.022 C 
ATOM      9  C   UNL     1      34.470  -6.651 -25.451  0.00  0.00    -0.004 C 
ATOM     10  C   UNL     1      33.252  -7.696 -21.135  0.00  0.00    -0.004 C 
ATOM     11  C   UNL     1      32.448  -4.675 -25.503  0.00  0.00    -0.004 C 
ATOM     12  C   UNL     1      31.250  -5.703 -21.258  0.00  0.00    -0.004 C 
ATOM     13  C   UNL     1      34.602  -5.511 -26.248  0.00  0.00    -0.000 C 
ATOM     14  C   UNL     1      32.833  -7.029 -19.980  0.00  0.00    -0.000 C 
ATOM     15  C   UNL     1      33.601  -4.532 -26.275  0.00  0.00    -0.000 C 
ATOM     16  C   UNL     1      31.841  -6.041 -20.041  0.00  0.00    -0.000 C 
ENDROOT
BRANCH   1  17
ATOM     17  C   UNL     1      34.046  -9.090 -23.705  0.00  0.00    +0.006 C 
BRANCH  17  18
ATOM     18  C   UNL     1      33.393 -10.466 -23.623  0.00  0.00    -0.023 C 
BRANCH  18  19
ATOM     19  C   UNL     1      34.057 -11.441 -24.595  0.00  0.00    -0.082 C 
BRANCH  19  20
ATOM     20  N   UNL     1      34.107 -12.778 -24.016  0.00  0.00    +0.382 N 
ATOM     21  C   UNL     1      32.915 -13.046 -23.225  0.00  0.00    -0.106 C 
ATOM     22  H   UNL     1      34.929 -12.852 -23.417  0.00  0.00    -0.085 HD
ATOM     23  H   UNL     1      34.157 -13.459 -24.773  0.00  0.00    -0.085 HD
ENDBRANCH  19  20
ENDBRANCH  18  19
ENDBRANCH  17  18
ENDBRANCH   1  17
TORSDOF 4
ENDMDL
MODEL 5
REMARK VINA RESULT:      -7.0     14.579     17.530
REMARK  Name = 4011
REMARK  4 active torsions:
REMARK  status: ('A' for Active; 'I' for Inactive)
REMARK    1  A    between atoms: C_1  and  C_17
REMARK    2  A    between atoms: C_17  and  C_18
REMARK    3  A    between atoms: C_18  and  C_19
REMARK    4  A    between atoms: C_19  and  N_20
REMARK                            x       y       z     vdW  Elec       q    Type
REMARK                         _______ _______ _______ _____ _____    ______ ____
ROOT
ATOM      1  C   UNL     1      35.126 -24.008 -15.065  0.00  0.00    +0.037 C 
ATOM      2  C   UNL     1      37.471 -22.801 -15.314  0.00  0.00    +0.044 C 
ATOM      3  C   UNL     1      35.353 -22.969 -13.914  0.00  0.00    +0.009 C 
ATOM      4  C   UNL     1      36.733 -22.262 -14.066  0.00  0.00    +0.009 C 
ATOM      5  C   UNL     1      35.275 -23.203 -16.370  0.00  0.00    -0.023 C 
ATOM      6  C   UNL     1      36.330 -24.967 -14.985  0.00  0.00    -0.023 C 
ATOM      7  C   UNL     1      36.537 -22.559 -16.491  0.00  0.00    -0.022 C 
ATOM      8  C   UNL     1      37.582 -24.307 -15.117  0.00  0.00    -0.022 C 
ATOM      9  C   UNL     1      34.336 -23.071 -17.388  0.00  0.00    -0.004 C 
ATOM     10  C   UNL     1      36.296 -26.347 -14.813  0.00  0.00    -0.004 C 
ATOM     11  C   UNL     1      36.849 -21.794 -17.609  0.00  0.00    -0.004 C 
ATOM     12  C   UNL     1      38.776 -25.016 -15.076  0.00  0.00    -0.004 C 
ATOM     13  C   UNL     1      34.652 -22.300 -18.510  0.00  0.00    -0.000 C 
ATOM     14  C   UNL     1      37.499 -27.058 -14.771  0.00  0.00    -0.000 C 
ATOM     15  C   UNL     1      35.896 -21.667 -18.620  0.00  0.00    -0.000 C 
ATOM     16  C   UNL     1      38.728 -26.399 -14.902  0.00  0.00    -0.000 C 
ENDROOT
BRANCH   1  17
ATOM     17  C   UNL     1      33.763 -24.686 -14.890  0.00  0.00    +0.006 C 
BRANCH  17  18
ATOM     18  C   UNL     1      33.007 -24.102 -13.702  0.00  0.00    -0.023 C 
BRANCH  18  19
ATOM     19  C   UNL     1      31.540 -23.865 -14.054  0.00  0.00    -0.082 C 
BRANCH  19  20
ATOM     20  N   UNL     1      30.741 -25.037 -13.715  0.00  0.00    +0.382 N 
ATOM     21  C   UNL     1      29.988 -25.504 -14.870  0.00  0.00    -0.106 C 
ATOM     22  H   UNL     1      30.091 -24.792 -12.968  0.00  0.00    -0.085 HD
ATOM     23  H   UNL     1      31.368 -25.782 -13.411  0.00  0.00    -0.085 HD
ENDBRANCH  19  20
ENDBRANCH  18  19
ENDBRANCH  17  18
ENDBRANCH   1  17
TORSDOF 4
ENDMDL
MODEL 6
REMARK VINA RESULT:      -6.7     15.185     18.242
REMARK  Name = 4011
REMARK  4 active torsions:
REMARK  status: ('A' for Active; 'I' for Inactive)
REMARK    1  A    between atoms: C_1  and  C_17
REMARK    2  A    between atoms: C_17  and  C_18
REMARK    3  A    between atoms: C_18  and  C_19
REMARK    4  A    between atoms: C_19  and  N_20
REMARK                            x       y       z     vdW  Elec       q    Type
REMARK                         _______ _______ _______ _____ _____    ______ ____
ROOT
ATOM      1  C   UNL     1      35.278 -24.657 -14.696  0.00  0.00    +0.037 C 
ATOM      2  C   UNL     1      37.898 -24.271 -14.602  0.00  0.00    +0.044 C 
ATOM      3  C   UNL     1      36.056 -25.967 -15.062  0.00  0.00    +0.009 C 
ATOM      4  C   UNL     1      37.596 -25.734 -15.004  0.00  0.00    +0.009 C 
ATOM      5  C   UNL     1      35.798 -24.255 -13.302  0.00  0.00    -0.023 C 
ATOM      6  C   UNL     1      35.786 -23.596 -15.691  0.00  0.00    -0.023 C 
ATOM      7  C   UNL     1      37.205 -24.052 -13.264  0.00  0.00    -0.022 C 
ATOM      8  C   UNL     1      37.193 -23.400 -15.633  0.00  0.00    -0.022 C 
ATOM      9  C   UNL     1      35.046 -24.073 -12.146  0.00  0.00    -0.004 C 
ATOM     10  C   UNL     1      35.025 -22.848 -16.584  0.00  0.00    -0.004 C 
ATOM     11  C   UNL     1      37.846 -23.679 -12.090  0.00  0.00    -0.004 C 
ATOM     12  C   UNL     1      37.824 -22.475 -16.456  0.00  0.00    -0.004 C 
ATOM     13  C   UNL     1      35.694 -23.698 -10.965  0.00  0.00    -0.000 C 
ATOM     14  C   UNL     1      35.663 -21.919 -17.412  0.00  0.00    -0.000 C 
ATOM     15  C   UNL     1      37.080 -23.503 -10.937  0.00  0.00    -0.000 C 
ATOM     16  C   UNL     1      37.050 -21.734 -17.348  0.00  0.00    -0.000 C 
ENDROOT
BRANCH   1  17
ATOM     17  C   UNL     1      33.769 -24.915 -14.760  0.00  0.00    +0.006 C 
BRANCH  17  18
ATOM     18  C   UNL     1      32.983 -23.613 -14.659  0.00  0.00    -0.023 C 
BRANCH  18  19
ATOM     19  C   UNL     1      31.693 -23.817 -13.866  0.00  0.00    -0.082 C 
BRANCH  19  20
ATOM     20  N   UNL     1      31.267 -25.209 -13.941  0.00  0.00    +0.382 N 
ATOM     21  C   UNL     1      30.078 -25.344 -14.770  0.00  0.00    -0.106 C 
ATOM     22  H   UNL     1      31.058 -25.546 -13.001  0.00  0.00    -0.085 HD
ATOM     23  H   UNL     1      32.019 -25.759 -14.357  0.00  0.00    -0.085 HD
ENDBRANCH  19  20
ENDBRANCH  18  19
ENDBRANCH  17  18
ENDBRANCH   1  17
TORSDOF 4
ENDMDL
MODEL 7
REMARK VINA RESULT:      -6.7      1.110      1.542
REMARK  Name = 4011
REMARK  4 active torsions:
REMARK  status: ('A' for Active; 'I' for Inactive)
REMARK    1  A    between atoms: C_1  and  C_17
REMARK    2  A    between atoms: C_17  and  C_18
REMARK    3  A    between atoms: C_18  and  C_19
REMARK    4  A    between atoms: C_19  and  N_20
REMARK                            x       y       z     vdW  Elec       q    Type
REMARK                         _______ _______ _______ _____ _____    ______ ____
ROOT
ATOM      1  C   UNL     1      32.697  -8.578 -23.123  0.00  0.00    +0.037 C 
ATOM      2  C   UNL     1      34.762  -7.431 -24.323  0.00  0.00    +0.044 C 
ATOM      3  C   UNL     1      33.761  -8.093 -22.079  0.00  0.00    +0.009 C 
ATOM      4  C   UNL     1      34.972  -7.419 -22.791  0.00  0.00    +0.009 C 
ATOM      5  C   UNL     1      32.326  -7.321 -23.933  0.00  0.00    -0.023 C 
ATOM      6  C   UNL     1      33.464  -9.518 -24.073  0.00  0.00    -0.023 C 
ATOM      7  C   UNL     1      33.442  -6.714 -24.571  0.00  0.00    -0.022 C 
ATOM      8  C   UNL     1      34.571  -8.892 -24.709  0.00  0.00    -0.022 C 
ATOM      9  C   UNL     1      31.059  -6.768 -24.093  0.00  0.00    -0.004 C 
ATOM     10  C   UNL     1      33.175 -10.850 -24.352  0.00  0.00    -0.004 C 
ATOM     11  C   UNL     1      33.292  -5.573 -25.351  0.00  0.00    -0.004 C 
ATOM     12  C   UNL     1      35.373  -9.588 -25.605  0.00  0.00    -0.004 C 
ATOM     13  C   UNL     1      30.912  -5.620 -24.877  0.00  0.00    -0.000 C 
ATOM     14  C   UNL     1      33.984 -11.548 -25.253  0.00  0.00    -0.000 C 
ATOM     15  C   UNL     1      32.017  -5.028 -25.500  0.00  0.00    -0.000 C 
ATOM     16  C   UNL     1      35.073 -10.923 -25.874  0.00  0.00    -0.000 C 
ENDROOT
BRANCH   1  17
ATOM     17  C   UNL     1      31.519  -9.234 -22.396  0.00  0.00    +0.006 C 
BRANCH  17  18
ATOM     18  C   UNL     1      32.000 -10.322 -21.442  0.00  0.00    -0.023 C 
BRANCH  18  19
ATOM     19  C   UNL     1      31.434 -10.104 -20.039  0.00  0.00    -0.082 C 
BRANCH  19  20
ATOM     20  N   UNL     1      32.366  -9.325 -19.232  0.00  0.00    +0.382 N 
ATOM     21  C   UNL     1      32.042  -7.907 -19.291  0.00  0.00    -0.106 C 
ATOM     22  H   UNL     1      33.312  -9.467 -19.585  0.00  0.00    -0.085 HD
ATOM     23  H   UNL     1      32.297  -9.637 -18.263  0.00  0.00    -0.085 HD
ENDBRANCH  19  20
ENDBRANCH  18  19
ENDBRANCH  17  18
ENDBRANCH   1  17
TORSDOF 4
ENDMDL
MODEL 8
REMARK VINA RESULT:      -6.1      2.289      3.538
REMARK  Name = 4011
REMARK  4 active torsions:
REMARK  status: ('A' for Active; 'I' for Inactive)
REMARK    1  A    between atoms: C_1  and  C_17
REMARK    2  A    between atoms: C_17  and  C_18
REMARK    3  A    between atoms: C_18  and  C_19
REMARK    4  A    between atoms: C_19  and  N_20
REMARK                            x       y       z     vdW  Elec       q    Type
REMARK                         _______ _______ _______ _____ _____    ______ ____
ROOT
ATOM      1  C   UNL     1      32.631  -7.424 -23.074  0.00  0.00    +0.037 C 
ATOM      2  C   UNL     1      35.049  -7.864 -24.066  0.00  0.00    +0.044 C 
ATOM      3  C   UNL     1      33.744  -7.076 -22.028  0.00  0.00    +0.009 C 
ATOM      4  C   UNL     1      35.164  -7.337 -22.616  0.00  0.00    +0.009 C 
ATOM      5  C   UNL     1      32.961  -6.568 -24.312  0.00  0.00    -0.023 C 
ATOM      6  C   UNL     1      32.887  -8.894 -23.460  0.00  0.00    -0.023 C 
ATOM      7  C   UNL     1      34.261  -6.812 -24.834  0.00  0.00    -0.022 C 
ATOM      8  C   UNL     1      34.187  -9.118 -23.988  0.00  0.00    -0.022 C 
ATOM      9  C   UNL     1      32.136  -5.637 -24.934  0.00  0.00    -0.004 C 
ATOM     10  C   UNL     1      31.997  -9.958 -23.351  0.00  0.00    -0.004 C 
ATOM     11  C   UNL     1      34.726  -6.134 -25.954  0.00  0.00    -0.004 C 
ATOM     12  C   UNL     1      34.589 -10.384 -24.396  0.00  0.00    -0.004 C 
ATOM     13  C   UNL     1      32.606  -4.955 -26.060  0.00  0.00    -0.000 C 
ATOM     14  C   UNL     1      32.404 -11.231 -23.760  0.00  0.00    -0.000 C 
ATOM     15  C   UNL     1      33.889  -5.200 -26.566  0.00  0.00    -0.000 C 
ATOM     16  C   UNL     1      33.688 -11.442 -24.278  0.00  0.00    -0.000 C 
ENDROOT
BRANCH   1  17
ATOM     17  C   UNL     1      31.250  -7.158 -22.469  0.00  0.00    +0.006 C 
BRANCH  17  18
ATOM     18  C   UNL     1      31.315  -6.065 -21.408  0.00  0.00    -0.023 C 
BRANCH  18  19
ATOM     19  C   UNL     1      30.198  -5.043 -21.610  0.00  0.00    -0.082 C 
BRANCH  19  20
ATOM     20  N   UNL     1      30.383  -4.332 -22.870  0.00  0.00    +0.382 N 
ATOM     21  C   UNL     1      31.008  -3.036 -22.647  0.00  0.00    -0.106 C 
ATOM     22  H   UNL     1      29.475  -4.194 -23.312  0.00  0.00    -0.085 HD
ATOM     23  H   UNL     1      30.991  -4.888 -23.471  0.00  0.00    -0.085 HD
ENDBRANCH  19  20
ENDBRANCH  18  19
ENDBRANCH  17  18
ENDBRANCH   1  17
TORSDOF 4
ENDMDL
MODEL 9
REMARK VINA RESULT:      -6.0      2.520      5.852
REMARK  Name = 4011
REMARK  4 active torsions:
REMARK  status: ('A' for Active; 'I' for Inactive)
REMARK    1  A    between atoms: C_1  and  C_17
REMARK    2  A    between atoms: C_17  and  C_18
REMARK    3  A    between atoms: C_18  and  C_19
REMARK    4  A    between atoms: C_19  and  N_20
REMARK                            x       y       z     vdW  Elec       q    Type
REMARK                         _______ _______ _______ _____ _____    ______ ____
ROOT
ATOM      1  C   UNL     1      32.101 -12.326 -22.645  0.00  0.00    +0.037 C 
ATOM      2  C   UNL     1      33.778 -13.333 -24.433  0.00  0.00    +0.044 C 
ATOM      3  C   UNL     1      31.329 -12.951 -23.857  0.00  0.00    +0.009 C 
ATOM      4  C   UNL     1      32.319 -13.542 -24.904  0.00  0.00    +0.009 C 
ATOM      5  C   UNL     1      32.982 -13.466 -22.099  0.00  0.00    -0.023 C 
ATOM      6  C   UNL     1      33.048 -11.281 -23.268  0.00  0.00    -0.023 C 
ATOM      7  C   UNL     1      33.877 -13.998 -23.068  0.00  0.00    -0.022 C 
ATOM      8  C   UNL     1      33.941 -11.833 -24.227  0.00  0.00    -0.022 C 
ATOM      9  C   UNL     1      32.985 -13.980 -20.806  0.00  0.00    -0.004 C 
ATOM     10  C   UNL     1      33.106  -9.921 -22.978  0.00  0.00    -0.004 C 
ATOM     11  C   UNL     1      34.753 -15.029 -22.748  0.00  0.00    -0.004 C 
ATOM     12  C   UNL     1      34.870 -11.037 -24.884  0.00  0.00    -0.004 C 
ATOM     13  C   UNL     1      33.866 -15.017 -20.488  0.00  0.00    -0.000 C 
ATOM     14  C   UNL     1      34.041  -9.123 -23.642  0.00  0.00    -0.000 C 
ATOM     15  C   UNL     1      34.742 -15.537 -21.449  0.00  0.00    -0.000 C 
ATOM     16  C   UNL     1      34.916  -9.675 -24.586  0.00  0.00    -0.000 C 
ENDROOT
BRANCH   1  17
ATOM     17  C   UNL     1      31.103 -11.755 -21.634  0.00  0.00    +0.006 C 
BRANCH  17  18
ATOM     18  C   UNL     1      31.755 -11.557 -20.270  0.00  0.00    -0.023 C 
BRANCH  18  19
ATOM     19  C   UNL     1      31.289 -10.251 -19.629  0.00  0.00    -0.082 C 
BRANCH  19  20
ATOM     20  N   UNL     1      32.429  -9.381 -19.362  0.00  0.00    +0.382 N 
ATOM     21  C   UNL     1      32.268  -8.096 -20.026  0.00  0.00    -0.106 C 
ATOM     22  H   UNL     1      33.278  -9.831 -19.705  0.00  0.00    -0.085 HD
ATOM     23  H   UNL     1      32.491  -9.224 -18.356  0.00  0.00    -0.085 HD
ENDBRANCH  19  20
ENDBRANCH  18  19
ENDBRANCH  17  18
ENDBRANCH   1  17
TORSDOF 4
ENDMDL
