MODEL 1
REMARK VINA RESULT:      -8.7      0.000      0.000
REMARK  Name = 23636976
REMARK  6 active torsions:
REMARK  status: ('A' for Active; 'I' for Inactive)
REMARK    1  A    between atoms: C_1  and  C_13
REMARK    2  A    between atoms: C_2  and  C_4
REMARK    3  A    between atoms: C_5  and  O_6
REMARK    4  A    between atoms: C_5  and  C_9
REMARK    5  A    between atoms: C_9  and  O_10
REMARK    6  A    between atoms: C_13  and  C_15
REMARK                            x       y       z     vdW  Elec       q    Type
REMARK                         _______ _______ _______ _____ _____    ______ ____
ROOT
ATOM      1  C   UNL     1      34.952 -18.438 -22.839  0.00  0.00    +0.044 C 
ATOM      2  C   UNL     1      35.240 -17.207 -23.283  0.00  0.00    +0.036 C 
ENDROOT
BRANCH   2   4
ATOM      3  F   UNL     1      34.786 -17.231 -25.618  0.00  0.00    -0.201 F 
ATOM      4  C   UNL     1      34.590 -16.608 -24.432  0.00  0.00    +0.180 C 
ATOM      5  C   UNL     1      33.828 -15.502 -24.382  0.00  0.00    +0.238 C 
BRANCH   5   6
ATOM      6  O   UNL     1      33.232 -14.979 -25.515  0.00  0.00    -0.499 OA
ATOM      7  H   UNL     1      33.721 -14.419 -26.085  0.00  0.00    +0.292 HD
ENDBRANCH   5   6
BRANCH   5   9
ATOM      8  O   UNL     1      32.761 -15.095 -22.253  0.00  0.00    -0.242 OA
ATOM      9  C   UNL     1      33.614 -14.817 -23.080  0.00  0.00    +0.375 C 
BRANCH   9  10
ATOM     10  O   UNL     1      34.513 -13.817 -22.933  0.00  0.00    -0.475 OA
ATOM     11  H   UNL     1      34.272 -13.030 -22.484  0.00  0.00    +0.296 HD
ENDBRANCH   9  10
ENDBRANCH   5   9
ENDBRANCH   2   4
BRANCH   1  13
ATOM     12  O   UNL     1      36.836 -18.697 -21.400  0.00  0.00    -0.287 OA
ATOM     13  C   UNL     1      35.674 -18.989 -21.658  0.00  0.00    +0.196 C 
BRANCH  13  15
ATOM     14  F   UNL     1      32.922 -22.623 -18.385  0.00  0.00    -0.204 F 
ATOM     15  C   UNL     1      34.947 -19.950 -20.794  0.00  0.00    +0.039 C 
ATOM     16  C   UNL     1      35.652 -20.920 -20.083  0.00  0.00    +0.005 C 
ATOM     17  C   UNL     1      33.557 -19.882 -20.692  0.00  0.00    +0.005 C 
ATOM     18  C   UNL     1      34.967 -21.824 -19.268  0.00  0.00    +0.030 C 
ATOM     19  C   UNL     1      32.872 -20.786 -19.877  0.00  0.00    +0.030 C 
ATOM     20  C   UNL     1      33.578 -21.756 -19.166  0.00  0.00    +0.140 C 
ENDBRANCH  13  15
ENDBRANCH   1  13
TORSDOF 6
ENDMDL
MODEL 2
REMARK VINA RESULT:      -8.6      5.158      8.593
REMARK  Name = 23636976
REMARK  6 active torsions:
REMARK  status: ('A' for Active; 'I' for Inactive)
REMARK    1  A    between atoms: C_1  and  C_13
REMARK    2  A    between atoms: C_2  and  C_4
REMARK    3  A    between atoms: C_5  and  O_6
REMARK    4  A    between atoms: C_5  and  C_9
REMARK    5  A    between atoms: C_9  and  O_10
REMARK    6  A    between atoms: C_13  and  C_15
REMARK                            x       y       z     vdW  Elec       q    Type
REMARK                         _______ _______ _______ _____ _____    ______ ____
ROOT
ATOM      1  C   UNL     1      33.561 -22.804 -17.540  0.00  0.00    +0.044 C 
ATOM      2  C   UNL     1      32.344 -23.183 -17.126  0.00  0.00    +0.036 C 
ENDROOT
BRANCH   2   4
ATOM      3  F   UNL     1      32.939 -23.120 -14.824  0.00  0.00    -0.201 F 
ATOM      4  C   UNL     1      31.938 -23.160 -15.735  0.00  0.00    +0.180 C 
ATOM      5  C   UNL     1      30.661 -23.175 -15.316  0.00  0.00    +0.238 C 
BRANCH   5   6
ATOM      6  O   UNL     1      30.338 -23.149 -13.972  0.00  0.00    -0.499 OA
ATOM      7  H   UNL     1      31.002 -22.979 -13.333  0.00  0.00    +0.292 HD
ENDBRANCH   5   6
BRANCH   5   9
ATOM      8  O   UNL     1      29.173 -22.286 -16.999  0.00  0.00    -0.242 OA
ATOM      9  C   UNL     1      29.562 -23.218 -16.315  0.00  0.00    +0.375 C 
BRANCH   9  10
ATOM     10  O   UNL     1      29.035 -24.465 -16.365  0.00  0.00    -0.475 OA
ATOM     11  H   UNL     1      29.599 -25.213 -16.381  0.00  0.00    +0.296 HD
ENDBRANCH   9  10
ENDBRANCH   5   9
ENDBRANCH   2   4
BRANCH   1  13
ATOM     12  O   UNL     1      34.009 -23.930 -19.595  0.00  0.00    -0.287 OA
ATOM     13  C   UNL     1      33.906 -22.870 -18.987  0.00  0.00    +0.196 C 
BRANCH  13  15
ATOM     14  F   UNL     1      34.870 -18.027 -21.654  0.00  0.00    -0.204 F 
ATOM     15  C   UNL     1      34.160 -21.590 -19.693  0.00  0.00    +0.039 C 
ATOM     16  C   UNL     1      33.091 -20.793 -20.099  0.00  0.00    +0.005 C 
ATOM     17  C   UNL     1      35.470 -21.184 -19.948  0.00  0.00    +0.005 C 
ATOM     18  C   UNL     1      33.331 -19.588 -20.762  0.00  0.00    +0.030 C 
ATOM     19  C   UNL     1      35.710 -19.979 -20.611  0.00  0.00    +0.030 C 
ATOM     20  C   UNL     1      34.641 -19.182 -21.018  0.00  0.00    +0.140 C 
ENDBRANCH  13  15
ENDBRANCH   1  13
TORSDOF 6
ENDMDL
MODEL 3
REMARK VINA RESULT:      -8.5      5.094      9.079
REMARK  Name = 23636976
REMARK  6 active torsions:
REMARK  status: ('A' for Active; 'I' for Inactive)
REMARK    1  A    between atoms: C_1  and  C_13
REMARK    2  A    between atoms: C_2  and  C_4
REMARK    3  A    between atoms: C_5  and  O_6
REMARK    4  A    between atoms: C_5  and  C_9
REMARK    5  A    between atoms: C_9  and  O_10
REMARK    6  A    between atoms: C_13  and  C_15
REMARK                            x       y       z     vdW  Elec       q    Type
REMARK                         _______ _______ _______ _____ _____    ______ ____
ROOT
ATOM      1  C   UNL     1      33.287 -22.714 -17.603  0.00  0.00    +0.044 C 
ATOM      2  C   UNL     1      33.884 -23.399 -16.618  0.00  0.00    +0.036 C 
ENDROOT
BRANCH   2   4
ATOM      3  F   UNL     1      32.242 -22.766 -15.017  0.00  0.00    -0.201 F 
ATOM      4  C   UNL     1      33.449 -23.340 -15.236  0.00  0.00    +0.180 C 
ATOM      5  C   UNL     1      34.158 -23.810 -14.196  0.00  0.00    +0.238 C 
BRANCH   5   6
ATOM      6  O   UNL     1      33.687 -23.725 -12.899  0.00  0.00    -0.499 OA
ATOM      7  H   UNL     1      33.719 -22.908 -12.441  0.00  0.00    +0.292 HD
ENDBRANCH   5   6
BRANCH   5   9
ATOM      8  O   UNL     1      36.560 -23.866 -14.458  0.00  0.00    -0.242 OA
ATOM      9  C   UNL     1      35.483 -24.439 -14.437  0.00  0.00    +0.375 C 
BRANCH   9  10
ATOM     10  O   UNL     1      35.331 -25.770 -14.636  0.00  0.00    -0.475 OA
ATOM     11  H   UNL     1      34.867 -26.289 -14.008  0.00  0.00    +0.296 HD
ENDBRANCH   9  10
ENDBRANCH   5   9
ENDBRANCH   2   4
BRANCH   1  13
ATOM     12  O   UNL     1      33.983 -23.894 -19.555  0.00  0.00    -0.287 OA
ATOM     13  C   UNL     1      33.802 -22.818 -18.997  0.00  0.00    +0.196 C 
BRANCH  13  15
ATOM     14  F   UNL     1      35.045 -18.048 -21.679  0.00  0.00    -0.204 F 
ATOM     15  C   UNL     1      34.131 -21.557 -19.705  0.00  0.00    +0.039 C 
ATOM     16  C   UNL     1      35.463 -21.204 -19.918  0.00  0.00    +0.005 C 
ATOM     17  C   UNL     1      33.107 -20.725 -20.158  0.00  0.00    +0.005 C 
ATOM     18  C   UNL     1      35.772 -20.018 -20.585  0.00  0.00    +0.030 C 
ATOM     19  C   UNL     1      33.416 -19.539 -20.826  0.00  0.00    +0.030 C 
ATOM     20  C   UNL     1      34.748 -19.186 -21.039  0.00  0.00    +0.140 C 
ENDBRANCH  13  15
ENDBRANCH   1  13
TORSDOF 6
ENDMDL
MODEL 4
REMARK VINA RESULT:      -8.5      4.960      9.005
REMARK  Name = 23636976
REMARK  6 active torsions:
REMARK  status: ('A' for Active; 'I' for Inactive)
REMARK    1  A    between atoms: C_1  and  C_13
REMARK    2  A    between atoms: C_2  and  C_4
REMARK    3  A    between atoms: C_5  and  O_6
REMARK    4  A    between atoms: C_5  and  C_9
REMARK    5  A    between atoms: C_9  and  O_10
REMARK    6  A    between atoms: C_13  and  C_15
REMARK                            x       y       z     vdW  Elec       q    Type
REMARK                         _______ _______ _______ _____ _____    ______ ____
ROOT
ATOM      1  C   UNL     1      35.777 -22.220 -17.823  0.00  0.00    +0.044 C 
ATOM      2  C   UNL     1      35.663 -22.862 -16.652  0.00  0.00    +0.036 C 
ENDROOT
BRANCH   2   4
ATOM      3  F   UNL     1      37.470 -21.744 -15.581  0.00  0.00    -0.201 F 
ATOM      4  C   UNL     1      36.706 -22.861 -15.645  0.00  0.00    +0.180 C 
ATOM      5  C   UNL     1      36.945 -23.877 -14.798  0.00  0.00    +0.238 C 
BRANCH   5   6
ATOM      6  O   UNL     1      37.955 -23.815 -13.856  0.00  0.00    -0.499 OA
ATOM      7  H   UNL     1      38.593 -24.499 -13.808  0.00  0.00    +0.292 HD
ENDBRANCH   5   6
BRANCH   5   9
ATOM      8  O   UNL     1      36.262 -26.039 -15.635  0.00  0.00    -0.242 OA
ATOM      9  C   UNL     1      36.106 -25.102 -14.868  0.00  0.00    +0.375 C 
BRANCH   9  10
ATOM     10  O   UNL     1      35.119 -25.037 -13.944  0.00  0.00    -0.475 OA
ATOM     11  H   UNL     1      35.329 -25.064 -13.031  0.00  0.00    +0.296 HD
ENDBRANCH   9  10
ENDBRANCH   5   9
ENDBRANCH   2   4
BRANCH   1  13
ATOM     12  O   UNL     1      33.908 -23.240 -18.898  0.00  0.00    -0.287 OA
ATOM     13  C   UNL     1      34.665 -22.279 -18.812  0.00  0.00    +0.196 C 
BRANCH  13  15
ATOM     14  F   UNL     1      34.066 -17.943 -22.324  0.00  0.00    -0.204 F 
ATOM     15  C   UNL     1      34.507 -21.133 -19.740  0.00  0.00    +0.039 C 
ATOM     16  C   UNL     1      35.631 -20.542 -20.316  0.00  0.00    +0.005 C 
ATOM     17  C   UNL     1      33.233 -20.647 -20.036  0.00  0.00    +0.005 C 
ATOM     18  C   UNL     1      35.482 -19.464 -21.190  0.00  0.00    +0.030 C 
ATOM     19  C   UNL     1      33.084 -19.568 -20.910  0.00  0.00    +0.030 C 
ATOM     20  C   UNL     1      34.208 -18.977 -21.486  0.00  0.00    +0.140 C 
ENDBRANCH  13  15
ENDBRANCH   1  13
TORSDOF 6
ENDMDL
MODEL 5
REMARK VINA RESULT:      -8.5      3.136      7.125
REMARK  Name = 23636976
REMARK  6 active torsions:
REMARK  status: ('A' for Active; 'I' for Inactive)
REMARK    1  A    between atoms: C_1  and  C_13
REMARK    2  A    between atoms: C_2  and  C_4
REMARK    3  A    between atoms: C_5  and  O_6
REMARK    4  A    between atoms: C_5  and  C_9
REMARK    5  A    between atoms: C_9  and  O_10
REMARK    6  A    between atoms: C_13  and  C_15
REMARK                            x       y       z     vdW  Elec       q    Type
REMARK                         _______ _______ _______ _____ _____    ______ ____
ROOT
ATOM      1  C   UNL     1      35.706 -19.475 -20.918  0.00  0.00    +0.044 C 
ATOM      2  C   UNL     1      35.272 -20.650 -20.441  0.00  0.00    +0.036 C 
ENDROOT
BRANCH   2   4
ATOM      3  F   UNL     1      36.974 -20.791 -18.785  0.00  0.00    -0.201 F 
ATOM      4  C   UNL     1      35.770 -21.239 -19.213  0.00  0.00    +0.180 C 
ATOM      5  C   UNL     1      35.119 -22.174 -18.501  0.00  0.00    +0.238 C 
BRANCH   5   6
ATOM      6  O   UNL     1      35.646 -22.696 -17.334  0.00  0.00    -0.499 OA
ATOM      7  H   UNL     1      35.652 -22.180 -16.551  0.00  0.00    +0.292 HD
ENDBRANCH   5   6
BRANCH   5   9
ATOM      8  O   UNL     1      32.722 -22.114 -18.801  0.00  0.00    -0.242 OA
ATOM      9  C   UNL     1      33.797 -22.666 -18.970  0.00  0.00    +0.375 C 
BRANCH   9  10
ATOM     10  O   UNL     1      33.950 -23.840 -19.626  0.00  0.00    -0.475 OA
ATOM     11  H   UNL     1      34.354 -24.568 -19.197  0.00  0.00    +0.296 HD
ENDBRANCH   9  10
ENDBRANCH   5   9
ENDBRANCH   2   4
BRANCH   1  13
ATOM     12  O   UNL     1      34.927 -19.658 -23.165  0.00  0.00    -0.287 OA
ATOM     13  C   UNL     1      35.153 -18.944 -22.195  0.00  0.00    +0.196 C 
BRANCH  13  15
ATOM     14  F   UNL     1      34.211 -13.421 -22.526  0.00  0.00    -0.204 F 
ATOM     15  C   UNL     1      34.904 -17.484 -22.282  0.00  0.00    +0.039 C 
ATOM     16  C   UNL     1      34.742 -16.733 -21.118  0.00  0.00    +0.005 C 
ATOM     17  C   UNL     1      34.832 -16.863 -23.529  0.00  0.00    +0.005 C 
ATOM     18  C   UNL     1      34.508 -15.360 -21.200  0.00  0.00    +0.030 C 
ATOM     19  C   UNL     1      34.598 -15.489 -23.611  0.00  0.00    +0.030 C 
ATOM     20  C   UNL     1      34.436 -14.739 -22.447  0.00  0.00    +0.140 C 
ENDBRANCH  13  15
ENDBRANCH   1  13
TORSDOF 6
ENDMDL
MODEL 6
REMARK VINA RESULT:      -8.4      5.537      9.137
REMARK  Name = 23636976
REMARK  6 active torsions:
REMARK  status: ('A' for Active; 'I' for Inactive)
REMARK    1  A    between atoms: C_1  and  C_13
REMARK    2  A    between atoms: C_2  and  C_4
REMARK    3  A    between atoms: C_5  and  O_6
REMARK    4  A    between atoms: C_5  and  C_9
REMARK    5  A    between atoms: C_9  and  O_10
REMARK    6  A    between atoms: C_13  and  C_15
REMARK                            x       y       z     vdW  Elec       q    Type
REMARK                         _______ _______ _______ _____ _____    ______ ____
ROOT
ATOM      1  C   UNL     1      32.786 -23.155 -17.608  0.00  0.00    +0.044 C 
ATOM      2  C   UNL     1      32.347 -23.070 -16.344  0.00  0.00    +0.036 C 
ENDROOT
BRANCH   2   4
ATOM      3  F   UNL     1      30.030 -23.329 -16.816  0.00  0.00    -0.201 F 
ATOM      4  C   UNL     1      31.035 -23.525 -15.929  0.00  0.00    +0.180 C 
ATOM      5  C   UNL     1      30.773 -24.113 -14.750  0.00  0.00    +0.238 C 
BRANCH   5   6
ATOM      6  O   UNL     1      29.498 -24.529 -14.413  0.00  0.00    -0.499 OA
ATOM      7  H   UNL     1      29.356 -25.011 -13.622  0.00  0.00    +0.292 HD
ENDBRANCH   5   6
BRANCH   5   9
ATOM      8  O   UNL     1      32.300 -23.511 -12.977  0.00  0.00    -0.242 OA
ATOM      9  C   UNL     1      31.876 -24.329 -13.777  0.00  0.00    +0.375 C 
BRANCH   9  10
ATOM     10  O   UNL     1      32.359 -25.587 -13.901  0.00  0.00    -0.475 OA
ATOM     11  H   UNL     1      31.871 -26.233 -14.373  0.00  0.00    +0.296 HD
ENDBRANCH   9  10
ENDBRANCH   5   9
ENDBRANCH   2   4
BRANCH   1  13
ATOM     12  O   UNL     1      35.152 -23.000 -17.352  0.00  0.00    -0.287 OA
ATOM     13  C   UNL     1      34.144 -22.653 -17.956  0.00  0.00    +0.196 C 
BRANCH  13  15
ATOM     14  F   UNL     1      34.547 -18.935 -22.142  0.00  0.00    -0.204 F 
ATOM     15  C   UNL     1      34.251 -21.670 -19.062  0.00  0.00    +0.039 C 
ATOM     16  C   UNL     1      35.504 -21.318 -19.564  0.00  0.00    +0.005 C 
ATOM     17  C   UNL     1      33.098 -21.098 -19.600  0.00  0.00    +0.005 C 
ATOM     18  C   UNL     1      35.604 -20.393 -20.605  0.00  0.00    +0.030 C 
ATOM     19  C   UNL     1      33.198 -20.174 -20.641  0.00  0.00    +0.030 C 
ATOM     20  C   UNL     1      34.451 -19.822 -21.143  0.00  0.00    +0.140 C 
ENDBRANCH  13  15
ENDBRANCH   1  13
TORSDOF 6
ENDMDL
MODEL 7
REMARK VINA RESULT:      -8.4      2.097      2.799
REMARK  Name = 23636976
REMARK  6 active torsions:
REMARK  status: ('A' for Active; 'I' for Inactive)
REMARK    1  A    between atoms: C_1  and  C_13
REMARK    2  A    between atoms: C_2  and  C_4
REMARK    3  A    between atoms: C_5  and  O_6
REMARK    4  A    between atoms: C_5  and  C_9
REMARK    5  A    between atoms: C_9  and  O_10
REMARK    6  A    between atoms: C_13  and  C_15
REMARK                            x       y       z     vdW  Elec       q    Type
REMARK                         _______ _______ _______ _____ _____    ______ ____
ROOT
ATOM      1  C   UNL     1      33.835 -17.015 -21.529  0.00  0.00    +0.044 C 
ATOM      2  C   UNL     1      34.110 -15.737 -21.234  0.00  0.00    +0.036 C 
ENDROOT
BRANCH   2   4
ATOM      3  F   UNL     1      32.486 -14.615 -19.906  0.00  0.00    -0.201 F 
ATOM      4  C   UNL     1      33.090 -14.714 -21.114  0.00  0.00    +0.180 C 
ATOM      5  C   UNL     1      32.723 -13.887 -22.108  0.00  0.00    +0.238 C 
BRANCH   5   6
ATOM      6  O   UNL     1      31.742 -12.929 -21.931  0.00  0.00    -0.499 OA
ATOM      7  H   UNL     1      31.968 -12.020 -21.943  0.00  0.00    +0.292 HD
ENDBRANCH   5   6
BRANCH   5   9
ATOM      8  O   UNL     1      33.157 -14.841 -24.286  0.00  0.00    -0.242 OA
ATOM      9  C   UNL     1      33.385 -13.997 -23.435  0.00  0.00    +0.375 C 
BRANCH   9  10
ATOM     10  O   UNL     1      34.301 -13.009 -23.574  0.00  0.00    -0.475 OA
ATOM     11  H   UNL     1      34.033 -12.111 -23.532  0.00  0.00    +0.296 HD
ENDBRANCH   9  10
ENDBRANCH   5   9
ENDBRANCH   2   4
BRANCH   1  13
ATOM     12  O   UNL     1      35.934 -17.806 -22.340  0.00  0.00    -0.287 OA
ATOM     13  C   UNL     1      34.943 -18.004 -21.646  0.00  0.00    +0.196 C 
BRANCH  13  15
ATOM     14  F   UNL     1      34.417 -22.847 -18.860  0.00  0.00    -0.204 F 
ATOM     15  C   UNL     1      34.804 -19.284 -20.910  0.00  0.00    +0.039 C 
ATOM     16  C   UNL     1      33.536 -19.798 -20.637  0.00  0.00    +0.005 C 
ATOM     17  C   UNL     1      35.941 -19.973 -20.489  0.00  0.00    +0.005 C 
ATOM     18  C   UNL     1      33.406 -21.002 -19.945  0.00  0.00    +0.030 C 
ATOM     19  C   UNL     1      35.811 -21.178 -19.797  0.00  0.00    +0.030 C 
ATOM     20  C   UNL     1      34.543 -21.692 -19.524  0.00  0.00    +0.140 C 
ENDBRANCH  13  15
ENDBRANCH   1  13
TORSDOF 6
ENDMDL
MODEL 8
REMARK VINA RESULT:      -8.4      1.530      1.989
REMARK  Name = 23636976
REMARK  6 active torsions:
REMARK  status: ('A' for Active; 'I' for Inactive)
REMARK    1  A    between atoms: C_1  and  C_13
REMARK    2  A    between atoms: C_2  and  C_4
REMARK    3  A    between atoms: C_5  and  O_6
REMARK    4  A    between atoms: C_5  and  C_9
REMARK    5  A    between atoms: C_9  and  O_10
REMARK    6  A    between atoms: C_13  and  C_15
REMARK                            x       y       z     vdW  Elec       q    Type
REMARK                         _______ _______ _______ _____ _____    ______ ____
ROOT
ATOM      1  C   UNL     1      34.997 -17.180 -21.924  0.00  0.00    +0.044 C 
ATOM      2  C   UNL     1      35.182 -16.444 -23.029  0.00  0.00    +0.036 C 
ENDROOT
BRANCH   2   4
ATOM      3  F   UNL     1      34.550 -14.279 -22.274  0.00  0.00    -0.201 F 
ATOM      4  C   UNL     1      34.491 -15.193 -23.272  0.00  0.00    +0.180 C 
ATOM      5  C   UNL     1      33.819 -14.903 -24.398  0.00  0.00    +0.238 C 
BRANCH   5   6
ATOM      6  O   UNL     1      33.181 -13.688 -24.571  0.00  0.00    -0.499 OA
ATOM      7  H   UNL     1      32.842 -13.227 -23.828  0.00  0.00    +0.292 HD
ENDBRANCH   5   6
BRANCH   5   9
ATOM      8  O   UNL     1      33.903 -17.111 -25.375  0.00  0.00    -0.242 OA
ATOM      9  C   UNL     1      33.755 -15.906 -25.493  0.00  0.00    +0.375 C 
BRANCH   9  10
ATOM     10  O   UNL     1      33.505 -15.286 -26.671  0.00  0.00    -0.475 OA
ATOM     11  H   UNL     1      33.745 -14.387 -26.788  0.00  0.00    +0.296 HD
ENDBRANCH   9  10
ENDBRANCH   5   9
ENDBRANCH   2   4
BRANCH   1  13
ATOM     12  O   UNL     1      36.838 -18.660 -22.255  0.00  0.00    -0.287 OA
ATOM     13  C   UNL     1      35.736 -18.462 -21.755  0.00  0.00    +0.196 C 
BRANCH  13  15
ATOM     14  F   UNL     1      33.248 -22.528 -18.794  0.00  0.00    -0.204 F 
ATOM     15  C   UNL     1      35.079 -19.537 -20.973  0.00  0.00    +0.039 C 
ATOM     16  C   UNL     1      35.852 -20.446 -20.250  0.00  0.00    +0.005 C 
ATOM     17  C   UNL     1      33.688 -19.638 -20.959  0.00  0.00    +0.005 C 
ATOM     18  C   UNL     1      35.233 -21.457 -19.514  0.00  0.00    +0.030 C 
ATOM     19  C   UNL     1      33.069 -20.649 -20.223  0.00  0.00    +0.030 C 
ATOM     20  C   UNL     1      33.841 -21.558 -19.500  0.00  0.00    +0.140 C 
ENDBRANCH  13  15
ENDBRANCH   1  13
TORSDOF 6
ENDMDL
MODEL 9
REMARK VINA RESULT:      -8.4      5.381      9.205
REMARK  Name = 23636976
REMARK  6 active torsions:
REMARK  status: ('A' for Active; 'I' for Inactive)
REMARK    1  A    between atoms: C_1  and  C_13
REMARK    2  A    between atoms: C_2  and  C_4
REMARK    3  A    between atoms: C_5  and  O_6
REMARK    4  A    between atoms: C_5  and  C_9
REMARK    5  A    between atoms: C_9  and  O_10
REMARK    6  A    between atoms: C_13  and  C_15
REMARK                            x       y       z     vdW  Elec       q    Type
REMARK                         _______ _______ _______ _____ _____    ______ ____
ROOT
ATOM      1  C   UNL     1      34.616 -22.686 -17.252  0.00  0.00    +0.044 C 
ATOM      2  C   UNL     1      34.038 -23.420 -16.291  0.00  0.00    +0.036 C 
ENDROOT
BRANCH   2   4
ATOM      3  F   UNL     1      35.695 -22.904 -14.664  0.00  0.00    -0.201 F 
ATOM      4  C   UNL     1      34.443 -23.363 -14.901  0.00  0.00    +0.180 C 
ATOM      5  C   UNL     1      33.665 -23.729 -13.868  0.00  0.00    +0.238 C 
BRANCH   5   6
ATOM      6  O   UNL     1      34.108 -23.649 -12.561  0.00  0.00    -0.499 OA
ATOM      7  H   UNL     1      33.629 -24.075 -11.877  0.00  0.00    +0.292 HD
ENDBRANCH   5   6
BRANCH   5   9
ATOM      8  O   UNL     1      31.331 -23.562 -14.472  0.00  0.00    -0.242 OA
ATOM      9  C   UNL     1      32.291 -24.233 -14.127  0.00  0.00    +0.375 C 
BRANCH   9  10
ATOM     10  O   UNL     1      32.245 -25.571 -13.923  0.00  0.00    -0.475 OA
ATOM     11  H   UNL     1      32.920 -26.122 -14.268  0.00  0.00    +0.296 HD
ENDBRANCH   9  10
ENDBRANCH   5   9
ENDBRANCH   2   4
BRANCH   1  13
ATOM     12  O   UNL     1      33.784 -23.876 -19.144  0.00  0.00    -0.287 OA
ATOM     13  C   UNL     1      34.151 -22.811 -18.662  0.00  0.00    +0.196 C 
BRANCH  13  15
ATOM     14  F   UNL     1      34.235 -18.193 -21.849  0.00  0.00    -0.204 F 
ATOM     15  C   UNL     1      34.173 -21.591 -19.505  0.00  0.00    +0.039 C 
ATOM     16  C   UNL     1      32.979 -20.954 -19.842  0.00  0.00    +0.005 C 
ATOM     17  C   UNL     1      35.389 -21.080 -19.960  0.00  0.00    +0.005 C 
ATOM     18  C   UNL     1      33.000 -19.805 -20.634  0.00  0.00    +0.030 C 
ATOM     19  C   UNL     1      35.410 -19.931 -20.752  0.00  0.00    +0.030 C 
ATOM     20  C   UNL     1      34.216 -19.295 -21.089  0.00  0.00    +0.140 C 
ENDBRANCH  13  15
ENDBRANCH   1  13
TORSDOF 6
ENDMDL
