MODEL 1
REMARK VINA RESULT:     -10.6      0.000      0.000
REMARK  Name = 71481097
REMARK  6 active torsions:
REMARK  status: ('A' for Active; 'I' for Inactive)
REMARK    1  A    between atoms: N_1  and  C_20
REMARK    2  A    between atoms: C_4  and  C_6
REMARK    3  A    between atoms: C_7  and  C_15
REMARK    4  A    between atoms: C_8  and  C_19
REMARK    5  A    between atoms: C_21  and  C_24
REMARK    6  A    between atoms: N_23  and  N_26
REMARK                            x       y       z     vdW  Elec       q    Type
REMARK                         _______ _______ _______ _____ _____    ______ ____
ROOT
ATOM      1  N   UNL     1      34.640 -20.219 -21.209  0.00  0.00    -0.176 N 
ATOM      2  N   UNL     1      34.851 -20.957 -20.109  0.00  0.00    -0.122 NA
ATOM      3  N   UNL     1      32.682 -20.693 -20.125  0.00  0.00    -0.194 NA
ATOM      4  C   UNL     1      33.683 -21.235 -19.470  0.00  0.00    +0.050 C 
ATOM      5  C   UNL     1      33.312 -20.087 -21.174  0.00  0.00    +0.252 C 
ENDROOT
BRANCH   4   6
ATOM      6  C   UNL     1      33.567 -22.005 -18.264  0.00  0.00    +0.063 C 
ATOM      7  C   UNL     1      34.602 -23.156 -16.409  0.00  0.00    +0.072 C 
ATOM      8  C   UNL     1      32.195 -23.096 -16.602  0.00  0.00    +0.072 C 
ATOM      9  C   UNL     1      32.307 -22.349 -17.774  0.00  0.00    +0.014 C 
ATOM     10  C   UNL     1      34.714 -22.408 -17.580  0.00  0.00    +0.014 C 
ATOM     11  C   UNL     1      33.342 -23.500 -15.919  0.00  0.00    +0.008 C 
BRANCH   7  15
ATOM     12  F   UNL     1      35.929 -23.060 -14.420  0.00  0.00    -0.166 F 
ATOM     13  F   UNL     1      35.918 -24.938 -15.506  0.00  0.00    -0.166 F 
ATOM     14  F   UNL     1      36.977 -23.222 -16.319  0.00  0.00    -0.166 F 
ATOM     15  C   UNL     1      35.829 -23.585 -15.677  0.00  0.00    +0.419 C 
ENDBRANCH   7  15
BRANCH   8  19
ATOM     16  F   UNL     1      29.833 -22.956 -16.834  0.00  0.00    -0.166 F 
ATOM     17  F   UNL     1      30.629 -24.811 -16.027  0.00  0.00    -0.166 F 
ATOM     18  F   UNL     1      30.616 -23.019 -14.807  0.00  0.00    -0.166 F 
ATOM     19  C   UNL     1      30.848 -23.464 -16.077  0.00  0.00    +0.419 C 
ENDBRANCH   8  19
ENDBRANCH   4   6
BRANCH   1  20
ATOM     20  C   UNL     1      35.530 -19.723 -22.131  0.00  0.00    +0.092 C 
ATOM     21  C   UNL     1      35.805 -18.420 -22.298  0.00  0.00    +0.077 C 
BRANCH  21  24
ATOM     22  O   UNL     1      35.435 -17.198 -20.281  0.00  0.00    -0.269 OA
ATOM     23  N   UNL     1      34.131 -16.746 -22.149  0.00  0.00    -0.231 N 
ATOM     24  C   UNL     1      35.124 -17.401 -21.450  0.00  0.00    +0.263 C 
ATOM     25  H   UNL     1      33.941 -16.968 -23.089  0.00  0.00    +0.173 HD
BRANCH  23  26
ATOM     26  N   UNL     1      33.419 -15.778 -21.500  0.00  0.00    -0.246 N 
ATOM     27  N   UNL     1      32.305 -13.681 -21.616  0.00  0.00    -0.225 NA
ATOM     28  N   UNL     1      33.840 -13.060 -23.879  0.00  0.00    -0.238 NA
ATOM     29  C   UNL     1      33.219 -14.538 -22.117  0.00  0.00    +0.164 C 
ATOM     30  C   UNL     1      33.973 -14.232 -23.228  0.00  0.00    +0.134 C 
ATOM     31  C   UNL     1      32.174 -12.509 -22.268  0.00  0.00    +0.121 C 
ATOM     32  C   UNL     1      32.928 -12.204 -23.379  0.00  0.00    +0.120 C 
ATOM     33  H   UNL     1      33.048 -15.952 -20.604  0.00  0.00    +0.172 HD
ENDBRANCH  23  26
ENDBRANCH  21  24
ENDBRANCH   1  20
TORSDOF 6
ENDMDL
MODEL 2
REMARK VINA RESULT:     -10.6      0.104      3.119
REMARK  Name = 71481097
REMARK  6 active torsions:
REMARK  status: ('A' for Active; 'I' for Inactive)
REMARK    1  A    between atoms: N_1  and  C_20
REMARK    2  A    between atoms: C_4  and  C_6
REMARK    3  A    between atoms: C_7  and  C_15
REMARK    4  A    between atoms: C_8  and  C_19
REMARK    5  A    between atoms: C_21  and  C_24
REMARK    6  A    between atoms: N_23  and  N_26
REMARK                            x       y       z     vdW  Elec       q    Type
REMARK                         _______ _______ _______ _____ _____    ______ ____
ROOT
ATOM      1  N   UNL     1      34.645 -20.217 -21.108  0.00  0.00    -0.176 N 
ATOM      2  N   UNL     1      34.835 -20.987 -20.025  0.00  0.00    -0.122 NA
ATOM      3  N   UNL     1      32.677 -20.642 -20.021  0.00  0.00    -0.194 NA
ATOM      4  C   UNL     1      33.661 -21.235 -19.385  0.00  0.00    +0.050 C 
ATOM      5  C   UNL     1      33.323 -20.037 -21.061  0.00  0.00    +0.252 C 
ENDROOT
BRANCH   4   6
ATOM      6  C   UNL     1      33.524 -22.026 -18.195  0.00  0.00    +0.063 C 
ATOM      7  C   UNL     1      32.122 -23.139 -16.572  0.00  0.00    +0.072 C 
ATOM      8  C   UNL     1      34.527 -23.224 -16.352  0.00  0.00    +0.072 C 
ATOM      9  C   UNL     1      34.660 -22.454 -17.507  0.00  0.00    +0.014 C 
ATOM     10  C   UNL     1      32.255 -22.369 -17.727  0.00  0.00    +0.014 C 
ATOM     11  C   UNL     1      33.258 -23.566 -15.883  0.00  0.00    +0.008 C 
BRANCH   7  15
ATOM     12  F   UNL     1      29.750 -23.079 -16.879  0.00  0.00    -0.166 F 
ATOM     13  F   UNL     1      30.577 -24.854 -15.945  0.00  0.00    -0.166 F 
ATOM     14  F   UNL     1      30.501 -22.983 -14.840  0.00  0.00    -0.166 F 
ATOM     15  C   UNL     1      30.766 -23.507 -16.072  0.00  0.00    +0.419 C 
ENDBRANCH   7  15
BRANCH   8  19
ATOM     16  F   UNL     1      35.808 -23.179 -14.349  0.00  0.00    -0.166 F 
ATOM     17  F   UNL     1      35.815 -25.039 -15.476  0.00  0.00    -0.166 F 
ATOM     18  F   UNL     1      36.913 -23.322 -16.217  0.00  0.00    -0.166 F 
ATOM     19  C   UNL     1      35.741 -23.682 -15.616  0.00  0.00    +0.419 C 
ENDBRANCH   8  19
ENDBRANCH   4   6
BRANCH   1  20
ATOM     20  C   UNL     1      35.547 -19.734 -22.025  0.00  0.00    +0.092 C 
ATOM     21  C   UNL     1      35.821 -18.434 -22.211  0.00  0.00    +0.077 C 
BRANCH  21  24
ATOM     22  O   UNL     1      35.442 -17.151 -20.234  0.00  0.00    -0.269 OA
ATOM     23  N   UNL     1      34.109 -16.796 -22.102  0.00  0.00    -0.231 N 
ATOM     24  C   UNL     1      35.124 -17.403 -21.391  0.00  0.00    +0.263 C 
ATOM     25  H   UNL     1      33.915 -17.056 -23.031  0.00  0.00    +0.173 HD
BRANCH  23  26
ATOM     26  N   UNL     1      33.379 -15.824 -21.479  0.00  0.00    -0.246 N 
ATOM     27  N   UNL     1      32.279 -13.723 -21.637  0.00  0.00    -0.225 NA
ATOM     28  N   UNL     1      33.890 -13.114 -23.850  0.00  0.00    -0.238 NA
ATOM     29  C   UNL     1      33.204 -14.584 -22.105  0.00  0.00    +0.164 C 
ATOM     30  C   UNL     1      33.996 -14.284 -23.192  0.00  0.00    +0.134 C 
ATOM     31  C   UNL     1      32.174 -12.552 -22.295  0.00  0.00    +0.121 C 
ATOM     32  C   UNL     1      32.965 -12.253 -23.382  0.00  0.00    +0.120 C 
ATOM     33  H   UNL     1      32.979 -15.994 -20.594  0.00  0.00    +0.172 HD
ENDBRANCH  23  26
ENDBRANCH  21  24
ENDBRANCH   1  20
TORSDOF 6
ENDMDL
MODEL 3
REMARK VINA RESULT:     -10.3      1.798      3.908
REMARK  Name = 71481097
REMARK  6 active torsions:
REMARK  status: ('A' for Active; 'I' for Inactive)
REMARK    1  A    between atoms: N_1  and  C_20
REMARK    2  A    between atoms: C_4  and  C_6
REMARK    3  A    between atoms: C_7  and  C_15
REMARK    4  A    between atoms: C_8  and  C_19
REMARK    5  A    between atoms: C_21  and  C_24
REMARK    6  A    between atoms: N_23  and  N_26
REMARK                            x       y       z     vdW  Elec       q    Type
REMARK                         _______ _______ _______ _____ _____    ______ ____
ROOT
ATOM      1  N   UNL     1      35.180 -22.031 -19.444  0.00  0.00    -0.176 N 
ATOM      2  N   UNL     1      35.178 -22.420 -18.160  0.00  0.00    -0.122 NA
ATOM      3  N   UNL     1      33.069 -22.538 -18.724  0.00  0.00    -0.194 NA
ATOM      4  C   UNL     1      33.919 -22.720 -17.739  0.00  0.00    +0.050 C 
ATOM      5  C   UNL     1      33.882 -22.120 -19.738  0.00  0.00    +0.252 C 
ENDROOT
BRANCH   4   6
ATOM      6  C   UNL     1      33.578 -23.167 -16.418  0.00  0.00    +0.063 C 
ATOM      7  C   UNL     1      31.908 -23.726 -14.764  0.00  0.00    +0.072 C 
ATOM      8  C   UNL     1      34.255 -23.916 -14.223  0.00  0.00    +0.072 C 
ATOM      9  C   UNL     1      34.586 -23.480 -15.505  0.00  0.00    +0.014 C 
ATOM     10  C   UNL     1      32.239 -23.291 -16.047  0.00  0.00    +0.014 C 
ATOM     11  C   UNL     1      32.916 -24.039 -13.852  0.00  0.00    +0.008 C 
BRANCH   7  15
ATOM     12  F   UNL     1      29.733 -22.741 -14.612  0.00  0.00    -0.166 F 
ATOM     13  F   UNL     1      29.822 -24.870 -15.014  0.00  0.00    -0.166 F 
ATOM     14  F   UNL     1      30.323 -24.118 -13.036  0.00  0.00    -0.166 F 
ATOM     15  C   UNL     1      30.476 -23.860 -14.368  0.00  0.00    +0.419 C 
ENDBRANCH   7  15
BRANCH   8  19
ATOM     16  F   UNL     1      34.840 -24.705 -12.058  0.00  0.00    -0.166 F 
ATOM     17  F   UNL     1      36.184 -25.225 -13.686  0.00  0.00    -0.166 F 
ATOM     18  F   UNL     1      36.134 -23.192 -12.932  0.00  0.00    -0.166 F 
ATOM     19  C   UNL     1      35.332 -24.251 -13.247  0.00  0.00    +0.419 C 
ENDBRANCH   8  19
ENDBRANCH   4   6
BRANCH   1  20
ATOM     20  C   UNL     1      36.221 -21.642 -20.252  0.00  0.00    +0.092 C 
ATOM     21  C   UNL     1      36.300 -20.454 -20.872  0.00  0.00    +0.077 C 
BRANCH  21  24
ATOM     22  O   UNL     1      34.030 -19.771 -20.593  0.00  0.00    -0.269 OA
ATOM     23  N   UNL     1      35.705 -18.165 -20.688  0.00  0.00    -0.231 N 
ATOM     24  C   UNL     1      35.210 -19.453 -20.703  0.00  0.00    +0.263 C 
ATOM     25  H   UNL     1      36.669 -17.993 -20.784  0.00  0.00    +0.173 HD
BRANCH  23  26
ATOM     26  N   UNL     1      34.819 -17.137 -20.538  0.00  0.00    -0.246 N 
ATOM     27  N   UNL     1      33.382 -15.553 -21.575  0.00  0.00    -0.225 NA
ATOM     28  N   UNL     1      34.879 -15.827 -23.930  0.00  0.00    -0.238 NA
ATOM     29  C   UNL     1      34.442 -16.383 -21.655  0.00  0.00    +0.164 C 
ATOM     30  C   UNL     1      35.177 -16.517 -22.813  0.00  0.00    +0.134 C 
ATOM     31  C   UNL     1      33.085 -14.864 -22.694  0.00  0.00    +0.121 C 
ATOM     32  C   UNL     1      33.820 -14.998 -23.851  0.00  0.00    +0.120 C 
ATOM     33  H   UNL     1      34.449 -16.927 -19.649  0.00  0.00    +0.172 HD
ENDBRANCH  23  26
ENDBRANCH  21  24
ENDBRANCH   1  20
TORSDOF 6
ENDMDL
MODEL 4
REMARK VINA RESULT:     -10.3      1.796      2.539
REMARK  Name = 71481097
REMARK  6 active torsions:
REMARK  status: ('A' for Active; 'I' for Inactive)
REMARK    1  A    between atoms: N_1  and  C_20
REMARK    2  A    between atoms: C_4  and  C_6
REMARK    3  A    between atoms: C_7  and  C_15
REMARK    4  A    between atoms: C_8  and  C_19
REMARK    5  A    between atoms: C_21  and  C_24
REMARK    6  A    between atoms: N_23  and  N_26
REMARK                            x       y       z     vdW  Elec       q    Type
REMARK                         _______ _______ _______ _____ _____    ______ ____
ROOT
ATOM      1  N   UNL     1      35.178 -22.027 -19.448  0.00  0.00    -0.176 N 
ATOM      2  N   UNL     1      35.175 -22.424 -18.166  0.00  0.00    -0.122 NA
ATOM      3  N   UNL     1      33.064 -22.515 -18.723  0.00  0.00    -0.194 NA
ATOM      4  C   UNL     1      33.915 -22.712 -17.743  0.00  0.00    +0.050 C 
ATOM      5  C   UNL     1      33.877 -22.100 -19.738  0.00  0.00    +0.252 C 
ENDROOT
BRANCH   4   6
ATOM      6  C   UNL     1      33.574 -23.164 -16.423  0.00  0.00    +0.063 C 
ATOM      7  C   UNL     1      34.249 -23.919 -14.230  0.00  0.00    +0.072 C 
ATOM      8  C   UNL     1      31.902 -23.723 -14.771  0.00  0.00    +0.072 C 
ATOM      9  C   UNL     1      32.234 -23.286 -16.052  0.00  0.00    +0.014 C 
ATOM     10  C   UNL     1      34.581 -23.481 -15.512  0.00  0.00    +0.014 C 
ATOM     11  C   UNL     1      32.910 -24.041 -13.859  0.00  0.00    +0.008 C 
BRANCH   7  15
ATOM     12  F   UNL     1      34.855 -24.690 -12.048  0.00  0.00    -0.166 F 
ATOM     13  F   UNL     1      36.165 -25.244 -13.686  0.00  0.00    -0.166 F 
ATOM     14  F   UNL     1      36.130 -23.190 -12.972  0.00  0.00    -0.166 F 
ATOM     15  C   UNL     1      35.326 -24.256 -13.254  0.00  0.00    +0.419 C 
ENDBRANCH   7  15
BRANCH   8  19
ATOM     16  F   UNL     1      30.315 -24.053 -13.032  0.00  0.00    -0.166 F 
ATOM     17  F   UNL     1      29.719 -22.750 -14.667  0.00  0.00    -0.166 F 
ATOM     18  F   UNL     1      29.827 -24.894 -14.977  0.00  0.00    -0.166 F 
ATOM     19  C   UNL     1      30.471 -23.852 -14.373  0.00  0.00    +0.419 C 
ENDBRANCH   8  19
ENDBRANCH   4   6
BRANCH   1  20
ATOM     20  C   UNL     1      36.220 -21.645 -20.258  0.00  0.00    +0.092 C 
ATOM     21  C   UNL     1      36.298 -20.465 -20.892  0.00  0.00    +0.077 C 
BRANCH  21  24
ATOM     22  O   UNL     1      34.020 -19.783 -20.677  0.00  0.00    -0.269 OA
ATOM     23  N   UNL     1      35.700 -18.180 -20.679  0.00  0.00    -0.231 N 
ATOM     24  C   UNL     1      35.203 -19.466 -20.739  0.00  0.00    +0.263 C 
ATOM     25  H   UNL     1      36.666 -18.007 -20.737  0.00  0.00    +0.173 HD
BRANCH  23  26
ATOM     26  N   UNL     1      34.810 -17.153 -20.537  0.00  0.00    -0.246 N 
ATOM     27  N   UNL     1      33.382 -15.570 -21.588  0.00  0.00    -0.225 NA
ATOM     28  N   UNL     1      34.906 -15.838 -23.927  0.00  0.00    -0.238 NA
ATOM     29  C   UNL     1      34.444 -16.398 -21.657  0.00  0.00    +0.164 C 
ATOM     30  C   UNL     1      35.193 -16.529 -22.807  0.00  0.00    +0.134 C 
ATOM     31  C   UNL     1      33.096 -14.879 -22.709  0.00  0.00    +0.121 C 
ATOM     32  C   UNL     1      33.844 -15.011 -23.857  0.00  0.00    +0.120 C 
ATOM     33  H   UNL     1      34.430 -16.945 -19.652  0.00  0.00    +0.172 HD
ENDBRANCH  23  26
ENDBRANCH  21  24
ENDBRANCH   1  20
TORSDOF 6
ENDMDL
MODEL 5
REMARK VINA RESULT:     -10.0      7.110     11.656
REMARK  Name = 71481097
REMARK  6 active torsions:
REMARK  status: ('A' for Active; 'I' for Inactive)
REMARK    1  A    between atoms: N_1  and  C_20
REMARK    2  A    between atoms: C_4  and  C_6
REMARK    3  A    between atoms: C_7  and  C_15
REMARK    4  A    between atoms: C_8  and  C_19
REMARK    5  A    between atoms: C_21  and  C_24
REMARK    6  A    between atoms: N_23  and  N_26
REMARK                            x       y       z     vdW  Elec       q    Type
REMARK                         _______ _______ _______ _____ _____    ______ ____
ROOT
ATOM      1  N   UNL     1      33.253 -13.477 -25.574  0.00  0.00    -0.176 N 
ATOM      2  N   UNL     1      32.668 -12.865 -24.533  0.00  0.00    -0.122 NA
ATOM      3  N   UNL     1      34.188 -11.429 -25.170  0.00  0.00    -0.194 NA
ATOM      4  C   UNL     1      33.230 -11.647 -24.299  0.00  0.00    +0.050 C 
ATOM      5  C   UNL     1      34.165 -12.567 -25.924  0.00  0.00    +0.252 C 
ENDROOT
BRANCH   4   6
ATOM      6  C   UNL     1      32.830 -10.744 -23.258  0.00  0.00    +0.063 C 
ATOM      7  C   UNL     1      31.956 -10.364 -21.038  0.00  0.00    +0.072 C 
ATOM      8  C   UNL     1      32.541  -8.488 -22.443  0.00  0.00    +0.072 C 
ATOM      9  C   UNL     1      32.928  -9.366 -23.455  0.00  0.00    +0.014 C 
ATOM     10  C   UNL     1      32.344 -11.242 -22.049  0.00  0.00    +0.014 C 
ATOM     11  C   UNL     1      32.054  -8.987 -21.234  0.00  0.00    +0.008 C 
BRANCH   7  15
ATOM     12  F   UNL     1      30.089 -10.752 -19.593  0.00  0.00    -0.166 F 
ATOM     13  F   UNL     1      31.675 -12.231 -19.569  0.00  0.00    -0.166 F 
ATOM     14  F   UNL     1      31.997 -10.281 -18.662  0.00  0.00    -0.166 F 
ATOM     15  C   UNL     1      31.439 -10.897 -19.744  0.00  0.00    +0.419 C 
ENDBRANCH   7  15
BRANCH   8  19
ATOM     16  F   UNL     1      32.666  -6.318 -21.478  0.00  0.00    -0.166 F 
ATOM     17  F   UNL     1      33.776  -6.636 -23.321  0.00  0.00    -0.166 F 
ATOM     18  F   UNL     1      31.613  -6.489 -23.372  0.00  0.00    -0.166 F 
ATOM     19  C   UNL     1      32.646  -7.015 -22.651  0.00  0.00    +0.419 C 
ENDBRANCH   8  19
ENDBRANCH   4   6
BRANCH   1  20
ATOM     20  C   UNL     1      33.000 -14.703 -26.140  0.00  0.00    +0.092 C 
ATOM     21  C   UNL     1      33.466 -15.869 -25.668  0.00  0.00    +0.077 C 
BRANCH  21  24
ATOM     22  O   UNL     1      34.331 -14.974 -23.631  0.00  0.00    -0.269 OA
ATOM     23  N   UNL     1      35.068 -17.047 -24.374  0.00  0.00    -0.231 N 
ATOM     24  C   UNL     1      34.320 -15.889 -24.447  0.00  0.00    +0.263 C 
ATOM     25  H   UNL     1      35.003 -17.737 -25.073  0.00  0.00    +0.173 HD
BRANCH  23  26
ATOM     26  N   UNL     1      35.901 -17.209 -23.304  0.00  0.00    -0.246 N 
ATOM     27  N   UNL     1      36.575 -18.557 -21.466  0.00  0.00    -0.225 NA
ATOM     28  N   UNL     1      34.060 -19.794 -21.528  0.00  0.00    -0.238 NA
ATOM     29  C   UNL     1      35.632 -18.213 -22.366  0.00  0.00    +0.164 C 
ATOM     30  C   UNL     1      34.396 -18.820 -22.396  0.00  0.00    +0.134 C 
ATOM     31  C   UNL     1      36.238 -19.531 -20.599  0.00  0.00    +0.121 C 
ATOM     32  C   UNL     1      35.002 -20.139 -20.629  0.00  0.00    +0.120 C 
ATOM     33  H   UNL     1      36.685 -16.623 -23.193  0.00  0.00    +0.172 HD
ENDBRANCH  23  26
ENDBRANCH  21  24
ENDBRANCH   1  20
TORSDOF 6
ENDMDL
MODEL 6
REMARK VINA RESULT:     -10.0      7.125     11.600
REMARK  Name = 71481097
REMARK  6 active torsions:
REMARK  status: ('A' for Active; 'I' for Inactive)
REMARK    1  A    between atoms: N_1  and  C_20
REMARK    2  A    between atoms: C_4  and  C_6
REMARK    3  A    between atoms: C_7  and  C_15
REMARK    4  A    between atoms: C_8  and  C_19
REMARK    5  A    between atoms: C_21  and  C_24
REMARK    6  A    between atoms: N_23  and  N_26
REMARK                            x       y       z     vdW  Elec       q    Type
REMARK                         _______ _______ _______ _____ _____    ______ ____
ROOT
ATOM      1  N   UNL     1      33.268 -13.441 -25.599  0.00  0.00    -0.176 N 
ATOM      2  N   UNL     1      32.680 -12.830 -24.560  0.00  0.00    -0.122 NA
ATOM      3  N   UNL     1      34.201 -11.393 -25.190  0.00  0.00    -0.194 NA
ATOM      4  C   UNL     1      33.240 -11.613 -24.323  0.00  0.00    +0.050 C 
ATOM      5  C   UNL     1      34.180 -12.531 -25.945  0.00  0.00    +0.252 C 
ENDROOT
BRANCH   4   6
ATOM      6  C   UNL     1      32.837 -10.710 -23.282  0.00  0.00    +0.063 C 
ATOM      7  C   UNL     1      32.534  -8.456 -22.469  0.00  0.00    +0.072 C 
ATOM      8  C   UNL     1      31.961 -10.335 -21.061  0.00  0.00    +0.072 C 
ATOM      9  C   UNL     1      32.354 -11.211 -22.072  0.00  0.00    +0.014 C 
ATOM     10  C   UNL     1      32.926  -9.333 -23.480  0.00  0.00    +0.014 C 
ATOM     11  C   UNL     1      32.052  -8.956 -21.259  0.00  0.00    +0.008 C 
BRANCH   7  15
ATOM     12  F   UNL     1      31.596  -6.468 -23.414  0.00  0.00    -0.166 F 
ATOM     13  F   UNL     1      32.633  -6.262 -21.519  0.00  0.00    -0.166 F 
ATOM     14  F   UNL     1      33.765  -6.619 -23.342  0.00  0.00    -0.166 F 
ATOM     15  C   UNL     1      32.627  -6.982 -22.680  0.00  0.00    +0.419 C 
ENDBRANCH   7  15
BRANCH   8  19
ATOM     16  F   UNL     1      30.093 -10.726 -19.645  0.00  0.00    -0.166 F 
ATOM     17  F   UNL     1      31.690 -12.201 -19.590  0.00  0.00    -0.166 F 
ATOM     18  F   UNL     1      31.980 -10.258 -18.671  0.00  0.00    -0.166 F 
ATOM     19  C   UNL     1      31.444 -10.869 -19.769  0.00  0.00    +0.419 C 
ENDBRANCH   8  19
ENDBRANCH   4   6
BRANCH   1  20
ATOM     20  C   UNL     1      33.017 -14.667 -26.167  0.00  0.00    +0.092 C 
ATOM     21  C   UNL     1      33.441 -15.838 -25.667  0.00  0.00    +0.077 C 
BRANCH  21  24
ATOM     22  O   UNL     1      34.132 -15.011 -23.537  0.00  0.00    -0.269 OA
ATOM     23  N   UNL     1      35.093 -16.950 -24.379  0.00  0.00    -0.231 N 
ATOM     24  C   UNL     1      34.242 -15.864 -24.411  0.00  0.00    +0.263 C 
ATOM     25  H   UNL     1      35.123 -17.592 -25.123  0.00  0.00    +0.173 HD
BRANCH  23  26
ATOM     26  N   UNL     1      35.892 -17.108 -23.283  0.00  0.00    -0.246 N 
ATOM     27  N   UNL     1      36.555 -18.480 -21.459  0.00  0.00    -0.225 NA
ATOM     28  N   UNL     1      34.098 -19.816 -21.648  0.00  0.00    -0.238 NA
ATOM     29  C   UNL     1      35.632 -18.149 -22.383  0.00  0.00    +0.164 C 
ATOM     30  C   UNL     1      34.424 -18.805 -22.476  0.00  0.00    +0.134 C 
ATOM     31  C   UNL     1      36.228 -19.492 -20.631  0.00  0.00    +0.121 C 
ATOM     32  C   UNL     1      35.021 -20.148 -20.724  0.00  0.00    +0.120 C 
ATOM     33  H   UNL     1      36.647 -16.494 -23.126  0.00  0.00    +0.172 HD
ENDBRANCH  23  26
ENDBRANCH  21  24
ENDBRANCH   1  20
TORSDOF 6
ENDMDL
MODEL 7
REMARK VINA RESULT:     -10.0      5.459      9.536
REMARK  Name = 71481097
REMARK  6 active torsions:
REMARK  status: ('A' for Active; 'I' for Inactive)
REMARK    1  A    between atoms: N_1  and  C_20
REMARK    2  A    between atoms: C_4  and  C_6
REMARK    3  A    between atoms: C_7  and  C_15
REMARK    4  A    between atoms: C_8  and  C_19
REMARK    5  A    between atoms: C_21  and  C_24
REMARK    6  A    between atoms: N_23  and  N_26
REMARK                            x       y       z     vdW  Elec       q    Type
REMARK                         _______ _______ _______ _____ _____    ______ ____
ROOT
ATOM      1  N   UNL     1      31.026 -24.094 -15.807  0.00  0.00    -0.176 N 
ATOM      2  N   UNL     1      32.173 -23.741 -16.406  0.00  0.00    -0.122 NA
ATOM      3  N   UNL     1      30.718 -22.343 -17.246  0.00  0.00    -0.194 NA
ATOM      4  C   UNL     1      31.982 -22.699 -17.260  0.00  0.00    +0.050 C 
ATOM      5  C   UNL     1      30.177 -23.218 -16.349  0.00  0.00    +0.252 C 
ENDROOT
BRANCH   4   6
ATOM      6  C   UNL     1      33.011 -22.086 -18.052  0.00  0.00    +0.063 C 
ATOM      7  C   UNL     1      33.668 -20.725 -19.937  0.00  0.00    +0.072 C 
ATOM      8  C   UNL     1      35.351 -21.657 -18.474  0.00  0.00    +0.072 C 
ATOM      9  C   UNL     1      34.352 -22.254 -17.705  0.00  0.00    +0.014 C 
ATOM     10  C   UNL     1      32.670 -21.321 -19.167  0.00  0.00    +0.014 C 
ATOM     11  C   UNL     1      35.009 -20.893 -19.590  0.00  0.00    +0.008 C 
BRANCH   7  15
ATOM     12  F   UNL     1      32.072 -20.199 -21.639  0.00  0.00    -0.166 F 
ATOM     13  F   UNL     1      33.277 -18.562 -20.881  0.00  0.00    -0.166 F 
ATOM     14  F   UNL     1      34.178 -20.069 -22.164  0.00  0.00    -0.166 F 
ATOM     15  C   UNL     1      33.304 -19.905 -21.129  0.00  0.00    +0.419 C 
ENDBRANCH   7  15
BRANCH   8  19
ATOM     16  F   UNL     1      37.562 -22.189 -19.168  0.00  0.00    -0.166 F 
ATOM     17  F   UNL     1      37.361 -20.708 -17.589  0.00  0.00    -0.166 F 
ATOM     18  F   UNL     1      36.990 -22.802 -17.161  0.00  0.00    -0.166 F 
ATOM     19  C   UNL     1      36.784 -21.835 -18.103  0.00  0.00    +0.419 C 
ENDBRANCH   8  19
ENDBRANCH   4   6
BRANCH   1  20
ATOM     20  C   UNL     1      30.771 -25.083 -14.887  0.00  0.00    +0.092 C 
ATOM     21  C   UNL     1      31.486 -25.285 -13.770  0.00  0.00    +0.077 C 
BRANCH  21  24
ATOM     22  O   UNL     1      32.526 -23.330 -12.879  0.00  0.00    -0.269 OA
ATOM     23  N   UNL     1      33.831 -24.954 -13.906  0.00  0.00    -0.231 N 
ATOM     24  C   UNL     1      32.646 -24.404 -13.460  0.00  0.00    +0.263 C 
ATOM     25  H   UNL     1      33.844 -25.823 -14.366  0.00  0.00    +0.173 HD
BRANCH  23  26
ATOM     26  N   UNL     1      34.985 -24.257 -13.690  0.00  0.00    -0.246 N 
ATOM     27  N   UNL     1      37.294 -23.989 -14.185  0.00  0.00    -0.225 NA
ATOM     28  N   UNL     1      37.367 -26.667 -15.013  0.00  0.00    -0.238 NA
ATOM     29  C   UNL     1      36.201 -24.776 -14.151  0.00  0.00    +0.164 C 
ATOM     30  C   UNL     1      36.237 -26.092 -14.557  0.00  0.00    +0.134 C 
ATOM     31  C   UNL     1      38.424 -24.564 -14.641  0.00  0.00    +0.121 C 
ATOM     32  C   UNL     1      38.460 -25.880 -15.048  0.00  0.00    +0.120 C 
ATOM     33  H   UNL     1      34.963 -23.395 -13.213  0.00  0.00    +0.172 HD
ENDBRANCH  23  26
ENDBRANCH  21  24
ENDBRANCH   1  20
TORSDOF 6
ENDMDL
MODEL 8
REMARK VINA RESULT:      -9.9      5.458      9.173
REMARK  Name = 71481097
REMARK  6 active torsions:
REMARK  status: ('A' for Active; 'I' for Inactive)
REMARK    1  A    between atoms: N_1  and  C_20
REMARK    2  A    between atoms: C_4  and  C_6
REMARK    3  A    between atoms: C_7  and  C_15
REMARK    4  A    between atoms: C_8  and  C_19
REMARK    5  A    between atoms: C_21  and  C_24
REMARK    6  A    between atoms: N_23  and  N_26
REMARK                            x       y       z     vdW  Elec       q    Type
REMARK                         _______ _______ _______ _____ _____    ______ ____
ROOT
ATOM      1  N   UNL     1      31.044 -24.098 -15.809  0.00  0.00    -0.176 N 
ATOM      2  N   UNL     1      32.188 -23.735 -16.409  0.00  0.00    -0.122 NA
ATOM      3  N   UNL     1      30.718 -22.356 -17.255  0.00  0.00    -0.194 NA
ATOM      4  C   UNL     1      31.986 -22.699 -17.267  0.00  0.00    +0.050 C 
ATOM      5  C   UNL     1      30.186 -23.233 -16.355  0.00  0.00    +0.252 C 
ENDROOT
BRANCH   4   6
ATOM      6  C   UNL     1      33.008 -22.078 -18.061  0.00  0.00    +0.063 C 
ATOM      7  C   UNL     1      35.344 -21.636 -18.493  0.00  0.00    +0.072 C 
ATOM      8  C   UNL     1      33.651 -20.711 -19.947  0.00  0.00    +0.072 C 
ATOM      9  C   UNL     1      32.658 -21.313 -19.175  0.00  0.00    +0.014 C 
ATOM     10  C   UNL     1      34.351 -22.239 -17.721  0.00  0.00    +0.014 C 
ATOM     11  C   UNL     1      34.994 -20.872 -19.606  0.00  0.00    +0.008 C 
BRANCH   7  15
ATOM     12  F   UNL     1      37.573 -22.160 -19.186  0.00  0.00    -0.166 F 
ATOM     13  F   UNL     1      37.353 -20.682 -17.613  0.00  0.00    -0.166 F 
ATOM     14  F   UNL     1      36.970 -22.781 -17.190  0.00  0.00    -0.166 F 
ATOM     15  C   UNL     1      36.780 -21.809 -18.130  0.00  0.00    +0.419 C 
ENDBRANCH   7  15
BRANCH   8  19
ATOM     16  F   UNL     1      32.049 -20.222 -21.635  0.00  0.00    -0.166 F 
ATOM     17  F   UNL     1      33.226 -18.553 -20.889  0.00  0.00    -0.166 F 
ATOM     18  F   UNL     1      34.143 -20.029 -22.186  0.00  0.00    -0.166 F 
ATOM     19  C   UNL     1      33.277 -19.895 -21.139  0.00  0.00    +0.419 C 
ENDBRANCH   8  19
ENDBRANCH   4   6
BRANCH   1  20
ATOM     20  C   UNL     1      30.799 -25.086 -14.885  0.00  0.00    +0.092 C 
ATOM     21  C   UNL     1      31.518 -25.278 -13.769  0.00  0.00    +0.077 C 
BRANCH  21  24
ATOM     22  O   UNL     1      32.545 -23.316 -12.878  0.00  0.00    -0.269 OA
ATOM     23  N   UNL     1      33.858 -24.921 -13.922  0.00  0.00    -0.231 N 
ATOM     24  C   UNL     1      32.672 -24.386 -13.464  0.00  0.00    +0.263 C 
ATOM     25  H   UNL     1      33.877 -25.788 -14.386  0.00  0.00    +0.173 HD
BRANCH  23  26
ATOM     26  N   UNL     1      35.007 -24.213 -13.712  0.00  0.00    -0.246 N 
ATOM     27  N   UNL     1      37.316 -23.935 -14.203  0.00  0.00    -0.225 NA
ATOM     28  N   UNL     1      37.410 -26.624 -14.993  0.00  0.00    -0.238 NA
ATOM     29  C   UNL     1      36.228 -24.730 -14.161  0.00  0.00    +0.164 C 
ATOM     30  C   UNL     1      36.275 -26.051 -14.549  0.00  0.00    +0.134 C 
ATOM     31  C   UNL     1      38.451 -24.509 -14.647  0.00  0.00    +0.121 C 
ATOM     32  C   UNL     1      38.498 -25.829 -15.036  0.00  0.00    +0.120 C 
ATOM     33  H   UNL     1      34.977 -23.345 -13.247  0.00  0.00    +0.172 HD
ENDBRANCH  23  26
ENDBRANCH  21  24
ENDBRANCH   1  20
TORSDOF 6
ENDMDL
MODEL 9
REMARK VINA RESULT:      -9.8      6.255     10.581
REMARK  Name = 71481097
REMARK  6 active torsions:
REMARK  status: ('A' for Active; 'I' for Inactive)
REMARK    1  A    between atoms: N_1  and  C_20
REMARK    2  A    between atoms: C_4  and  C_6
REMARK    3  A    between atoms: C_7  and  C_15
REMARK    4  A    between atoms: C_8  and  C_19
REMARK    5  A    between atoms: C_21  and  C_24
REMARK    6  A    between atoms: N_23  and  N_26
REMARK                            x       y       z     vdW  Elec       q    Type
REMARK                         _______ _______ _______ _____ _____    ______ ____
ROOT
ATOM      1  N   UNL     1      35.018 -17.085 -21.686  0.00  0.00    -0.176 N 
ATOM      2  N   UNL     1      34.876 -15.851 -22.192  0.00  0.00    -0.122 NA
ATOM      3  N   UNL     1      33.099 -16.088 -20.941  0.00  0.00    -0.194 NA
ATOM      4  C   UNL     1      33.732 -15.265 -21.745  0.00  0.00    +0.050 C 
ATOM      5  C   UNL     1      33.918 -17.180 -20.936  0.00  0.00    +0.252 C 
ENDROOT
BRANCH   4   6
ATOM      6  C   UNL     1      33.291 -13.946 -22.100  0.00  0.00    +0.063 C 
ATOM      7  C   UNL     1      33.287 -12.085 -23.641  0.00  0.00    +0.072 C 
ATOM      8  C   UNL     1      32.007 -11.962 -21.595  0.00  0.00    +0.072 C 
ATOM      9  C   UNL     1      32.437 -13.243 -21.250  0.00  0.00    +0.014 C 
ATOM     10  C   UNL     1      33.716 -13.366 -23.296  0.00  0.00    +0.014 C 
ATOM     11  C   UNL     1      32.433 -11.382 -22.791  0.00  0.00    +0.008 C 
BRANCH   7  15
ATOM     12  F   UNL     1      33.097 -10.298 -25.221  0.00  0.00    -0.166 F 
ATOM     13  F   UNL     1      35.070 -11.153 -24.936  0.00  0.00    -0.166 F 
ATOM     14  F   UNL     1      33.542 -12.280 -25.996  0.00  0.00    -0.166 F 
ATOM     15  C   UNL     1      33.740 -11.465 -24.920  0.00  0.00    +0.419 C 
ENDBRANCH   7  15
BRANCH   8  19
ATOM     16  F   UNL     1      31.268 -11.540 -19.375  0.00  0.00    -0.166 F 
ATOM     17  F   UNL     1      31.251  -9.856 -20.750  0.00  0.00    -0.166 F 
ATOM     18  F   UNL     1      29.769 -11.426 -20.946  0.00  0.00    -0.166 F 
ATOM     19  C   UNL     1      31.092 -11.211 -20.688  0.00  0.00    +0.419 C 
ENDBRANCH   8  19
ENDBRANCH   4   6
BRANCH   1  20
ATOM     20  C   UNL     1      36.013 -18.014 -21.875  0.00  0.00    +0.092 C 
ATOM     21  C   UNL     1      35.844 -19.341 -21.775  0.00  0.00    +0.077 C 
BRANCH  21  24
ATOM     22  O   UNL     1      33.513 -19.708 -22.137  0.00  0.00    -0.269 OA
ATOM     23  N   UNL     1      34.540 -20.628 -20.268  0.00  0.00    -0.231 N 
ATOM     24  C   UNL     1      34.503 -19.897 -21.438  0.00  0.00    +0.263 C 
ATOM     25  H   UNL     1      35.377 -20.733 -19.762  0.00  0.00    +0.173 HD
BRANCH  23  26
ATOM     26  N   UNL     1      33.380 -21.203 -19.832  0.00  0.00    -0.246 N 
ATOM     27  N   UNL     1      32.235 -22.353 -18.096  0.00  0.00    -0.225 NA
ATOM     28  N   UNL     1      34.718 -23.190 -17.095  0.00  0.00    -0.238 NA
ATOM     29  C   UNL     1      33.397 -22.005 -18.685  0.00  0.00    +0.164 C 
ATOM     30  C   UNL     1      34.616 -22.417 -18.193  0.00  0.00    +0.134 C 
ATOM     31  C   UNL     1      32.338 -23.127 -16.997  0.00  0.00    +0.121 C 
ATOM     32  C   UNL     1      33.557 -23.537 -16.506  0.00  0.00    +0.120 C 
ATOM     33  H   UNL     1      32.538 -21.054 -20.321  0.00  0.00    +0.172 HD
ENDBRANCH  23  26
ENDBRANCH  21  24
ENDBRANCH   1  20
TORSDOF 6
ENDMDL
