MODEL 1
REMARK VINA RESULT:      -9.0      0.000      0.000
REMARK  Name = 123619
REMARK  3 active torsions:
REMARK  status: ('A' for Active; 'I' for Inactive)
REMARK    1  A    between atoms: C_3  and  C_15
REMARK    2  A    between atoms: C_4  and  C_9
REMARK    3  A    between atoms: C_16  and  S_21
REMARK                            x       y       z     vdW  Elec       q    Type
REMARK                         _______ _______ _______ _____ _____    ______ ____
ROOT
ATOM      1 CL   UNL     1      31.092 -10.705 -18.256  0.00  0.00    -0.081 Cl
ATOM      2  N   UNL     1      31.811 -11.011 -22.162  0.00  0.00    -0.243 NA
ATOM      3  C   UNL     1      32.525 -13.080 -21.132  0.00  0.00    +0.019 C 
ATOM      4  C   UNL     1      32.342 -12.252 -22.229  0.00  0.00    +0.083 C 
ATOM      5  C   UNL     1      32.135 -12.601 -19.886  0.00  0.00    +0.014 C 
ATOM      6  C   UNL     1      31.584 -11.329 -19.776  0.00  0.00    +0.077 C 
ATOM      7  C   UNL     1      31.444 -10.581 -20.934  0.00  0.00    +0.110 C 
ENDROOT
BRANCH   4   9
ATOM      8  N   UNL     1      33.867 -12.137 -25.628  0.00  0.00    -0.248 NA
ATOM      9  C   UNL     1      32.713 -12.650 -23.571  0.00  0.00    +0.037 C 
ATOM     10  C   UNL     1      32.301 -13.870 -24.092  0.00  0.00    +0.004 C 
ATOM     11  C   UNL     1      33.486 -11.826 -24.369  0.00  0.00    +0.100 C 
ATOM     12  C   UNL     1      32.673 -14.225 -25.385  0.00  0.00    +0.015 C 
ATOM     13  C   UNL     1      33.449 -13.331 -26.104  0.00  0.00    +0.059 C 
ATOM     14  C   UNL     1      33.867 -13.680 -27.495  0.00  0.00    +0.052 C 
ENDBRANCH   4   9
BRANCH   3  15
ATOM     15  C   UNL     1      33.098 -14.404 -21.241  0.00  0.00    +0.002 C 
ATOM     16  C   UNL     1      34.203 -16.957 -21.449  0.00  0.00    +0.106 C 
ATOM     17  C   UNL     1      32.339 -15.523 -20.896  0.00  0.00    +0.001 C 
ATOM     18  C   UNL     1      34.409 -14.562 -21.691  0.00  0.00    +0.001 C 
ATOM     19  C   UNL     1      32.893 -16.799 -21.000  0.00  0.00    +0.018 C 
ATOM     20  C   UNL     1      34.961 -15.839 -21.795  0.00  0.00    +0.018 C 
BRANCH  16  21
ATOM     21  S   UNL     1      34.895 -18.556 -21.579  0.00  0.00    +0.010 S 
ATOM     22  O   UNL     1      35.101 -18.841 -22.992  0.00  0.00    -0.169 OA
ATOM     23  O   UNL     1      36.010 -18.664 -20.649  0.00  0.00    -0.169 OA
ATOM     24  C   UNL     1      33.616 -19.639 -20.984  0.00  0.00    +0.182 C 
ENDBRANCH  16  21
ENDBRANCH   3  15
TORSDOF 3
ENDMDL
MODEL 2
REMARK VINA RESULT:      -8.8      9.720     12.564
REMARK  Name = 123619
REMARK  3 active torsions:
REMARK  status: ('A' for Active; 'I' for Inactive)
REMARK    1  A    between atoms: C_3  and  C_15
REMARK    2  A    between atoms: C_4  and  C_9
REMARK    3  A    between atoms: C_16  and  S_21
REMARK                            x       y       z     vdW  Elec       q    Type
REMARK                         _______ _______ _______ _____ _____    ______ ____
ROOT
ATOM      1 CL   UNL     1      35.675 -21.112 -20.682  0.00  0.00    -0.081 Cl
ATOM      2  N   UNL     1      32.657 -22.246 -18.342  0.00  0.00    -0.243 NA
ATOM      3  C   UNL     1      34.711 -22.777 -17.179  0.00  0.00    +0.019 C 
ATOM      4  C   UNL     1      33.328 -22.742 -17.278  0.00  0.00    +0.083 C 
ATOM      5  C   UNL     1      35.450 -22.268 -18.241  0.00  0.00    +0.014 C 
ATOM      6  C   UNL     1      34.795 -21.748 -19.353  0.00  0.00    +0.077 C 
ATOM      7  C   UNL     1      33.410 -21.760 -19.354  0.00  0.00    +0.110 C 
ENDROOT
BRANCH   4   9
ATOM      8  N   UNL     1      30.633 -24.680 -15.584  0.00  0.00    -0.248 NA
ATOM      9  C   UNL     1      32.463 -23.245 -16.232  0.00  0.00    +0.037 C 
ATOM     10  C   UNL     1      32.604 -22.812 -14.921  0.00  0.00    +0.004 C 
ATOM     11  C   UNL     1      31.473 -24.170 -16.512  0.00  0.00    +0.100 C 
ATOM     12  C   UNL     1      31.758 -23.313 -13.937  0.00  0.00    +0.015 C 
ATOM     13  C   UNL     1      30.799 -24.237 -14.317  0.00  0.00    +0.059 C 
ATOM     14  C   UNL     1      29.873 -24.796 -13.287  0.00  0.00    +0.052 C 
ENDBRANCH   4   9
BRANCH   3  15
ATOM     15  C   UNL     1      35.397 -23.316 -16.025  0.00  0.00    +0.002 C 
ATOM     16  C   UNL     1      36.721 -24.357 -13.801  0.00  0.00    +0.106 C 
ATOM     17  C   UNL     1      36.151 -22.476 -15.206  0.00  0.00    +0.001 C 
ATOM     18  C   UNL     1      35.304 -24.677 -15.732  0.00  0.00    +0.001 C 
ATOM     19  C   UNL     1      36.813 -22.997 -14.095  0.00  0.00    +0.018 C 
ATOM     20  C   UNL     1      35.966 -25.197 -14.620  0.00  0.00    +0.018 C 
BRANCH  16  21
ATOM     21  S   UNL     1      37.550 -25.009 -12.409  0.00  0.00    +0.010 S 
ATOM     22  O   UNL     1      37.889 -23.899 -11.529  0.00  0.00    -0.169 OA
ATOM     23  O   UNL     1      36.788 -26.136 -11.891  0.00  0.00    -0.169 OA
ATOM     24  C   UNL     1      39.066 -25.667 -13.067  0.00  0.00    +0.182 C 
ENDBRANCH  16  21
ENDBRANCH   3  15
TORSDOF 3
ENDMDL
MODEL 3
REMARK VINA RESULT:      -8.7      9.946     12.024
REMARK  Name = 123619
REMARK  3 active torsions:
REMARK  status: ('A' for Active; 'I' for Inactive)
REMARK    1  A    between atoms: C_3  and  C_15
REMARK    2  A    between atoms: C_4  and  C_9
REMARK    3  A    between atoms: C_16  and  S_21
REMARK                            x       y       z     vdW  Elec       q    Type
REMARK                         _______ _______ _______ _____ _____    ______ ____
ROOT
ATOM      1 CL   UNL     1      29.377 -24.641 -14.246  0.00  0.00    -0.081 Cl
ATOM      2  N   UNL     1      31.673 -22.943 -17.023  0.00  0.00    -0.243 NA
ATOM      3  C   UNL     1      33.143 -23.927 -15.373  0.00  0.00    +0.019 C 
ATOM      4  C   UNL     1      32.905 -23.222 -16.543  0.00  0.00    +0.083 C 
ATOM      5  C   UNL     1      32.042 -24.373 -14.650  0.00  0.00    +0.014 C 
ATOM      6  C   UNL     1      30.757 -24.106 -15.111  0.00  0.00    +0.077 C 
ATOM      7  C   UNL     1      30.628 -23.395 -16.293  0.00  0.00    +0.110 C 
ENDROOT
BRANCH   4   9
ATOM      8  N   UNL     1      34.740 -22.009 -19.552  0.00  0.00    -0.248 NA
ATOM      9  C   UNL     1      33.977 -22.711 -17.372  0.00  0.00    +0.037 C 
ATOM     10  C   UNL     1      35.226 -22.436 -16.833  0.00  0.00    +0.004 C 
ATOM     11  C   UNL     1      33.784 -22.485 -18.723  0.00  0.00    +0.100 C 
ATOM     12  C   UNL     1      36.236 -21.946 -17.654  0.00  0.00    +0.015 C 
ATOM     13  C   UNL     1      35.944 -21.752 -18.994  0.00  0.00    +0.059 C 
ATOM     14  C   UNL     1      37.005 -21.226 -19.905  0.00  0.00    +0.052 C 
ENDBRANCH   4   9
BRANCH   3  15
ATOM     15  C   UNL     1      34.477 -24.207 -14.888  0.00  0.00    +0.002 C 
ATOM     16  C   UNL     1      37.050 -24.747 -13.955  0.00  0.00    +0.106 C 
ATOM     17  C   UNL     1      35.045 -23.400 -13.902  0.00  0.00    +0.001 C 
ATOM     18  C   UNL     1      35.196 -25.284 -15.408  0.00  0.00    +0.001 C 
ATOM     19  C   UNL     1      36.331 -23.671 -13.436  0.00  0.00    +0.018 C 
ATOM     20  C   UNL     1      36.483 -25.554 -14.942  0.00  0.00    +0.018 C 
BRANCH  16  21
ATOM     21  S   UNL     1      38.661 -25.085 -13.371  0.00  0.00    +0.010 S 
ATOM     22  O   UNL     1      39.087 -23.957 -12.553  0.00  0.00    -0.169 OA
ATOM     23  O   UNL     1      38.689 -26.431 -12.818  0.00  0.00    -0.169 OA
ATOM     24  C   UNL     1      39.666 -25.106 -14.839  0.00  0.00    +0.182 C 
ENDBRANCH  16  21
ENDBRANCH   3  15
TORSDOF 3
ENDMDL
MODEL 4
REMARK VINA RESULT:      -8.5      9.708     12.561
REMARK  Name = 123619
REMARK  3 active torsions:
REMARK  status: ('A' for Active; 'I' for Inactive)
REMARK    1  A    between atoms: C_3  and  C_15
REMARK    2  A    between atoms: C_4  and  C_9
REMARK    3  A    between atoms: C_16  and  S_21
REMARK                            x       y       z     vdW  Elec       q    Type
REMARK                         _______ _______ _______ _____ _____    ______ ____
ROOT
ATOM      1 CL   UNL     1      35.527 -21.046 -20.634  0.00  0.00    -0.081 Cl
ATOM      2  N   UNL     1      32.566 -22.203 -18.233  0.00  0.00    -0.243 NA
ATOM      3  C   UNL     1      34.646 -22.819 -17.163  0.00  0.00    +0.019 C 
ATOM      4  C   UNL     1      33.262 -22.752 -17.213  0.00  0.00    +0.083 C 
ATOM      5  C   UNL     1      35.360 -22.287 -18.231  0.00  0.00    +0.014 C 
ATOM      6  C   UNL     1      34.679 -21.713 -19.300  0.00  0.00    +0.077 C 
ATOM      7  C   UNL     1      33.295 -21.695 -19.252  0.00  0.00    +0.110 C 
ENDROOT
BRANCH   4   9
ATOM      8  N   UNL     1      31.915 -23.402 -13.799  0.00  0.00    -0.248 NA
ATOM      9  C   UNL     1      32.422 -23.275 -16.155  0.00  0.00    +0.037 C 
ATOM     10  C   UNL     1      31.356 -24.116 -16.443  0.00  0.00    +0.004 C 
ATOM     11  C   UNL     1      32.660 -22.949 -14.832  0.00  0.00    +0.100 C 
ATOM     12  C   UNL     1      30.566 -24.603 -15.407  0.00  0.00    +0.015 C 
ATOM     13  C   UNL     1      30.885 -24.219 -14.115  0.00  0.00    +0.059 C 
ATOM     14  C   UNL     1      30.058 -24.722 -12.977  0.00  0.00    +0.052 C 
ENDBRANCH   4   9
BRANCH   3  15
ATOM     15  C   UNL     1      35.359 -23.415 -16.054  0.00  0.00    +0.002 C 
ATOM     16  C   UNL     1      36.733 -24.564 -13.915  0.00  0.00    +0.106 C 
ATOM     17  C   UNL     1      35.287 -24.791 -15.837  0.00  0.00    +0.001 C 
ATOM     18  C   UNL     1      36.118 -22.613 -15.201  0.00  0.00    +0.001 C 
ATOM     19  C   UNL     1      35.974 -25.365 -14.767  0.00  0.00    +0.018 C 
ATOM     20  C   UNL     1      36.805 -23.188 -14.132  0.00  0.00    +0.018 C 
BRANCH  16  21
ATOM     21  S   UNL     1      37.592 -25.283 -12.576  0.00  0.00    +0.010 S 
ATOM     22  O   UNL     1      36.608 -25.844 -11.660  0.00  0.00    -0.169 OA
ATOM     23  O   UNL     1      38.658 -26.128 -13.098  0.00  0.00    -0.169 OA
ATOM     24  C   UNL     1      38.373 -23.907 -11.763  0.00  0.00    +0.182 C 
ENDBRANCH  16  21
ENDBRANCH   3  15
TORSDOF 3
ENDMDL
MODEL 5
REMARK VINA RESULT:      -8.5      8.682     12.522
REMARK  Name = 123619
REMARK  3 active torsions:
REMARK  status: ('A' for Active; 'I' for Inactive)
REMARK    1  A    between atoms: C_3  and  C_15
REMARK    2  A    between atoms: C_4  and  C_9
REMARK    3  A    between atoms: C_16  and  S_21
REMARK                            x       y       z     vdW  Elec       q    Type
REMARK                         _______ _______ _______ _____ _____    ______ ____
ROOT
ATOM      1 CL   UNL     1      29.098 -24.222 -14.966  0.00  0.00    -0.081 Cl
ATOM      2  N   UNL     1      32.790 -25.064 -13.727  0.00  0.00    -0.243 NA
ATOM      3  C   UNL     1      32.989 -23.723 -15.731  0.00  0.00    +0.019 C 
ATOM      4  C   UNL     1      33.527 -24.435 -14.670  0.00  0.00    +0.083 C 
ATOM      5  C   UNL     1      31.603 -23.654 -15.829  0.00  0.00    +0.014 C 
ATOM      6  C   UNL     1      30.810 -24.288 -14.878  0.00  0.00    +0.077 C 
ATOM      7  C   UNL     1      31.447 -24.973 -13.856  0.00  0.00    +0.110 C 
ENDROOT
BRANCH   4   9
ATOM      8  N   UNL     1      37.007 -25.727 -15.005  0.00  0.00    -0.248 NA
ATOM      9  C   UNL     1      34.955 -24.572 -14.473  0.00  0.00    +0.037 C 
ATOM     10  C   UNL     1      35.639 -23.729 -13.608  0.00  0.00    +0.004 C 
ATOM     11  C   UNL     1      35.674 -25.546 -15.143  0.00  0.00    +0.100 C 
ATOM     12  C   UNL     1      37.011 -23.885 -13.439  0.00  0.00    +0.015 C 
ATOM     13  C   UNL     1      37.642 -24.889 -14.155  0.00  0.00    +0.059 C 
ATOM     14  C   UNL     1      39.114 -25.084 -13.999  0.00  0.00    +0.052 C 
ENDBRANCH   4   9
BRANCH   3  15
ATOM     15  C   UNL     1      33.809 -23.063 -16.723  0.00  0.00    +0.002 C 
ATOM     16  C   UNL     1      35.389 -21.787 -18.636  0.00  0.00    +0.106 C 
ATOM     17  C   UNL     1      35.105 -22.660 -16.401  0.00  0.00    +0.001 C 
ATOM     18  C   UNL     1      33.302 -22.827 -18.002  0.00  0.00    +0.001 C 
ATOM     19  C   UNL     1      35.894 -22.023 -17.358  0.00  0.00    +0.018 C 
ATOM     20  C   UNL     1      34.093 -22.189 -18.958  0.00  0.00    +0.018 C 
BRANCH  16  21
ATOM     21  S   UNL     1      36.378 -20.988 -19.833  0.00  0.00    +0.010 S 
ATOM     22  O   UNL     1      37.115 -19.923 -19.168  0.00  0.00    -0.169 OA
ATOM     23  O   UNL     1      37.097 -21.996 -20.600  0.00  0.00    -0.169 OA
ATOM     24  C   UNL     1      35.207 -20.234 -20.940  0.00  0.00    +0.182 C 
ENDBRANCH  16  21
ENDBRANCH   3  15
TORSDOF 3
ENDMDL
MODEL 6
REMARK VINA RESULT:      -7.4      9.767     12.556
REMARK  Name = 123619
REMARK  3 active torsions:
REMARK  status: ('A' for Active; 'I' for Inactive)
REMARK    1  A    between atoms: C_3  and  C_15
REMARK    2  A    between atoms: C_4  and  C_9
REMARK    3  A    between atoms: C_16  and  S_21
REMARK                            x       y       z     vdW  Elec       q    Type
REMARK                         _______ _______ _______ _____ _____    ______ ____
ROOT
ATOM      1 CL   UNL     1      35.371 -20.525 -20.821  0.00  0.00    -0.081 Cl
ATOM      2  N   UNL     1      37.191 -22.130 -17.662  0.00  0.00    -0.243 NA
ATOM      3  C   UNL     1      34.814 -22.480 -17.381  0.00  0.00    +0.019 C 
ATOM      4  C   UNL     1      36.132 -22.602 -16.968  0.00  0.00    +0.083 C 
ATOM      5  C   UNL     1      34.570 -21.830 -18.586  0.00  0.00    +0.014 C 
ATOM      6  C   UNL     1      35.634 -21.331 -19.330  0.00  0.00    +0.077 C 
ATOM      7  C   UNL     1      36.914 -21.505 -18.829  0.00  0.00    +0.110 C 
ENDROOT
BRANCH   4   9
ATOM      8  N   UNL     1      37.357 -23.084 -13.480  0.00  0.00    -0.248 NA
ATOM      9  C   UNL     1      36.499 -23.259 -15.730  0.00  0.00    +0.037 C 
ATOM     10  C   UNL     1      36.361 -24.632 -15.584  0.00  0.00    +0.004 C 
ATOM     11  C   UNL     1      36.996 -22.534 -14.662  0.00  0.00    +0.100 C 
ATOM     12  C   UNL     1      36.722 -25.235 -14.384  0.00  0.00    +0.015 C 
ATOM     13  C   UNL     1      37.209 -24.423 -13.373  0.00  0.00    +0.059 C 
ATOM     14  C   UNL     1      37.606 -25.037 -12.070  0.00  0.00    +0.052 C 
ENDBRANCH   4   9
BRANCH   3  15
ATOM     15  C   UNL     1      33.704 -22.997 -16.611  0.00  0.00    +0.002 C 
ATOM     16  C   UNL     1      31.563 -23.994 -15.126  0.00  0.00    +0.106 C 
ATOM     17  C   UNL     1      32.504 -23.319 -17.246  0.00  0.00    +0.001 C 
ATOM     18  C   UNL     1      33.833 -23.174 -15.233  0.00  0.00    +0.001 C 
ATOM     19  C   UNL     1      31.434 -23.817 -16.503  0.00  0.00    +0.018 C 
ATOM     20  C   UNL     1      32.762 -23.673 -14.491  0.00  0.00    +0.018 C 
BRANCH  16  21
ATOM     21  S   UNL     1      30.222 -24.618 -14.197  0.00  0.00    +0.010 S 
ATOM     22  O   UNL     1      30.044 -26.019 -14.551  0.00  0.00    -0.169 OA
ATOM     23  O   UNL     1      30.400 -24.241 -12.801  0.00  0.00    -0.169 OA
ATOM     24  C   UNL     1      28.811 -23.718 -14.801  0.00  0.00    +0.182 C 
ENDBRANCH  16  21
ENDBRANCH   3  15
TORSDOF 3
ENDMDL
MODEL 7
REMARK VINA RESULT:      -6.6      1.725      2.207
REMARK  Name = 123619
REMARK  3 active torsions:
REMARK  status: ('A' for Active; 'I' for Inactive)
REMARK    1  A    between atoms: C_3  and  C_15
REMARK    2  A    between atoms: C_4  and  C_9
REMARK    3  A    between atoms: C_16  and  S_21
REMARK                            x       y       z     vdW  Elec       q    Type
REMARK                         _______ _______ _______ _____ _____    ______ ____
ROOT
ATOM      1 CL   UNL     1      30.377 -10.667 -18.977  0.00  0.00    -0.081 Cl
ATOM      2  N   UNL     1      32.240  -9.888 -22.410  0.00  0.00    -0.243 NA
ATOM      3  C   UNL     1      32.585 -12.231 -21.917  0.00  0.00    +0.019 C 
ATOM      4  C   UNL     1      32.753 -11.104 -22.706  0.00  0.00    +0.083 C 
ATOM      5  C   UNL     1      31.842 -12.100 -20.748  0.00  0.00    +0.014 C 
ATOM      6  C   UNL     1      31.298 -10.865 -20.410  0.00  0.00    +0.077 C 
ATOM      7  C   UNL     1      31.524  -9.801 -21.267  0.00  0.00    +0.110 C 
ENDROOT
BRANCH   4   9
ATOM      8  N   UNL     1      35.374 -10.305 -25.233  0.00  0.00    -0.248 NA
ATOM      9  C   UNL     1      33.507 -11.127 -23.942  0.00  0.00    +0.037 C 
ATOM     10  C   UNL     1      33.127 -11.951 -24.993  0.00  0.00    +0.004 C 
ATOM     11  C   UNL     1      34.626 -10.331 -24.107  0.00  0.00    +0.100 C 
ATOM     12  C   UNL     1      33.871 -11.953 -26.168  0.00  0.00    +0.015 C 
ATOM     13  C   UNL     1      34.975 -11.119 -26.236  0.00  0.00    +0.059 C 
ATOM     14  C   UNL     1      35.798 -11.096 -27.482  0.00  0.00    +0.052 C 
ENDBRANCH   4   9
BRANCH   3  15
ATOM     15  C   UNL     1      33.148 -13.518 -22.265  0.00  0.00    +0.002 C 
ATOM     16  C   UNL     1      34.235 -15.998 -22.935  0.00  0.00    +0.106 C 
ATOM     17  C   UNL     1      34.066 -14.131 -21.411  0.00  0.00    +0.001 C 
ATOM     18  C   UNL     1      32.774 -14.145 -23.453  0.00  0.00    +0.001 C 
ATOM     19  C   UNL     1      34.609 -15.371 -21.747  0.00  0.00    +0.018 C 
ATOM     20  C   UNL     1      33.318 -15.385 -23.788  0.00  0.00    +0.018 C 
BRANCH  16  21
ATOM     21  S   UNL     1      34.916 -17.550 -23.355  0.00  0.00    +0.010 S 
ATOM     22  O   UNL     1      36.346 -17.501 -23.082  0.00  0.00    -0.169 OA
ATOM     23  O   UNL     1      34.102 -18.600 -22.759  0.00  0.00    -0.169 OA
ATOM     24  C   UNL     1      34.700 -17.664 -25.117  0.00  0.00    +0.182 C 
ENDBRANCH  16  21
ENDBRANCH   3  15
TORSDOF 3
ENDMDL
MODEL 8
REMARK VINA RESULT:      -6.2      4.188      5.827
REMARK  Name = 123619
REMARK  3 active torsions:
REMARK  status: ('A' for Active; 'I' for Inactive)
REMARK    1  A    between atoms: C_3  and  C_15
REMARK    2  A    between atoms: C_4  and  C_9
REMARK    3  A    between atoms: C_16  and  S_21
REMARK                            x       y       z     vdW  Elec       q    Type
REMARK                         _______ _______ _______ _____ _____    ______ ____
ROOT
ATOM      1 CL   UNL     1      35.560 -19.589 -20.689  0.00  0.00    -0.081 Cl
ATOM      2  N   UNL     1      34.916 -17.568 -24.062  0.00  0.00    -0.243 NA
ATOM      3  C   UNL     1      34.021 -16.245 -22.245  0.00  0.00    +0.019 C 
ATOM      4  C   UNL     1      34.293 -16.466 -23.586  0.00  0.00    +0.083 C 
ATOM      5  C   UNL     1      34.415 -17.219 -21.334  0.00  0.00    +0.014 C 
ATOM      6  C   UNL     1      35.059 -18.367 -21.784  0.00  0.00    +0.077 C 
ATOM      7  C   UNL     1      35.285 -18.492 -23.145  0.00  0.00    +0.110 C 
ENDROOT
BRANCH   4   9
ATOM      8  N   UNL     1      32.822 -15.088 -26.722  0.00  0.00    -0.248 NA
ATOM      9  C   UNL     1      33.927 -15.519 -24.619  0.00  0.00    +0.037 C 
ATOM     10  C   UNL     1      34.298 -14.185 -24.526  0.00  0.00    +0.004 C 
ATOM     11  C   UNL     1      33.197 -15.920 -25.723  0.00  0.00    +0.100 C 
ATOM     12  C   UNL     1      33.932 -13.298 -25.533  0.00  0.00    +0.015 C 
ATOM     13  C   UNL     1      33.201 -13.796 -26.599  0.00  0.00    +0.059 C 
ATOM     14  C   UNL     1      32.789 -12.872 -27.698  0.00  0.00    +0.052 C 
ENDBRANCH   4   9
BRANCH   3  15
ATOM     15  C   UNL     1      33.351 -15.053 -21.771  0.00  0.00    +0.002 C 
ATOM     16  C   UNL     1      32.061 -12.755 -20.858  0.00  0.00    +0.106 C 
ATOM     17  C   UNL     1      32.611 -14.271 -22.657  0.00  0.00    +0.001 C 
ATOM     18  C   UNL     1      33.447 -14.686 -20.429  0.00  0.00    +0.001 C 
ATOM     19  C   UNL     1      31.966 -13.121 -22.200  0.00  0.00    +0.018 C 
ATOM     20  C   UNL     1      32.802 -13.537 -19.972  0.00  0.00    +0.018 C 
BRANCH  16  21
ATOM     21  S   UNL     1      31.254 -11.315 -20.286  0.00  0.00    +0.010 S 
ATOM     22  O   UNL     1      29.853 -11.403 -20.675  0.00  0.00    -0.169 OA
ATOM     23  O   UNL     1      31.605 -11.101 -18.889  0.00  0.00    -0.169 OA
ATOM     24  C   UNL     1      31.998  -9.994 -21.217  0.00  0.00    +0.182 C 
ENDBRANCH  16  21
ENDBRANCH   3  15
TORSDOF 3
ENDMDL
MODEL 9
REMARK VINA RESULT:      -6.1      6.001      7.994
REMARK  Name = 123619
REMARK  3 active torsions:
REMARK  status: ('A' for Active; 'I' for Inactive)
REMARK    1  A    between atoms: C_3  and  C_15
REMARK    2  A    between atoms: C_4  and  C_9
REMARK    3  A    between atoms: C_16  and  S_21
REMARK                            x       y       z     vdW  Elec       q    Type
REMARK                         _______ _______ _______ _____ _____    ______ ____
ROOT
ATOM      1 CL   UNL     1      30.763 -11.252 -18.264  0.00  0.00    -0.081 Cl
ATOM      2  N   UNL     1      32.874 -12.051 -21.547  0.00  0.00    -0.243 NA
ATOM      3  C   UNL     1      32.068  -9.778 -21.741  0.00  0.00    +0.019 C 
ATOM      4  C   UNL     1      32.767 -10.879 -22.212  0.00  0.00    +0.083 C 
ATOM      5  C   UNL     1      31.439  -9.889 -20.506  0.00  0.00    +0.014 C 
ATOM      6  C   UNL     1      31.526 -11.079 -19.790  0.00  0.00    +0.077 C 
ATOM      7  C   UNL     1      32.249 -12.120 -20.349  0.00  0.00    +0.110 C 
ENDROOT
BRANCH   4   9
ATOM      8  N   UNL     1      33.838 -11.914 -25.629  0.00  0.00    -0.248 NA
ATOM      9  C   UNL     1      33.458 -10.872 -23.484  0.00  0.00    +0.037 C 
ATOM     10  C   UNL     1      34.369  -9.872 -23.795  0.00  0.00    +0.004 C 
ATOM     11  C   UNL     1      33.227 -11.861 -24.423  0.00  0.00    +0.100 C 
ATOM     12  C   UNL     1      35.018  -9.891 -25.026  0.00  0.00    +0.015 C 
ATOM     13  C   UNL     1      34.719 -10.925 -25.898  0.00  0.00    +0.059 C 
ATOM     14  C   UNL     1      35.396 -10.977 -27.229  0.00  0.00    +0.052 C 
ENDBRANCH   4   9
BRANCH   3  15
ATOM     15  C   UNL     1      31.975  -8.538 -22.480  0.00  0.00    +0.002 C 
ATOM     16  C   UNL     1      31.794  -6.148 -23.908  0.00  0.00    +0.106 C 
ATOM     17  C   UNL     1      31.063  -8.419 -23.530  0.00  0.00    +0.001 C 
ATOM     18  C   UNL     1      32.796  -7.462 -22.145  0.00  0.00    +0.001 C 
ATOM     19  C   UNL     1      30.974  -7.224 -24.243  0.00  0.00    +0.018 C 
ATOM     20  C   UNL     1      32.706  -6.267 -22.859  0.00  0.00    +0.018 C 
BRANCH  16  21
ATOM     21  S   UNL     1      31.682  -4.652 -24.802  0.00  0.00    +0.010 S 
ATOM     22  O   UNL     1      32.817  -4.587 -25.712  0.00  0.00    -0.169 OA
ATOM     23  O   UNL     1      30.329  -4.514 -25.322  0.00  0.00    -0.169 OA
ATOM     24  C   UNL     1      31.896  -3.386 -23.570  0.00  0.00    +0.182 C 
ENDBRANCH  16  21
ENDBRANCH   3  15
TORSDOF 3
ENDMDL
