MODEL 1
REMARK VINA RESULT:      -7.5      0.000      0.000
REMARK  Name = 61583
REMARK  4 active torsions:
REMARK  status: ('A' for Active; 'I' for Inactive)
REMARK    1  A    between atoms: C_2  and  C_9
REMARK    2  A    between atoms: C_2  and  O_15
REMARK    3  A    between atoms: O_15  and  C_17
REMARK    4  A    between atoms: C_17  and  C_18
REMARK                            x       y       z     vdW  Elec       q    Type
REMARK                         _______ _______ _______ _____ _____    ______ ____
ROOT
ATOM      1  N   UNL     1      31.265  -6.345 -23.308  0.00  0.00    +0.386 N 
ATOM      2  C   UNL     1      32.620  -8.806 -22.327  0.00  0.00    +0.150 C 
ATOM      3  C   UNL     1      33.080  -7.374 -21.968  0.00  0.00    +0.022 C 
ATOM      4  C   UNL     1      31.115  -8.721 -22.673  0.00  0.00    +0.022 C 
ATOM      5  C   UNL     1      32.706  -6.330 -23.028  0.00  0.00    -0.074 C 
ATOM      6  C   UNL     1      30.821  -7.673 -23.748  0.00  0.00    -0.074 C 
ATOM      7  C   UNL     1      30.925  -5.332 -24.306  0.00  0.00    -0.101 C 
ATOM      8  H   UNL     1      30.776  -6.124 -22.441  0.00  0.00    -0.080 HD
ENDROOT
BRANCH   2   9
ATOM      9  C   UNL     1      33.430  -9.543 -23.396  0.00  0.00    +0.013 C 
ATOM     10  C   UNL     1      34.537  -8.928 -23.978  0.00  0.00    -0.001 C 
ATOM     11  C   UNL     1      33.059 -10.830 -23.787  0.00  0.00    -0.001 C 
ATOM     12  C   UNL     1      35.275  -9.599 -24.951  0.00  0.00    -0.000 C 
ATOM     13  C   UNL     1      33.799 -11.501 -24.761  0.00  0.00    -0.000 C 
ATOM     14  C   UNL     1      34.906 -10.886 -25.343  0.00  0.00    -0.000 C 
ENDBRANCH   2   9
BRANCH   2  15
ATOM     15  O   UNL     1      32.729  -9.584 -21.124  0.00  0.00    -0.452 OA
BRANCH  15  17
ATOM     16  O   UNL     1      32.055  -7.982 -19.608  0.00  0.00    -0.250 OA
ATOM     17  C   UNL     1      32.018  -9.122 -20.051  0.00  0.00    +0.317 C 
BRANCH  17  18
ATOM     18  C   UNL     1      31.172 -10.244 -19.497  0.00  0.00    +0.110 C 
ATOM     19  C   UNL     1      31.537 -11.588 -20.103  0.00  0.00    +0.012 C 
ENDBRANCH  17  18
ENDBRANCH  15  17
ENDBRANCH   2  15
TORSDOF 4
ENDMDL
MODEL 2
REMARK VINA RESULT:      -7.4     14.586     16.994
REMARK  Name = 61583
REMARK  4 active torsions:
REMARK  status: ('A' for Active; 'I' for Inactive)
REMARK    1  A    between atoms: C_2  and  C_9
REMARK    2  A    between atoms: C_2  and  O_15
REMARK    3  A    between atoms: O_15  and  C_17
REMARK    4  A    between atoms: C_17  and  C_18
REMARK                            x       y       z     vdW  Elec       q    Type
REMARK                         _______ _______ _______ _____ _____    ______ ____
ROOT
ATOM      1  N   UNL     1      37.393 -25.245 -14.319  0.00  0.00    +0.386 N 
ATOM      2  C   UNL     1      35.101 -23.525 -15.119  0.00  0.00    +0.150 C 
ATOM      3  C   UNL     1      35.030 -25.068 -15.049  0.00  0.00    +0.022 C 
ATOM      4  C   UNL     1      36.224 -23.082 -14.153  0.00  0.00    +0.022 C 
ATOM      5  C   UNL     1      36.387 -25.750 -15.261  0.00  0.00    -0.074 C 
ATOM      6  C   UNL     1      37.551 -23.790 -14.437  0.00  0.00    -0.074 C 
ATOM      7  C   UNL     1      38.674 -25.919 -14.524  0.00  0.00    -0.101 C 
ATOM      8  H   UNL     1      37.067 -25.448 -13.374  0.00  0.00    -0.080 HD
ENDROOT
BRANCH   2   9
ATOM      9  C   UNL     1      35.240 -22.904 -16.511  0.00  0.00    +0.013 C 
ATOM     10  C   UNL     1      34.186 -22.990 -17.420  0.00  0.00    -0.001 C 
ATOM     11  C   UNL     1      36.420 -22.253 -16.868  0.00  0.00    -0.001 C 
ATOM     12  C   UNL     1      34.313 -22.424 -18.688  0.00  0.00    -0.000 C 
ATOM     13  C   UNL     1      36.546 -21.687 -18.137  0.00  0.00    -0.000 C 
ATOM     14  C   UNL     1      35.493 -21.772 -19.047  0.00  0.00    -0.000 C 
ENDBRANCH   2   9
BRANCH   2  15
ATOM     15  O   UNL     1      33.864 -23.034 -14.576  0.00  0.00    -0.452 OA
BRANCH  15  17
ATOM     16  O   UNL     1      33.516 -24.412 -12.759  0.00  0.00    -0.250 OA
ATOM     17  C   UNL     1      33.152 -23.925 -13.821  0.00  0.00    +0.317 C 
BRANCH  17  18
ATOM     18  C   UNL     1      31.837 -24.215 -14.506  0.00  0.00    +0.110 C 
ATOM     19  C   UNL     1      31.222 -22.966 -15.113  0.00  0.00    +0.012 C 
ENDBRANCH  17  18
ENDBRANCH  15  17
ENDBRANCH   2  15
TORSDOF 4
ENDMDL
MODEL 3
REMARK VINA RESULT:      -7.3      1.476      4.199
REMARK  Name = 61583
REMARK  4 active torsions:
REMARK  status: ('A' for Active; 'I' for Inactive)
REMARK    1  A    between atoms: C_2  and  C_9
REMARK    2  A    between atoms: C_2  and  O_15
REMARK    3  A    between atoms: O_15  and  C_17
REMARK    4  A    between atoms: C_17  and  C_18
REMARK                            x       y       z     vdW  Elec       q    Type
REMARK                         _______ _______ _______ _____ _____    ______ ____
ROOT
ATOM      1  N   UNL     1      31.613  -5.946 -22.918  0.00  0.00    +0.386 N 
ATOM      2  C   UNL     1      32.762  -8.675 -22.621  0.00  0.00    +0.150 C 
ATOM      3  C   UNL     1      31.870  -8.245 -23.810  0.00  0.00    +0.022 C 
ATOM      4  C   UNL     1      33.418  -7.390 -22.065  0.00  0.00    +0.022 C 
ATOM      5  C   UNL     1      30.902  -7.107 -23.465  0.00  0.00    -0.074 C 
ATOM      6  C   UNL     1      32.390  -6.308 -21.727  0.00  0.00    -0.074 C 
ATOM      7  C   UNL     1      30.676  -4.865 -22.612  0.00  0.00    -0.101 C 
ATOM      8  H   UNL     1      32.267  -5.617 -23.628  0.00  0.00    -0.080 HD
ENDROOT
BRANCH   2   9
ATOM      9  C   UNL     1      32.097  -9.519 -21.531  0.00  0.00    +0.013 C 
ATOM     10  C   UNL     1      32.276  -9.187 -20.189  0.00  0.00    -0.001 C 
ATOM     11  C   UNL     1      31.315 -10.618 -21.881  0.00  0.00    -0.001 C 
ATOM     12  C   UNL     1      31.671  -9.955 -19.195  0.00  0.00    -0.000 C 
ATOM     13  C   UNL     1      30.710 -11.387 -20.887  0.00  0.00    -0.000 C 
ATOM     14  C   UNL     1      30.887 -11.055 -19.544  0.00  0.00    -0.000 C 
ENDBRANCH   2   9
BRANCH   2  15
ATOM     15  O   UNL     1      33.818  -9.479 -23.172  0.00  0.00    -0.452 OA
BRANCH  15  17
ATOM     16  O   UNL     1      34.891  -7.673 -24.125  0.00  0.00    -0.250 OA
ATOM     17  C   UNL     1      34.609  -8.863 -24.104  0.00  0.00    +0.317 C 
BRANCH  17  18
ATOM     18  C   UNL     1      35.082  -9.889 -25.106  0.00  0.00    +0.110 C 
ATOM     19  C   UNL     1      34.281 -11.177 -25.029  0.00  0.00    +0.012 C 
ENDBRANCH  17  18
ENDBRANCH  15  17
ENDBRANCH   2  15
TORSDOF 4
ENDMDL
MODEL 4
REMARK VINA RESULT:      -7.1      7.566     10.225
REMARK  Name = 61583
REMARK  4 active torsions:
REMARK  status: ('A' for Active; 'I' for Inactive)
REMARK    1  A    between atoms: C_2  and  C_9
REMARK    2  A    between atoms: C_2  and  O_15
REMARK    3  A    between atoms: O_15  and  C_17
REMARK    4  A    between atoms: C_17  and  C_18
REMARK                            x       y       z     vdW  Elec       q    Type
REMARK                         _______ _______ _______ _____ _____    ______ ____
ROOT
ATOM      1  N   UNL     1      35.411 -20.318 -21.004  0.00  0.00    +0.386 N 
ATOM      2  C   UNL     1      35.119 -17.766 -22.505  0.00  0.00    +0.150 C 
ATOM      3  C   UNL     1      36.451 -18.247 -21.885  0.00  0.00    +0.022 C 
ATOM      4  C   UNL     1      34.259 -19.027 -22.758  0.00  0.00    +0.022 C 
ATOM      5  C   UNL     1      36.262 -19.169 -20.674  0.00  0.00    -0.074 C 
ATOM      6  C   UNL     1      34.100 -19.886 -21.502  0.00  0.00    -0.074 C 
ATOM      7  C   UNL     1      35.257 -21.194 -19.843  0.00  0.00    -0.101 C 
ATOM      8  H   UNL     1      35.870 -20.843 -21.748  0.00  0.00    -0.080 HD
ENDROOT
BRANCH   2   9
ATOM      9  C   UNL     1      34.358 -16.676 -21.745  0.00  0.00    +0.013 C 
ATOM     10  C   UNL     1      34.984 -15.465 -21.455  0.00  0.00    -0.001 C 
ATOM     11  C   UNL     1      33.041 -16.897 -21.345  0.00  0.00    -0.001 C 
ATOM     12  C   UNL     1      34.292 -14.472 -20.763  0.00  0.00    -0.000 C 
ATOM     13  C   UNL     1      32.349 -15.903 -20.653  0.00  0.00    -0.000 C 
ATOM     14  C   UNL     1      32.973 -14.691 -20.362  0.00  0.00    -0.000 C 
ENDBRANCH   2   9
BRANCH   2  15
ATOM     15  O   UNL     1      35.442 -17.215 -23.792  0.00  0.00    -0.452 OA
BRANCH  15  17
ATOM     16  O   UNL     1      34.043 -18.116 -25.390  0.00  0.00    -0.250 OA
ATOM     17  C   UNL     1      34.416 -17.179 -24.697  0.00  0.00    +0.317 C 
BRANCH  17  18
ATOM     18  C   UNL     1      33.813 -15.794 -24.706  0.00  0.00    +0.110 C 
ATOM     19  C   UNL     1      33.316 -15.396 -26.085  0.00  0.00    +0.012 C 
ENDBRANCH  17  18
ENDBRANCH  15  17
ENDBRANCH   2  15
TORSDOF 4
ENDMDL
MODEL 5
REMARK VINA RESULT:      -6.7      2.426      4.642
REMARK  Name = 61583
REMARK  4 active torsions:
REMARK  status: ('A' for Active; 'I' for Inactive)
REMARK    1  A    between atoms: C_2  and  C_9
REMARK    2  A    between atoms: C_2  and  O_15
REMARK    3  A    between atoms: O_15  and  C_17
REMARK    4  A    between atoms: C_17  and  C_18
REMARK                            x       y       z     vdW  Elec       q    Type
REMARK                         _______ _______ _______ _____ _____    ______ ____
ROOT
ATOM      1  N   UNL     1      33.463  -9.814 -23.559  0.00  0.00    +0.386 N 
ATOM      2  C   UNL     1      33.022  -6.879 -23.348  0.00  0.00    +0.150 C 
ATOM      3  C   UNL     1      31.879  -7.921 -23.323  0.00  0.00    +0.022 C 
ATOM      4  C   UNL     1      34.301  -7.604 -22.867  0.00  0.00    +0.022 C 
ATOM      5  C   UNL     1      32.221  -9.218 -24.066  0.00  0.00    -0.074 C 
ATOM      6  C   UNL     1      34.587  -8.877 -23.666  0.00  0.00    -0.074 C 
ATOM      7  C   UNL     1      33.762 -11.059 -24.267  0.00  0.00    -0.101 C 
ATOM      8  H   UNL     1      33.327 -10.028 -22.571  0.00  0.00    -0.080 HD
ENDROOT
BRANCH   2   9
ATOM      9  C   UNL     1      33.233  -6.118 -24.660  0.00  0.00    +0.013 C 
ATOM     10  C   UNL     1      34.442  -6.233 -25.344  0.00  0.00    -0.001 C 
ATOM     11  C   UNL     1      32.215  -5.312 -25.167  0.00  0.00    -0.001 C 
ATOM     12  C   UNL     1      34.634  -5.540 -26.538  0.00  0.00    -0.000 C 
ATOM     13  C   UNL     1      32.408  -4.619 -26.363  0.00  0.00    -0.000 C 
ATOM     14  C   UNL     1      33.616  -4.733 -27.048  0.00  0.00    -0.000 C 
ENDBRANCH   2   9
BRANCH   2  15
ATOM     15  O   UNL     1      32.700  -5.894 -22.353  0.00  0.00    -0.452 OA
BRANCH  15  17
ATOM     16  O   UNL     1      31.920  -7.062 -20.523  0.00  0.00    -0.250 OA
ATOM     17  C   UNL     1      31.755  -6.264 -21.435  0.00  0.00    +0.317 C 
BRANCH  17  18
ATOM     18  C   UNL     1      30.468  -5.529 -21.727  0.00  0.00    +0.110 C 
ATOM     19  C   UNL     1      30.717  -4.136 -22.278  0.00  0.00    +0.012 C 
ENDBRANCH  17  18
ENDBRANCH  15  17
ENDBRANCH   2  15
TORSDOF 4
ENDMDL
MODEL 6
REMARK VINA RESULT:      -6.7      1.885      4.239
REMARK  Name = 61583
REMARK  4 active torsions:
REMARK  status: ('A' for Active; 'I' for Inactive)
REMARK    1  A    between atoms: C_2  and  C_9
REMARK    2  A    between atoms: C_2  and  O_15
REMARK    3  A    between atoms: O_15  and  C_17
REMARK    4  A    between atoms: C_17  and  C_18
REMARK                            x       y       z     vdW  Elec       q    Type
REMARK                         _______ _______ _______ _____ _____    ______ ____
ROOT
ATOM      1  N   UNL     1      31.508  -9.717 -20.028  0.00  0.00    +0.386 N 
ATOM      2  C   UNL     1      31.738  -8.781 -22.843  0.00  0.00    +0.150 C 
ATOM      3  C   UNL     1      30.733  -9.861 -22.379  0.00  0.00    +0.022 C 
ATOM      4  C   UNL     1      32.065  -7.910 -21.608  0.00  0.00    +0.022 C 
ATOM      5  C   UNL     1      31.195 -10.629 -21.135  0.00  0.00    -0.074 C 
ATOM      6  C   UNL     1      32.536  -8.743 -20.414  0.00  0.00    -0.074 C 
ATOM      7  C   UNL     1      31.929 -10.469 -18.846  0.00  0.00    -0.101 C 
ATOM      8  H   UNL     1      30.659  -9.201 -19.799  0.00  0.00    -0.080 HD
ENDROOT
BRANCH   2   9
ATOM      9  C   UNL     1      32.994  -9.274 -23.566  0.00  0.00    +0.013 C 
ATOM     10  C   UNL     1      33.020 -10.552 -24.124  0.00  0.00    -0.001 C 
ATOM     11  C   UNL     1      34.110  -8.445 -23.667  0.00  0.00    -0.001 C 
ATOM     12  C   UNL     1      34.163 -11.001 -24.783  0.00  0.00    -0.000 C 
ATOM     13  C   UNL     1      35.254  -8.895 -24.326  0.00  0.00    -0.000 C 
ATOM     14  C   UNL     1      35.281 -10.173 -24.884  0.00  0.00    -0.000 C 
ENDBRANCH   2   9
BRANCH   2  15
ATOM     15  O   UNL     1      31.036  -7.941 -23.774  0.00  0.00    -0.452 OA
BRANCH  15  17
ATOM     16  O   UNL     1      30.431  -6.107 -22.511  0.00  0.00    -0.250 OA
ATOM     17  C   UNL     1      31.009  -6.608 -23.466  0.00  0.00    +0.317 C 
BRANCH  17  18
ATOM     18  C   UNL     1      31.811  -5.847 -24.495  0.00  0.00    +0.110 C 
ATOM     19  C   UNL     1      31.115  -4.570 -24.933  0.00  0.00    +0.012 C 
ENDBRANCH  17  18
ENDBRANCH  15  17
ENDBRANCH   2  15
TORSDOF 4
ENDMDL
MODEL 7
REMARK VINA RESULT:      -6.6      1.636      4.220
REMARK  Name = 61583
REMARK  4 active torsions:
REMARK  status: ('A' for Active; 'I' for Inactive)
REMARK    1  A    between atoms: C_2  and  C_9
REMARK    2  A    between atoms: C_2  and  O_15
REMARK    3  A    between atoms: O_15  and  C_17
REMARK    4  A    between atoms: C_17  and  C_18
REMARK                            x       y       z     vdW  Elec       q    Type
REMARK                         _______ _______ _______ _____ _____    ______ ____
ROOT
ATOM      1  N   UNL     1      34.198  -9.758 -23.945  0.00  0.00    +0.386 N 
ATOM      2  C   UNL     1      32.485  -7.616 -22.793  0.00  0.00    +0.150 C 
ATOM      3  C   UNL     1      31.953  -9.006 -23.211  0.00  0.00    +0.022 C 
ATOM      4  C   UNL     1      33.991  -7.786 -22.483  0.00  0.00    +0.022 C 
ATOM      5  C   UNL     1      32.782  -9.668 -24.318  0.00  0.00    -0.074 C 
ATOM      6  C   UNL     1      34.755  -8.435 -23.639  0.00  0.00    -0.074 C 
ATOM      7  C   UNL     1      34.969 -10.408 -25.004  0.00  0.00    -0.101 C 
ATOM      8  H   UNL     1      34.264 -10.327 -23.100  0.00  0.00    -0.080 HD
ENDROOT
BRANCH   2   9
ATOM      9  C   UNL     1      32.206  -6.454 -23.750  0.00  0.00    +0.013 C 
ATOM     10  C   UNL     1      31.073  -5.663 -23.572  0.00  0.00    -0.001 C 
ATOM     11  C   UNL     1      33.087  -6.190 -24.798  0.00  0.00    -0.001 C 
ATOM     12  C   UNL     1      30.819  -4.605 -24.443  0.00  0.00    -0.000 C 
ATOM     13  C   UNL     1      32.832  -5.131 -25.670  0.00  0.00    -0.000 C 
ATOM     14  C   UNL     1      31.699  -4.338 -25.493  0.00  0.00    -0.000 C 
ENDBRANCH   2   9
BRANCH   2  15
ATOM     15  O   UNL     1      31.838  -7.286 -21.552  0.00  0.00    -0.452 OA
BRANCH  15  17
ATOM     16  O   UNL     1      32.978  -7.413 -19.551  0.00  0.00    -0.250 OA
ATOM     17  C   UNL     1      32.318  -7.927 -20.443  0.00  0.00    +0.317 C 
BRANCH  17  18
ATOM     18  C   UNL     1      31.903  -9.379 -20.493  0.00  0.00    +0.110 C 
ATOM     19  C   UNL     1      31.944 -10.033 -19.123  0.00  0.00    +0.012 C 
ENDBRANCH  17  18
ENDBRANCH  15  17
ENDBRANCH   2  15
TORSDOF 4
ENDMDL
MODEL 8
REMARK VINA RESULT:      -6.6     14.811     17.579
REMARK  Name = 61583
REMARK  4 active torsions:
REMARK  status: ('A' for Active; 'I' for Inactive)
REMARK    1  A    between atoms: C_2  and  C_9
REMARK    2  A    between atoms: C_2  and  O_15
REMARK    3  A    between atoms: O_15  and  C_17
REMARK    4  A    between atoms: C_17  and  C_18
REMARK                            x       y       z     vdW  Elec       q    Type
REMARK                         _______ _______ _______ _____ _____    ______ ____
ROOT
ATOM      1  N   UNL     1      37.067 -25.300 -13.437  0.00  0.00    +0.386 N 
ATOM      2  C   UNL     1      35.455 -23.374 -15.032  0.00  0.00    +0.150 C 
ATOM      3  C   UNL     1      36.161 -23.008 -13.705  0.00  0.00    +0.022 C 
ATOM      4  C   UNL     1      36.224 -24.572 -15.635  0.00  0.00    +0.022 C 
ATOM      5  C   UNL     1      36.354 -24.206 -12.768  0.00  0.00    -0.074 C 
ATOM      6  C   UNL     1      36.361 -25.734 -14.649  0.00  0.00    -0.074 C 
ATOM      7  C   UNL     1      37.258 -26.425 -12.523  0.00  0.00    -0.101 C 
ATOM      8  H   UNL     1      37.983 -24.951 -13.718  0.00  0.00    -0.080 HD
ENDROOT
BRANCH   2   9
ATOM      9  C   UNL     1      33.945 -23.615 -14.965  0.00  0.00    +0.013 C 
ATOM     10  C   UNL     1      33.369 -24.104 -13.793  0.00  0.00    -0.001 C 
ATOM     11  C   UNL     1      33.147 -23.345 -16.076  0.00  0.00    -0.001 C 
ATOM     12  C   UNL     1      31.994 -24.323 -13.732  0.00  0.00    -0.000 C 
ATOM     13  C   UNL     1      31.771 -23.565 -16.015  0.00  0.00    -0.000 C 
ATOM     14  C   UNL     1      31.194 -24.054 -14.843  0.00  0.00    -0.000 C 
ENDBRANCH   2   9
BRANCH   2  15
ATOM     15  O   UNL     1      35.651 -22.261 -15.920  0.00  0.00    -0.452 OA
BRANCH  15  17
ATOM     16  O   UNL     1      37.954 -22.383 -15.882  0.00  0.00    -0.250 OA
ATOM     17  C   UNL     1      36.902 -22.146 -16.460  0.00  0.00    +0.317 C 
BRANCH  17  18
ATOM     18  C   UNL     1      36.782 -21.681 -17.892  0.00  0.00    +0.110 C 
ATOM     19  C   UNL     1      35.427 -22.016 -18.491  0.00  0.00    +0.012 C 
ENDBRANCH  17  18
ENDBRANCH  15  17
ENDBRANCH   2  15
TORSDOF 4
ENDMDL
MODEL 9
REMARK VINA RESULT:      -6.5      2.143      4.582
REMARK  Name = 61583
REMARK  4 active torsions:
REMARK  status: ('A' for Active; 'I' for Inactive)
REMARK    1  A    between atoms: C_2  and  C_9
REMARK    2  A    between atoms: C_2  and  O_15
REMARK    3  A    between atoms: O_15  and  C_17
REMARK    4  A    between atoms: C_17  and  C_18
REMARK                            x       y       z     vdW  Elec       q    Type
REMARK                         _______ _______ _______ _____ _____    ______ ____
ROOT
ATOM      1  N   UNL     1      34.335  -9.211 -24.454  0.00  0.00    +0.386 N 
ATOM      2  C   UNL     1      32.059  -8.372 -22.731  0.00  0.00    +0.150 C 
ATOM      3  C   UNL     1      33.372  -7.566 -22.868  0.00  0.00    +0.022 C 
ATOM      4  C   UNL     1      31.909  -9.210 -24.022  0.00  0.00    +0.022 C 
ATOM      5  C   UNL     1      34.583  -8.433 -23.234  0.00  0.00    -0.074 C 
ATOM      6  C   UNL     1      33.147 -10.062 -24.312  0.00  0.00    -0.074 C 
ATOM      7  C   UNL     1      35.506 -10.016 -24.797  0.00  0.00    -0.101 C 
ATOM      8  H   UNL     1      34.159  -8.554 -25.214  0.00  0.00    -0.080 HD
ENDROOT
BRANCH   2   9
ATOM      9  C   UNL     1      31.893  -9.210 -21.460  0.00  0.00    +0.013 C 
ATOM     10  C   UNL     1      32.328  -8.708 -20.234  0.00  0.00    -0.001 C 
ATOM     11  C   UNL     1      31.309 -10.474 -21.531  0.00  0.00    -0.001 C 
ATOM     12  C   UNL     1      32.177  -9.471 -19.077  0.00  0.00    -0.000 C 
ATOM     13  C   UNL     1      31.158 -11.236 -20.373  0.00  0.00    -0.000 C 
ATOM     14  C   UNL     1      31.592 -10.735 -19.146  0.00  0.00    -0.000 C 
ENDBRANCH   2   9
BRANCH   2  15
ATOM     15  O   UNL     1      30.989  -7.413 -22.728  0.00  0.00    -0.452 OA
BRANCH  15  17
ATOM     16  O   UNL     1      31.302  -6.244 -24.692  0.00  0.00    -0.250 OA
ATOM     17  C   UNL     1      31.201  -6.285 -23.474  0.00  0.00    +0.317 C 
BRANCH  17  18
ATOM     18  C   UNL     1      31.290  -5.092 -22.552  0.00  0.00    +0.110 C 
ATOM     19  C   UNL     1      30.432  -5.264 -21.310  0.00  0.00    +0.012 C 
ENDBRANCH  17  18
ENDBRANCH  15  17
ENDBRANCH   2  15
TORSDOF 4
ENDMDL
