MODEL 1
REMARK VINA RESULT:      -6.6      0.000      0.000
REMARK  Name = 104904
REMARK  3 active torsions:
REMARK  status: ('A' for Active; 'I' for Inactive)
REMARK    1  A    between atoms: C_4  and  C_14
REMARK    2  A    between atoms: C_8  and  O_11
REMARK    3  A    between atoms: C_14  and  O_15
REMARK                            x       y       z     vdW  Elec       q    Type
REMARK                         _______ _______ _______ _____ _____    ______ ____
ROOT
ATOM      1  N   UNL     1      36.933 -25.774 -13.947  0.00  0.00    +0.389 N 
ATOM      2  C   UNL     1      36.452 -24.451 -14.397  0.00  0.00    -0.045 C 
ATOM      3  C   UNL     1      38.327 -25.500 -13.553  0.00  0.00    -0.056 C 
ATOM      4  C   UNL     1      36.201 -23.594 -13.131  0.00  0.00    +0.107 C 
ATOM      5  C   UNL     1      37.618 -23.895 -15.227  0.00  0.00    -0.022 C 
ATOM      6  C   UNL     1      38.861 -24.586 -14.660  0.00  0.00    -0.023 C 
ATOM      7  C   UNL     1      38.259 -24.782 -12.190  0.00  0.00    +0.009 C 
ATOM      8  C   UNL     1      37.463 -23.469 -12.258  0.00  0.00    +0.117 C 
ATOM      9  C   UNL     1      36.826 -26.800 -14.981  0.00  0.00    -0.100 C 
ATOM     10  H   UNL     1      36.375 -26.161 -13.186  0.00  0.00    -0.080 HD
ENDROOT
BRANCH   8  11
ATOM     11  O   UNL     1      37.140 -23.008 -10.952  0.00  0.00    -0.384 OA
ATOM     12  H   UNL     1      37.180 -22.039 -10.932  0.00  0.00    +0.210 HD
ENDBRANCH   8  11
BRANCH   4  14
ATOM     13  O   UNL     1      35.155 -25.003 -11.473  0.00  0.00    -0.250 OA
ATOM     14  C   UNL     1      35.042 -24.170 -12.363  0.00  0.00    +0.317 C 
BRANCH  14  15
ATOM     15  O   UNL     1      33.878 -23.621 -12.813  0.00  0.00    -0.444 OA
ATOM     16  C   UNL     1      33.040 -24.495 -13.576  0.00  0.00    +0.256 C 
ENDBRANCH  14  15
ENDBRANCH   4  14
TORSDOF 3
ENDMDL
MODEL 2
REMARK VINA RESULT:      -6.4      1.993      3.873
REMARK  Name = 104904
REMARK  3 active torsions:
REMARK  status: ('A' for Active; 'I' for Inactive)
REMARK    1  A    between atoms: C_4  and  C_14
REMARK    2  A    between atoms: C_8  and  O_11
REMARK    3  A    between atoms: C_14  and  O_15
REMARK                            x       y       z     vdW  Elec       q    Type
REMARK                         _______ _______ _______ _____ _____    ______ ____
ROOT
ATOM      1  N   UNL     1      36.966 -23.407 -14.810  0.00  0.00    +0.389 N 
ATOM      2  C   UNL     1      36.967 -24.875 -14.974  0.00  0.00    -0.045 C 
ATOM      3  C   UNL     1      35.641 -23.143 -14.219  0.00  0.00    -0.056 C 
ATOM      4  C   UNL     1      37.180 -25.499 -13.571  0.00  0.00    +0.107 C 
ATOM      5  C   UNL     1      35.567 -25.189 -15.519  0.00  0.00    -0.022 C 
ATOM      6  C   UNL     1      34.687 -24.044 -15.011  0.00  0.00    -0.023 C 
ATOM      7  C   UNL     1      35.736 -23.561 -12.737  0.00  0.00    +0.009 C 
ATOM      8  C   UNL     1      36.103 -25.044 -12.568  0.00  0.00    +0.117 C 
ATOM      9  C   UNL     1      37.179 -22.694 -16.066  0.00  0.00    -0.100 C 
ATOM     10  H   UNL     1      37.733 -23.073 -14.227  0.00  0.00    -0.080 HD
ENDROOT
BRANCH   8  11
ATOM     11  O   UNL     1      36.502 -25.314 -11.230  0.00  0.00    -0.384 OA
ATOM     12  H   UNL     1      36.558 -24.482 -10.734  0.00  0.00    +0.210 HD
ENDBRANCH   8  11
BRANCH   4  14
ATOM     13  O   UNL     1      38.862 -24.159 -12.475  0.00  0.00    -0.250 OA
ATOM     14  C   UNL     1      38.568 -25.177 -13.089  0.00  0.00    +0.317 C 
BRANCH  14  15
ATOM     15  O   UNL     1      39.419 -26.182 -13.442  0.00  0.00    -0.444 OA
ATOM     16  C   UNL     1      40.459 -25.817 -14.355  0.00  0.00    +0.256 C 
ENDBRANCH  14  15
ENDBRANCH   4  14
TORSDOF 3
ENDMDL
MODEL 3
REMARK VINA RESULT:      -6.4      1.472      2.922
REMARK  Name = 104904
REMARK  3 active torsions:
REMARK  status: ('A' for Active; 'I' for Inactive)
REMARK    1  A    between atoms: C_4  and  C_14
REMARK    2  A    between atoms: C_8  and  O_11
REMARK    3  A    between atoms: C_14  and  O_15
REMARK                            x       y       z     vdW  Elec       q    Type
REMARK                         _______ _______ _______ _____ _____    ______ ____
ROOT
ATOM      1  N   UNL     1      38.706 -24.966 -13.794  0.00  0.00    +0.389 N 
ATOM      2  C   UNL     1      37.780 -25.686 -12.895  0.00  0.00    -0.045 C 
ATOM      3  C   UNL     1      37.967 -24.933 -15.069  0.00  0.00    -0.056 C 
ATOM      4  C   UNL     1      36.645 -24.704 -12.513  0.00  0.00    +0.107 C 
ATOM      5  C   UNL     1      37.253 -26.843 -13.755  0.00  0.00    -0.022 C 
ATOM      6  C   UNL     1      37.370 -26.339 -15.196  0.00  0.00    -0.023 C 
ATOM      7  C   UNL     1      36.877 -23.853 -14.912  0.00  0.00    +0.009 C 
ATOM      8  C   UNL     1      35.914 -24.155 -13.753  0.00  0.00    +0.117 C 
ATOM      9  C   UNL     1      40.009 -25.615 -13.909  0.00  0.00    -0.100 C 
ATOM     10  H   UNL     1      38.946 -24.035 -13.452  0.00  0.00    -0.080 HD
ENDROOT
BRANCH   8  11
ATOM     11  O   UNL     1      35.143 -23.005 -13.427  0.00  0.00    -0.384 OA
ATOM     12  H   UNL     1      35.336 -22.296 -14.061  0.00  0.00    +0.210 HD
ENDBRANCH   8  11
BRANCH   4  14
ATOM     13  O   UNL     1      37.933 -22.708 -12.082  0.00  0.00    -0.250 OA
ATOM     14  C   UNL     1      37.209 -23.599 -11.660  0.00  0.00    +0.317 C 
BRANCH  14  15
ATOM     15  O   UNL     1      36.787 -23.757 -10.373  0.00  0.00    -0.444 OA
ATOM     16  C   UNL     1      35.558 -24.473 -10.211  0.00  0.00    +0.256 C 
ENDBRANCH  14  15
ENDBRANCH   4  14
TORSDOF 3
ENDMDL
MODEL 4
REMARK VINA RESULT:      -6.2      2.567      3.999
REMARK  Name = 104904
REMARK  3 active torsions:
REMARK  status: ('A' for Active; 'I' for Inactive)
REMARK    1  A    between atoms: C_4  and  C_14
REMARK    2  A    between atoms: C_8  and  O_11
REMARK    3  A    between atoms: C_14  and  O_15
REMARK                            x       y       z     vdW  Elec       q    Type
REMARK                         _______ _______ _______ _____ _____    ______ ____
ROOT
ATOM      1  N   UNL     1      37.493 -23.563 -12.720  0.00  0.00    +0.389 N 
ATOM      2  C   UNL     1      36.163 -23.606 -13.363  0.00  0.00    -0.045 C 
ATOM      3  C   UNL     1      37.677 -24.948 -12.251  0.00  0.00    -0.056 C 
ATOM      4  C   UNL     1      36.330 -24.322 -14.726  0.00  0.00    +0.107 C 
ATOM      5  C   UNL     1      35.310 -24.436 -12.394  0.00  0.00    -0.022 C 
ATOM      6  C   UNL     1      36.314 -25.332 -11.663  0.00  0.00    -0.023 C 
ATOM      7  C   UNL     1      38.027 -25.786 -13.497  0.00  0.00    +0.009 C 
ATOM      8  C   UNL     1      36.926 -25.734 -14.568  0.00  0.00    +0.117 C 
ATOM      9  C   UNL     1      37.572 -22.582 -11.640  0.00  0.00    -0.100 C 
ATOM     10  H   UNL     1      38.231 -23.259 -13.356  0.00  0.00    -0.080 HD
ENDROOT
BRANCH   8  11
ATOM     11  O   UNL     1      37.409 -26.229 -15.811  0.00  0.00    -0.384 OA
ATOM     12  H   UNL     1      36.849 -26.963 -16.106  0.00  0.00    +0.210 HD
ENDBRANCH   8  11
BRANCH   4  14
ATOM     13  O   UNL     1      38.376 -23.359 -15.570  0.00  0.00    -0.250 OA
ATOM     14  C   UNL     1      37.159 -23.462 -15.642  0.00  0.00    +0.317 C 
BRANCH  14  15
ATOM     15  O   UNL     1      36.345 -22.836 -16.539  0.00  0.00    -0.444 OA
ATOM     16  C   UNL     1      36.982 -21.860 -17.371  0.00  0.00    +0.256 C 
ENDBRANCH  14  15
ENDBRANCH   4  14
TORSDOF 3
ENDMDL
MODEL 5
REMARK VINA RESULT:      -6.0      1.253      1.489
REMARK  Name = 104904
REMARK  3 active torsions:
REMARK  status: ('A' for Active; 'I' for Inactive)
REMARK    1  A    between atoms: C_4  and  C_14
REMARK    2  A    between atoms: C_8  and  O_11
REMARK    3  A    between atoms: C_14  and  O_15
REMARK                            x       y       z     vdW  Elec       q    Type
REMARK                         _______ _______ _______ _____ _____    ______ ____
ROOT
ATOM      1  N   UNL     1      37.153 -25.819 -14.012  0.00  0.00    +0.389 N 
ATOM      2  C   UNL     1      37.539 -24.607 -14.766  0.00  0.00    -0.045 C 
ATOM      3  C   UNL     1      38.181 -25.891 -12.958  0.00  0.00    -0.056 C 
ATOM      4  C   UNL     1      37.126 -23.381 -13.915  0.00  0.00    +0.107 C 
ATOM      5  C   UNL     1      39.065 -24.716 -14.888  0.00  0.00    -0.022 C 
ATOM      6  C   UNL     1      39.491 -25.561 -13.684  0.00  0.00    -0.023 C 
ATOM      7  C   UNL     1      37.810 -24.818 -11.915  0.00  0.00    +0.009 C 
ATOM      8  C   UNL     1      37.771 -23.404 -12.516  0.00  0.00    +0.117 C 
ATOM      9  C   UNL     1      37.108 -27.017 -14.846  0.00  0.00    -0.100 C 
ATOM     10  H   UNL     1      36.206 -25.767 -13.638  0.00  0.00    -0.080 HD
ENDROOT
BRANCH   8  11
ATOM     11  O   UNL     1      37.117 -22.500 -11.634  0.00  0.00    -0.384 OA
ATOM     12  H   UNL     1      37.371 -21.591 -11.856  0.00  0.00    +0.210 HD
ENDBRANCH   8  11
BRANCH   4  14
ATOM     13  O   UNL     1      34.959 -23.807 -12.940  0.00  0.00    -0.250 OA
ATOM     14  C   UNL     1      35.624 -23.310 -13.839  0.00  0.00    +0.317 C 
BRANCH  14  15
ATOM     15  O   UNL     1      35.145 -22.618 -14.912  0.00  0.00    -0.444 OA
ATOM     16  C   UNL     1      34.165 -23.302 -15.698  0.00  0.00    +0.256 C 
ENDBRANCH  14  15
ENDBRANCH   4  14
TORSDOF 3
ENDMDL
MODEL 6
REMARK VINA RESULT:      -6.0      2.477      4.319
REMARK  Name = 104904
REMARK  3 active torsions:
REMARK  status: ('A' for Active; 'I' for Inactive)
REMARK    1  A    between atoms: C_4  and  C_14
REMARK    2  A    between atoms: C_8  and  O_11
REMARK    3  A    between atoms: C_14  and  O_15
REMARK                            x       y       z     vdW  Elec       q    Type
REMARK                         _______ _______ _______ _____ _____    ______ ____
ROOT
ATOM      1  N   UNL     1      36.814 -23.864 -13.109  0.00  0.00    +0.389 N 
ATOM      2  C   UNL     1      37.738 -23.889 -14.261  0.00  0.00    -0.045 C 
ATOM      3  C   UNL     1      35.496 -23.691 -13.748  0.00  0.00    -0.056 C 
ATOM      4  C   UNL     1      37.595 -25.274 -14.941  0.00  0.00    +0.107 C 
ATOM      5  C   UNL     1      37.227 -22.764 -15.171  0.00  0.00    -0.022 C 
ATOM      6  C   UNL     1      35.739 -22.639 -14.835  0.00  0.00    -0.023 C 
ATOM      7  C   UNL     1      35.119 -25.063 -14.342  0.00  0.00    +0.009 C 
ATOM      8  C   UNL     1      36.144 -25.557 -15.375  0.00  0.00    +0.117 C 
ATOM      9  C   UNL     1      37.125 -22.805 -12.152  0.00  0.00    -0.100 C 
ATOM     10  H   UNL     1      36.869 -24.708 -12.538  0.00  0.00    -0.080 HD
ENDROOT
BRANCH   8  11
ATOM     11  O   UNL     1      35.952 -26.939 -15.653  0.00  0.00    -0.384 OA
ATOM     12  H   UNL     1      35.353 -27.036 -16.410  0.00  0.00    +0.210 HD
ENDBRANCH   8  11
BRANCH   4  14
ATOM     13  O   UNL     1      37.573 -26.677 -12.977  0.00  0.00    -0.250 OA
ATOM     14  C   UNL     1      38.122 -26.339 -14.018  0.00  0.00    +0.317 C 
BRANCH  14  15
ATOM     15  O   UNL     1      39.282 -26.847 -14.523  0.00  0.00    -0.444 OA
ATOM     16  C   UNL     1      40.354 -25.909 -14.667  0.00  0.00    +0.256 C 
ENDBRANCH  14  15
ENDBRANCH   4  14
TORSDOF 3
ENDMDL
MODEL 7
REMARK VINA RESULT:      -5.9     11.104     12.363
REMARK  Name = 104904
REMARK  3 active torsions:
REMARK  status: ('A' for Active; 'I' for Inactive)
REMARK    1  A    between atoms: C_4  and  C_14
REMARK    2  A    between atoms: C_8  and  O_11
REMARK    3  A    between atoms: C_14  and  O_15
REMARK                            x       y       z     vdW  Elec       q    Type
REMARK                         _______ _______ _______ _____ _____    ______ ____
ROOT
ATOM      1  N   UNL     1      34.539 -18.439 -23.217  0.00  0.00    +0.389 N 
ATOM      2  C   UNL     1      35.735 -17.603 -22.982  0.00  0.00    -0.045 C 
ATOM      3  C   UNL     1      34.233 -18.959 -21.872  0.00  0.00    -0.056 C 
ATOM      4  C   UNL     1      35.261 -16.296 -22.299  0.00  0.00    +0.107 C 
ATOM      5  C   UNL     1      36.598 -18.448 -22.036  0.00  0.00    -0.022 C 
ATOM      6  C   UNL     1      35.600 -19.341 -21.294  0.00  0.00    -0.023 C 
ATOM      7  C   UNL     1      33.579 -17.798 -21.095  0.00  0.00    +0.009 C 
ATOM      8  C   UNL     1      34.500 -16.572 -20.989  0.00  0.00    +0.117 C 
ATOM      9  C   UNL     1      34.767 -19.497 -24.197  0.00  0.00    -0.100 C 
ATOM     10  H   UNL     1      33.764 -17.916 -23.624  0.00  0.00    -0.080 HD
ENDROOT
BRANCH   8  11
ATOM     11  O   UNL     1      33.767 -15.428 -20.570  0.00  0.00    -0.384 OA
ATOM     12  H   UNL     1      33.318 -15.619 -19.731  0.00  0.00    +0.210 HD
ENDBRANCH   8  11
BRANCH   4  14
ATOM     13  O   UNL     1      33.848 -15.981 -24.231  0.00  0.00    -0.250 OA
ATOM     14  C   UNL     1      34.433 -15.498 -23.271  0.00  0.00    +0.317 C 
BRANCH  14  15
ATOM     15  O   UNL     1      34.447 -14.183 -22.909  0.00  0.00    -0.444 OA
ATOM     16  C   UNL     1      33.686 -13.307 -23.746  0.00  0.00    +0.256 C 
ENDBRANCH  14  15
ENDBRANCH   4  14
TORSDOF 3
ENDMDL
MODEL 8
REMARK VINA RESULT:      -5.9      1.959      3.228
REMARK  Name = 104904
REMARK  3 active torsions:
REMARK  status: ('A' for Active; 'I' for Inactive)
REMARK    1  A    between atoms: C_4  and  C_14
REMARK    2  A    between atoms: C_8  and  O_11
REMARK    3  A    between atoms: C_14  and  O_15
REMARK                            x       y       z     vdW  Elec       q    Type
REMARK                         _______ _______ _______ _____ _____    ______ ____
ROOT
ATOM      1  N   UNL     1      34.839 -24.720 -13.858  0.00  0.00    +0.389 N 
ATOM      2  C   UNL     1      35.845 -23.685 -13.541  0.00  0.00    -0.045 C 
ATOM      3  C   UNL     1      35.202 -25.122 -15.229  0.00  0.00    -0.056 C 
ATOM      4  C   UNL     1      37.183 -24.411 -13.253  0.00  0.00    +0.107 C 
ATOM      5  C   UNL     1      35.928 -22.844 -14.821  0.00  0.00    -0.022 C 
ATOM      6  C   UNL     1      35.510 -23.800 -15.942  0.00  0.00    -0.023 C 
ATOM      7  C   UNL     1      36.452 -26.017 -15.103  0.00  0.00    +0.009 C 
ATOM      8  C   UNL     1      37.631 -25.288 -14.438  0.00  0.00    +0.117 C 
ATOM      9  C   UNL     1      33.467 -24.231 -13.754  0.00  0.00    -0.100 C 
ATOM     10  H   UNL     1      34.852 -25.500 -13.201  0.00  0.00    -0.080 HD
ENDROOT
BRANCH   8  11
ATOM     11  O   UNL     1      38.634 -26.214 -14.040  0.00  0.00    -0.384 OA
ATOM     12  H   UNL     1      38.824 -26.820 -14.773  0.00  0.00    +0.210 HD
ENDBRANCH   8  11
BRANCH   4  14
ATOM     13  O   UNL     1      36.980 -26.429 -11.943  0.00  0.00    -0.250 OA
ATOM     14  C   UNL     1      37.054 -25.208 -11.982  0.00  0.00    +0.317 C 
BRANCH  14  15
ATOM     15  O   UNL     1      37.034 -24.362 -10.913  0.00  0.00    -0.444 OA
ATOM     16  C   UNL     1      35.787 -24.282 -10.215  0.00  0.00    +0.256 C 
ENDBRANCH  14  15
ENDBRANCH   4  14
TORSDOF 3
ENDMDL
MODEL 9
REMARK VINA RESULT:      -5.9     10.627     12.029
REMARK  Name = 104904
REMARK  3 active torsions:
REMARK  status: ('A' for Active; 'I' for Inactive)
REMARK    1  A    between atoms: C_4  and  C_14
REMARK    2  A    between atoms: C_8  and  O_11
REMARK    3  A    between atoms: C_14  and  O_15
REMARK                            x       y       z     vdW  Elec       q    Type
REMARK                         _______ _______ _______ _____ _____    ______ ____
ROOT
ATOM      1  N   UNL     1      33.124 -16.184 -21.377  0.00  0.00    +0.389 N 
ATOM      2  C   UNL     1      34.431 -16.131 -20.690  0.00  0.00    -0.045 C 
ATOM      3  C   UNL     1      33.398 -15.507 -22.657  0.00  0.00    -0.056 C 
ATOM      4  C   UNL     1      35.347 -17.189 -21.354  0.00  0.00    +0.107 C 
ATOM      5  C   UNL     1      34.934 -14.707 -20.960  0.00  0.00    -0.022 C 
ATOM      6  C   UNL     1      34.255 -14.296 -22.269  0.00  0.00    -0.023 C 
ATOM      7  C   UNL     1      34.178 -16.515 -23.524  0.00  0.00    +0.009 C 
ATOM      8  C   UNL     1      35.497 -16.956 -22.869  0.00  0.00    +0.117 C 
ATOM      9  C   UNL     1      32.054 -15.547 -20.615  0.00  0.00    -0.100 C 
ATOM     10  H   UNL     1      32.779 -17.137 -21.500  0.00  0.00    -0.080 HD
ENDROOT
BRANCH   8  11
ATOM     11  O   UNL     1      36.020 -18.109 -23.517  0.00  0.00    -0.384 OA
ATOM     12  H   UNL     1      36.231 -18.785 -22.853  0.00  0.00    +0.210 HD
ENDBRANCH   8  11
BRANCH   4  14
ATOM     13  O   UNL     1      33.677 -18.931 -21.283  0.00  0.00    -0.250 OA
ATOM     14  C   UNL     1      34.821 -18.566 -21.047  0.00  0.00    +0.317 C 
BRANCH  14  15
ATOM     15  O   UNL     1      35.808 -19.316 -20.479  0.00  0.00    -0.444 OA
ATOM     16  C   UNL     1      35.495 -20.698 -20.280  0.00  0.00    +0.256 C 
ENDBRANCH  14  15
ENDBRANCH   4  14
TORSDOF 3
ENDMDL
