MODEL 1
REMARK VINA RESULT:      -8.8      0.000      0.000
REMARK  Name = 6475
REMARK  6 active torsions:
REMARK  status: ('A' for Active; 'I' for Inactive)
REMARK    1  A    between atoms: C_1  and  C_4
REMARK    2  A    between atoms: C_1  and  C_10
REMARK    3  A    between atoms: C_1  and  O_16
REMARK    4  A    between atoms: O_16  and  C_17
REMARK    5  A    between atoms: C_17  and  C_18
REMARK    6  A    between atoms: C_18  and  N_19
REMARK                            x       y       z     vdW  Elec       q    Type
REMARK                         _______ _______ _______ _____ _____    ______ ____
ROOT
ATOM      1  C   UNL     1      34.824 -18.451 -21.827  0.00  0.00    +0.130 C 
ATOM      2  C   UNL     1      36.324 -18.193 -22.077  0.00  0.00    +0.039 C 
ENDROOT
BRANCH   1   4
ATOM      3 CL   UNL     1      33.622 -23.149 -18.290  0.00  0.00    -0.082 Cl
ATOM      4  C   UNL     1      34.517 -19.651 -20.925  0.00  0.00    +0.006 C 
ATOM      5  C   UNL     1      33.202 -19.974 -20.687  0.00  0.00    -0.001 C 
ATOM      6  C   UNL     1      35.569 -20.356 -20.389  0.00  0.00    -0.001 C 
ATOM      7  C   UNL     1      32.923 -21.066 -19.865  0.00  0.00    +0.011 C 
ATOM      8  C   UNL     1      35.290 -21.447 -19.566  0.00  0.00    +0.011 C 
ATOM      9  C   UNL     1      33.966 -21.802 -19.304  0.00  0.00    +0.058 C 
ENDBRANCH   1   4
BRANCH   1  10
ATOM     10  C   UNL     1      34.179 -17.170 -21.286  0.00  0.00    +0.006 C 
ATOM     11  C   UNL     1      35.000 -16.149 -20.872  0.00  0.00    -0.002 C 
ATOM     12  C   UNL     1      32.808 -17.095 -21.240  0.00  0.00    -0.002 C 
ATOM     13  C   UNL     1      34.414 -14.982 -20.381  0.00  0.00    -0.000 C 
ATOM     14  C   UNL     1      32.222 -15.928 -20.749  0.00  0.00    -0.000 C 
ATOM     15  C   UNL     1      33.025 -14.871 -20.319  0.00  0.00    -0.000 C 
ENDBRANCH   1  10
BRANCH   1  16
ATOM     16  O   UNL     1      34.307 -18.752 -23.117  0.00  0.00    -0.353 OA
BRANCH  16  17
ATOM     17  C   UNL     1      34.988 -18.029 -24.134  0.00  0.00    +0.120 C 
BRANCH  17  18
ATOM     18  C   UNL     1      33.974 -17.563 -25.165  0.00  0.00    -0.045 C 
BRANCH  18  19
ATOM     19  N   UNL     1      34.139 -16.136 -25.443  0.00  0.00    +0.386 N 
ATOM     20  C   UNL     1      34.147 -15.371 -24.196  0.00  0.00    -0.101 C 
ATOM     21  C   UNL     1      33.076 -15.661 -26.328  0.00  0.00    -0.101 C 
ATOM     22  H   UNL     1      35.035 -16.000 -25.911  0.00  0.00    -0.080 HD
ENDBRANCH  18  19
ENDBRANCH  17  18
ENDBRANCH  16  17
ENDBRANCH   1  16
TORSDOF 6
ENDMDL
MODEL 2
REMARK VINA RESULT:      -8.0      6.669      9.568
REMARK  Name = 6475
REMARK  6 active torsions:
REMARK  status: ('A' for Active; 'I' for Inactive)
REMARK    1  A    between atoms: C_1  and  C_4
REMARK    2  A    between atoms: C_1  and  C_10
REMARK    3  A    between atoms: C_1  and  O_16
REMARK    4  A    between atoms: O_16  and  C_17
REMARK    5  A    between atoms: C_17  and  C_18
REMARK    6  A    between atoms: C_18  and  N_19
REMARK                            x       y       z     vdW  Elec       q    Type
REMARK                         _______ _______ _______ _____ _____    ______ ____
ROOT
ATOM      1  C   UNL     1      34.814 -23.475 -15.708  0.00  0.00    +0.130 C 
ATOM      2  C   UNL     1      35.618 -23.109 -14.444  0.00  0.00    +0.039 C 
ENDROOT
BRANCH   1   4
ATOM      3 CL   UNL     1      28.874 -22.765 -15.219  0.00  0.00    -0.082 Cl
ATOM      4  C   UNL     1      33.298 -23.295 -15.584  0.00  0.00    +0.006 C 
ATOM      5  C   UNL     1      32.540 -23.294 -16.731  0.00  0.00    -0.001 C 
ATOM      6  C   UNL     1      32.756 -23.142 -14.329  0.00  0.00    -0.001 C 
ATOM      7  C   UNL     1      31.160 -23.128 -16.617  0.00  0.00    +0.011 C 
ATOM      8  C   UNL     1      31.375 -22.976 -14.215  0.00  0.00    +0.011 C 
ATOM      9  C   UNL     1      30.577 -22.969 -15.360  0.00  0.00    +0.058 C 
ENDBRANCH   1   4
BRANCH   1  10
ATOM     10  C   UNL     1      35.371 -22.689 -16.900  0.00  0.00    +0.006 C 
ATOM     11  C   UNL     1      34.638 -22.652 -18.060  0.00  0.00    -0.002 C 
ATOM     12  C   UNL     1      36.581 -22.052 -16.758  0.00  0.00    -0.002 C 
ATOM     13  C   UNL     1      35.143 -21.935 -19.145  0.00  0.00    -0.000 C 
ATOM     14  C   UNL     1      37.087 -21.336 -17.842  0.00  0.00    -0.000 C 
ATOM     15  C   UNL     1      36.368 -21.277 -19.037  0.00  0.00    -0.000 C 
ENDBRANCH   1  10
BRANCH   1  16
ATOM     16  O   UNL     1      35.059 -24.865 -15.882  0.00  0.00    -0.353 OA
BRANCH  16  17
ATOM     17  C   UNL     1      35.704 -25.428 -14.747  0.00  0.00    +0.120 C 
BRANCH  17  18
ATOM     18  C   UNL     1      36.715 -26.459 -15.220  0.00  0.00    -0.045 C 
BRANCH  18  19
ATOM     19  N   UNL     1      37.759 -26.658 -14.215  0.00  0.00    +0.386 N 
ATOM     20  C   UNL     1      37.270 -26.278 -12.889  0.00  0.00    -0.101 C 
ATOM     21  C   UNL     1      38.954 -25.889 -14.560  0.00  0.00    -0.101 C 
ATOM     22  H   UNL     1      38.005 -27.648 -14.196  0.00  0.00    -0.080 HD
ENDBRANCH  18  19
ENDBRANCH  17  18
ENDBRANCH  16  17
ENDBRANCH   1  16
TORSDOF 6
ENDMDL
MODEL 3
REMARK VINA RESULT:      -8.0      6.531      9.430
REMARK  Name = 6475
REMARK  6 active torsions:
REMARK  status: ('A' for Active; 'I' for Inactive)
REMARK    1  A    between atoms: C_1  and  C_4
REMARK    2  A    between atoms: C_1  and  C_10
REMARK    3  A    between atoms: C_1  and  O_16
REMARK    4  A    between atoms: O_16  and  C_17
REMARK    5  A    between atoms: C_17  and  C_18
REMARK    6  A    between atoms: C_18  and  N_19
REMARK                            x       y       z     vdW  Elec       q    Type
REMARK                         _______ _______ _______ _____ _____    ______ ____
ROOT
ATOM      1  C   UNL     1      34.828 -23.373 -15.869  0.00  0.00    +0.130 C 
ATOM      2  C   UNL     1      35.679 -22.905 -14.671  0.00  0.00    +0.039 C 
ENDROOT
BRANCH   1   4
ATOM      3 CL   UNL     1      28.897 -22.841 -15.122  0.00  0.00    -0.082 Cl
ATOM      4  C   UNL     1      33.315 -23.239 -15.679  0.00  0.00    +0.006 C 
ATOM      5  C   UNL     1      32.507 -23.273 -16.791  0.00  0.00    -0.001 C 
ATOM      6  C   UNL     1      32.824 -23.087 -14.403  0.00  0.00    -0.001 C 
ATOM      7  C   UNL     1      31.128 -23.149 -16.617  0.00  0.00    +0.011 C 
ATOM      8  C   UNL     1      31.445 -22.963 -14.229  0.00  0.00    +0.011 C 
ATOM      9  C   UNL     1      30.598 -22.994 -15.336  0.00  0.00    +0.058 C 
ENDBRANCH   1   4
BRANCH   1  10
ATOM     10  C   UNL     1      35.297 -22.641 -17.132  0.00  0.00    +0.006 C 
ATOM     11  C   UNL     1      36.517 -22.010 -17.107  0.00  0.00    -0.002 C 
ATOM     12  C   UNL     1      34.478 -22.647 -18.236  0.00  0.00    -0.002 C 
ATOM     13  C   UNL     1      36.945 -21.344 -18.256  0.00  0.00    -0.000 C 
ATOM     14  C   UNL     1      34.906 -21.981 -19.384  0.00  0.00    -0.000 C 
ATOM     15  C   UNL     1      36.140 -21.329 -19.395  0.00  0.00    -0.000 C 
ENDBRANCH   1  10
BRANCH   1  16
ATOM     16  O   UNL     1      35.117 -24.762 -15.975  0.00  0.00    -0.353 OA
BRANCH  16  17
ATOM     17  C   UNL     1      35.784 -25.245 -14.817  0.00  0.00    +0.120 C 
BRANCH  17  18
ATOM     18  C   UNL     1      36.621 -26.454 -15.204  0.00  0.00    -0.045 C 
BRANCH  18  19
ATOM     19  N   UNL     1      37.688 -26.676 -14.229  0.00  0.00    +0.386 N 
ATOM     20  C   UNL     1      37.249 -26.281 -12.891  0.00  0.00    -0.101 C 
ATOM     21  C   UNL     1      38.892 -25.939 -14.611  0.00  0.00    -0.101 C 
ATOM     22  H   UNL     1      37.910 -27.672 -14.214  0.00  0.00    -0.080 HD
ENDBRANCH  18  19
ENDBRANCH  17  18
ENDBRANCH  16  17
ENDBRANCH   1  16
TORSDOF 6
ENDMDL
MODEL 4
REMARK VINA RESULT:      -7.9      7.866     10.407
REMARK  Name = 6475
REMARK  6 active torsions:
REMARK  status: ('A' for Active; 'I' for Inactive)
REMARK    1  A    between atoms: C_1  and  C_4
REMARK    2  A    between atoms: C_1  and  C_10
REMARK    3  A    between atoms: C_1  and  O_16
REMARK    4  A    between atoms: O_16  and  C_17
REMARK    5  A    between atoms: C_17  and  C_18
REMARK    6  A    between atoms: C_18  and  N_19
REMARK                            x       y       z     vdW  Elec       q    Type
REMARK                         _______ _______ _______ _____ _____    ______ ____
ROOT
ATOM      1  C   UNL     1      33.596  -7.921 -23.583  0.00  0.00    +0.130 C 
ATOM      2  C   UNL     1      35.044  -7.472 -23.303  0.00  0.00    +0.039 C 
ENDROOT
BRANCH   1   4
ATOM      3 CL   UNL     1      30.812 -10.529 -18.950  0.00  0.00    -0.082 Cl
ATOM      4  C   UNL     1      32.885  -8.586 -22.401  0.00  0.00    +0.006 C 
ATOM      5  C   UNL     1      33.027  -8.030 -21.152  0.00  0.00    -0.001 C 
ATOM      6  C   UNL     1      32.133  -9.713 -22.637  0.00  0.00    -0.001 C 
ATOM      7  C   UNL     1      32.380  -8.636 -20.075  0.00  0.00    +0.011 C 
ATOM      8  C   UNL     1      31.486 -10.320 -21.559  0.00  0.00    +0.011 C 
ATOM      9  C   UNL     1      31.610  -9.781 -20.278  0.00  0.00    +0.058 C 
ENDBRANCH   1   4
BRANCH   1  10
ATOM     10  C   UNL     1      32.795  -6.725 -24.113  0.00  0.00    +0.006 C 
ATOM     11  C   UNL     1      31.587  -6.437 -23.528  0.00  0.00    -0.002 C 
ATOM     12  C   UNL     1      33.321  -5.991 -25.149  0.00  0.00    -0.002 C 
ATOM     13  C   UNL     1      30.858  -5.348 -24.008  0.00  0.00    -0.000 C 
ATOM     14  C   UNL     1      32.593  -4.903 -25.629  0.00  0.00    -0.000 C 
ATOM     15  C   UNL     1      31.361  -4.581 -25.059  0.00  0.00    -0.000 C 
ENDBRANCH   1  10
BRANCH   1  16
ATOM     16  O   UNL     1      33.731  -8.907 -24.600  0.00  0.00    -0.353 OA
BRANCH  16  17
ATOM     17  C   UNL     1      34.965  -9.604 -24.489  0.00  0.00    +0.120 C 
BRANCH  17  18
ATOM     18  C   UNL     1      34.980 -10.734 -25.506  0.00  0.00    -0.045 C 
BRANCH  18  19
ATOM     19  N   UNL     1      33.794 -11.577 -25.358  0.00  0.00    +0.386 N 
ATOM     20  C   UNL     1      33.901 -12.404 -24.156  0.00  0.00    -0.101 C 
ATOM     21  C   UNL     1      33.613 -12.416 -26.543  0.00  0.00    -0.101 C 
ATOM     22  H   UNL     1      32.978 -10.973 -25.262  0.00  0.00    -0.080 HD
ENDBRANCH  18  19
ENDBRANCH  17  18
ENDBRANCH  16  17
ENDBRANCH   1  16
TORSDOF 6
ENDMDL
MODEL 5
REMARK VINA RESULT:      -7.6      6.618     10.283
REMARK  Name = 6475
REMARK  6 active torsions:
REMARK  status: ('A' for Active; 'I' for Inactive)
REMARK    1  A    between atoms: C_1  and  C_4
REMARK    2  A    between atoms: C_1  and  C_10
REMARK    3  A    between atoms: C_1  and  O_16
REMARK    4  A    between atoms: O_16  and  C_17
REMARK    5  A    between atoms: C_17  and  C_18
REMARK    6  A    between atoms: C_18  and  N_19
REMARK                            x       y       z     vdW  Elec       q    Type
REMARK                         _______ _______ _______ _____ _____    ______ ____
ROOT
ATOM      1  C   UNL     1      35.048 -23.832 -14.961  0.00  0.00    +0.130 C 
ATOM      2  C   UNL     1      34.937 -22.898 -13.740  0.00  0.00    +0.039 C 
ENDROOT
BRANCH   1   4
ATOM      3 CL   UNL     1      35.469 -21.034 -20.255  0.00  0.00    -0.082 Cl
ATOM      4  C   UNL     1      35.157 -23.119 -16.313  0.00  0.00    +0.006 C 
ATOM      5  C   UNL     1      36.331 -22.476 -16.625  0.00  0.00    -0.001 C 
ATOM      6  C   UNL     1      34.073 -23.149 -17.160  0.00  0.00    -0.001 C 
ATOM      7  C   UNL     1      36.429 -21.826 -17.854  0.00  0.00    +0.011 C 
ATOM      8  C   UNL     1      34.170 -22.497 -18.390  0.00  0.00    +0.011 C 
ATOM      9  C   UNL     1      35.349 -21.836 -18.737  0.00  0.00    +0.058 C 
ENDBRANCH   1   4
BRANCH   1  10
ATOM     10  C   UNL     1      36.219 -24.798 -14.747  0.00  0.00    +0.006 C 
ATOM     11  C   UNL     1      36.157 -26.040 -15.329  0.00  0.00    -0.002 C 
ATOM     12  C   UNL     1      37.282 -24.379 -13.983  0.00  0.00    -0.002 C 
ATOM     13  C   UNL     1      37.223 -26.919 -15.135  0.00  0.00    -0.000 C 
ATOM     14  C   UNL     1      38.348 -25.258 -13.790  0.00  0.00    -0.000 C 
ATOM     15  C   UNL     1      38.318 -26.529 -14.365  0.00  0.00    -0.000 C 
ENDBRANCH   1  10
BRANCH   1  16
ATOM     16  O   UNL     1      33.819 -24.547 -14.962  0.00  0.00    -0.353 OA
BRANCH  16  17
ATOM     17  C   UNL     1      33.110 -24.367 -13.742  0.00  0.00    +0.120 C 
BRANCH  17  18
ATOM     18  C   UNL     1      31.752 -25.039 -13.863  0.00  0.00    -0.045 C 
BRANCH  18  19
ATOM     19  N   UNL     1      30.962 -24.419 -14.926  0.00  0.00    +0.386 N 
ATOM     20  C   UNL     1      30.734 -23.004 -14.635  0.00  0.00    -0.101 C 
ATOM     21  C   UNL     1      29.689 -25.119 -15.091  0.00  0.00    -0.101 C 
ATOM     22  H   UNL     1      31.485 -24.489 -15.800  0.00  0.00    -0.080 HD
ENDBRANCH  18  19
ENDBRANCH  17  18
ENDBRANCH  16  17
ENDBRANCH   1  16
TORSDOF 6
ENDMDL
MODEL 6
REMARK VINA RESULT:      -7.6      8.710     10.943
REMARK  Name = 6475
REMARK  6 active torsions:
REMARK  status: ('A' for Active; 'I' for Inactive)
REMARK    1  A    between atoms: C_1  and  C_4
REMARK    2  A    between atoms: C_1  and  C_10
REMARK    3  A    between atoms: C_1  and  O_16
REMARK    4  A    between atoms: O_16  and  C_17
REMARK    5  A    between atoms: C_17  and  C_18
REMARK    6  A    between atoms: C_18  and  N_19
REMARK                            x       y       z     vdW  Elec       q    Type
REMARK                         _______ _______ _______ _____ _____    ______ ____
ROOT
ATOM      1  C   UNL     1      32.224  -8.267 -22.174  0.00  0.00    +0.130 C 
ATOM      2  C   UNL     1      32.690  -6.991 -21.445  0.00  0.00    +0.039 C 
ENDROOT
BRANCH   1   4
ATOM      3 CL   UNL     1      36.078 -10.418 -26.241  0.00  0.00    -0.082 Cl
ATOM      4  C   UNL     1      33.208  -8.816 -23.211  0.00  0.00    +0.006 C 
ATOM      5  C   UNL     1      34.174  -7.975 -23.710  0.00  0.00    -0.001 C 
ATOM      6  C   UNL     1      33.085 -10.129 -23.602  0.00  0.00    -0.001 C 
ATOM      7  C   UNL     1      35.069  -8.474 -24.655  0.00  0.00    +0.011 C 
ATOM      8  C   UNL     1      33.980 -10.629 -24.549  0.00  0.00    +0.011 C 
ATOM      9  C   UNL     1      34.973  -9.801 -25.075  0.00  0.00    +0.058 C 
ENDBRANCH   1   4
BRANCH   1  10
ATOM     10  C   UNL     1      31.862  -9.333 -21.132  0.00  0.00    +0.006 C 
ATOM     11  C   UNL     1      31.121 -10.417 -21.535  0.00  0.00    -0.002 C 
ATOM     12  C   UNL     1      32.297  -9.160 -19.840  0.00  0.00    -0.002 C 
ATOM     13  C   UNL     1      30.793 -11.387 -20.589  0.00  0.00    -0.000 C 
ATOM     14  C   UNL     1      31.969 -10.131 -18.894  0.00  0.00    -0.000 C 
ATOM     15  C   UNL     1      31.216 -11.245 -19.268  0.00  0.00    -0.000 C 
ENDBRANCH   1  10
BRANCH   1  16
ATOM     16  O   UNL     1      31.058  -7.857 -22.877  0.00  0.00    -0.353 OA
BRANCH  16  17
ATOM     17  C   UNL     1      30.922  -6.442 -22.881  0.00  0.00    +0.120 C 
BRANCH  17  18
ATOM     18  C   UNL     1      30.933  -5.954 -24.320  0.00  0.00    -0.045 C 
BRANCH  18  19
ATOM     19  N   UNL     1      30.791  -4.499 -24.373  0.00  0.00    +0.386 N 
ATOM     20  C   UNL     1      31.574  -3.949 -25.480  0.00  0.00    -0.101 C 
ATOM     21  C   UNL     1      31.204  -3.898 -23.106  0.00  0.00    -0.101 C 
ATOM     22  H   UNL     1      29.808  -4.276 -24.532  0.00  0.00    -0.080 HD
ENDBRANCH  18  19
ENDBRANCH  17  18
ENDBRANCH  16  17
ENDBRANCH   1  16
TORSDOF 6
ENDMDL
MODEL 7
REMARK VINA RESULT:      -7.6      6.830     10.337
REMARK  Name = 6475
REMARK  6 active torsions:
REMARK  status: ('A' for Active; 'I' for Inactive)
REMARK    1  A    between atoms: C_1  and  C_4
REMARK    2  A    between atoms: C_1  and  C_10
REMARK    3  A    between atoms: C_1  and  O_16
REMARK    4  A    between atoms: O_16  and  C_17
REMARK    5  A    between atoms: C_17  and  C_18
REMARK    6  A    between atoms: C_18  and  N_19
REMARK                            x       y       z     vdW  Elec       q    Type
REMARK                         _______ _______ _______ _____ _____    ______ ____
ROOT
ATOM      1  C   UNL     1      35.255 -23.961 -14.741  0.00  0.00    +0.130 C 
ATOM      2  C   UNL     1      35.093 -23.042 -13.513  0.00  0.00    +0.039 C 
ENDROOT
BRANCH   1   4
ATOM      3 CL   UNL     1      35.309 -21.134 -20.035  0.00  0.00    -0.082 Cl
ATOM      4  C   UNL     1      35.267 -23.239 -16.091  0.00  0.00    +0.006 C 
ATOM      5  C   UNL     1      34.143 -23.299 -16.880  0.00  0.00    -0.001 C 
ATOM      6  C   UNL     1      36.405 -22.559 -16.462  0.00  0.00    -0.001 C 
ATOM      7  C   UNL     1      34.156 -22.643 -18.110  0.00  0.00    +0.011 C 
ATOM      8  C   UNL     1      36.418 -21.903 -17.693  0.00  0.00    +0.011 C 
ATOM      9  C   UNL     1      35.293 -21.945 -18.517  0.00  0.00    +0.058 C 
ENDBRANCH   1   4
BRANCH   1  10
ATOM     10  C   UNL     1      36.511 -24.822 -14.559  0.00  0.00    +0.006 C 
ATOM     11  C   UNL     1      37.551 -24.313 -13.821  0.00  0.00    -0.002 C 
ATOM     12  C   UNL     1      36.542 -26.067 -15.140  0.00  0.00    -0.002 C 
ATOM     13  C   UNL     1      38.694 -25.095 -13.654  0.00  0.00    -0.000 C 
ATOM     14  C   UNL     1      37.685 -26.849 -14.973  0.00  0.00    -0.000 C 
ATOM     15  C   UNL     1      38.761 -26.363 -14.230  0.00  0.00    -0.000 C 
ENDBRANCH   1  10
BRANCH   1  16
ATOM     16  O   UNL     1      34.093 -24.781 -14.713  0.00  0.00    -0.353 OA
BRANCH  16  17
ATOM     17  C   UNL     1      33.207 -24.395 -13.671  0.00  0.00    +0.120 C 
BRANCH  17  18
ATOM     18  C   UNL     1      31.857 -25.051 -13.909  0.00  0.00    -0.045 C 
BRANCH  18  19
ATOM     19  N   UNL     1      30.794 -24.047 -13.942  0.00  0.00    +0.386 N 
ATOM     20  C   UNL     1      29.623 -24.565 -14.648  0.00  0.00    -0.101 C 
ATOM     21  C   UNL     1      31.271 -22.818 -14.574  0.00  0.00    -0.101 C 
ATOM     22  H   UNL     1      30.523 -23.833 -12.981  0.00  0.00    -0.080 HD
ENDBRANCH  18  19
ENDBRANCH  17  18
ENDBRANCH  16  17
ENDBRANCH   1  16
TORSDOF 6
ENDMDL
MODEL 8
REMARK VINA RESULT:      -7.2      3.955      6.681
REMARK  Name = 6475
REMARK  6 active torsions:
REMARK  status: ('A' for Active; 'I' for Inactive)
REMARK    1  A    between atoms: C_1  and  C_4
REMARK    2  A    between atoms: C_1  and  C_10
REMARK    3  A    between atoms: C_1  and  O_16
REMARK    4  A    between atoms: O_16  and  C_17
REMARK    5  A    between atoms: C_17  and  C_18
REMARK    6  A    between atoms: C_18  and  N_19
REMARK                            x       y       z     vdW  Elec       q    Type
REMARK                         _______ _______ _______ _____ _____    ______ ____
ROOT
ATOM      1  C   UNL     1      33.917 -15.216 -21.947  0.00  0.00    +0.130 C 
ATOM      2  C   UNL     1      34.896 -14.418 -21.063  0.00  0.00    +0.039 C 
ENDROOT
BRANCH   1   4
ATOM      3 CL   UNL     1      33.204 -13.066 -27.505  0.00  0.00    -0.082 Cl
ATOM      4  C   UNL     1      33.734 -14.668 -23.366  0.00  0.00    +0.006 C 
ATOM      5  C   UNL     1      33.474 -15.554 -24.384  0.00  0.00    -0.001 C 
ATOM      6  C   UNL     1      33.838 -13.310 -23.563  0.00  0.00    -0.001 C 
ATOM      7  C   UNL     1      33.308 -15.054 -25.676  0.00  0.00    +0.011 C 
ATOM      8  C   UNL     1      33.674 -12.811 -24.856  0.00  0.00    +0.011 C 
ATOM      9  C   UNL     1      33.408 -13.683 -25.912  0.00  0.00    +0.058 C 
ENDBRANCH   1   4
BRANCH   1  10
ATOM     10  C   UNL     1      34.351 -16.687 -21.971  0.00  0.00    +0.006 C 
ATOM     11  C   UNL     1      35.436 -17.036 -22.738  0.00  0.00    -0.002 C 
ATOM     12  C   UNL     1      33.638 -17.593 -21.224  0.00  0.00    -0.002 C 
ATOM     13  C   UNL     1      35.832 -18.373 -22.759  0.00  0.00    -0.000 C 
ATOM     14  C   UNL     1      34.034 -18.930 -21.246  0.00  0.00    -0.000 C 
ATOM     15  C   UNL     1      35.131 -19.321 -22.014  0.00  0.00    -0.000 C 
ENDBRANCH   1  10
BRANCH   1  16
ATOM     16  O   UNL     1      32.667 -15.087 -21.282  0.00  0.00    -0.353 OA
BRANCH  16  17
ATOM     17  C   UNL     1      32.660 -13.974 -20.398  0.00  0.00    +0.120 C 
BRANCH  17  18
ATOM     18  C   UNL     1      31.585 -12.999 -20.848  0.00  0.00    -0.045 C 
BRANCH  18  19
ATOM     19  N   UNL     1      32.014 -11.618 -20.629  0.00  0.00    +0.386 N 
ATOM     20  C   UNL     1      31.485 -11.113 -19.362  0.00  0.00    -0.101 C 
ATOM     21  C   UNL     1      31.586 -10.767 -21.738  0.00  0.00    -0.101 C 
ATOM     22  H   UNL     1      33.034 -11.601 -20.582  0.00  0.00    -0.080 HD
ENDBRANCH  18  19
ENDBRANCH  17  18
ENDBRANCH  16  17
ENDBRANCH   1  16
TORSDOF 6
ENDMDL
MODEL 9
REMARK VINA RESULT:      -7.2      3.226      6.144
REMARK  Name = 6475
REMARK  6 active torsions:
REMARK  status: ('A' for Active; 'I' for Inactive)
REMARK    1  A    between atoms: C_1  and  C_4
REMARK    2  A    between atoms: C_1  and  C_10
REMARK    3  A    between atoms: C_1  and  O_16
REMARK    4  A    between atoms: O_16  and  C_17
REMARK    5  A    between atoms: C_17  and  C_18
REMARK    6  A    between atoms: C_18  and  N_19
REMARK                            x       y       z     vdW  Elec       q    Type
REMARK                         _______ _______ _______ _____ _____    ______ ____
ROOT
ATOM      1  C   UNL     1      34.490 -18.021 -21.457  0.00  0.00    +0.130 C 
ATOM      2  C   UNL     1      35.869 -18.318 -20.833  0.00  0.00    +0.039 C 
ENDROOT
BRANCH   1   4
ATOM      3 CL   UNL     1      32.175 -12.666 -20.047  0.00  0.00    -0.082 Cl
ATOM      4  C   UNL     1      33.899 -16.655 -21.096  0.00  0.00    +0.006 C 
ATOM      5  C   UNL     1      32.543 -16.559 -20.891  0.00  0.00    -0.001 C 
ATOM      6  C   UNL     1      34.749 -15.578 -20.992  0.00  0.00    -0.001 C 
ATOM      7  C   UNL     1      32.005 -15.314 -20.564  0.00  0.00    +0.011 C 
ATOM      8  C   UNL     1      34.211 -14.333 -20.666  0.00  0.00    +0.011 C 
ATOM      9  C   UNL     1      32.839 -14.201 -20.451  0.00  0.00    +0.058 C 
ENDBRANCH   1   4
BRANCH   1  10
ATOM     10  C   UNL     1      34.579 -18.204 -22.976  0.00  0.00    +0.006 C 
ATOM     11  C   UNL     1      34.670 -19.479 -23.478  0.00  0.00    -0.002 C 
ATOM     12  C   UNL     1      34.563 -17.085 -23.774  0.00  0.00    -0.002 C 
ATOM     13  C   UNL     1      34.749 -19.647 -24.860  0.00  0.00    -0.000 C 
ATOM     14  C   UNL     1      34.642 -17.252 -25.156  0.00  0.00    -0.000 C 
ATOM     15  C   UNL     1      34.736 -18.534 -25.700  0.00  0.00    -0.000 C 
ENDBRANCH   1  10
BRANCH   1  16
ATOM     16  O   UNL     1      33.637 -19.010 -20.895  0.00  0.00    -0.353 OA
BRANCH  16  17
ATOM     17  C   UNL     1      34.379 -20.109 -20.382  0.00  0.00    +0.120 C 
BRANCH  17  18
ATOM     18  C   UNL     1      33.412 -21.101 -19.756  0.00  0.00    -0.045 C 
BRANCH  18  19
ATOM     19  N   UNL     1      34.132 -22.261 -19.231  0.00  0.00    +0.386 N 
ATOM     20  C   UNL     1      33.419 -22.830 -18.087  0.00  0.00    -0.101 C 
ATOM     21  C   UNL     1      35.494 -21.888 -18.851  0.00  0.00    -0.101 C 
ATOM     22  H   UNL     1      34.183 -22.969 -19.964  0.00  0.00    -0.080 HD
ENDBRANCH  18  19
ENDBRANCH  17  18
ENDBRANCH  16  17
ENDBRANCH   1  16
TORSDOF 6
ENDMDL
