MODEL 1
REMARK VINA RESULT:      -9.3      0.000      0.000
REMARK  Name = 11560224
REMARK  6 active torsions:
REMARK  status: ('A' for Active; 'I' for Inactive)
REMARK    1  A    between atoms: C_3  and  N_17
REMARK    2  A    between atoms: C_8  and  C_16
REMARK    3  A    between atoms: N_17  and  C_18
REMARK    4  A    between atoms: N_17  and  C_23
REMARK    5  A    between atoms: C_18  and  C_22
REMARK    6  A    between atoms: C_23  and  C_27
REMARK                            x       y       z     vdW  Elec       q    Type
REMARK                         _______ _______ _______ _____ _____    ______ ____
ROOT
ATOM      1  O   UNL     1      32.527  -6.567 -21.867  0.00  0.00    -0.270 OA
ATOM      2  N   UNL     1      33.270  -8.361 -23.099  0.00  0.00    -0.280 N 
ATOM      3  C   UNL     1      33.418 -12.482 -23.805  0.00  0.00    +0.048 C 
ATOM      4  C   UNL     1      32.604 -10.613 -22.474  0.00  0.00    +0.019 C 
ATOM      5  C   UNL     1      32.670 -11.990 -22.731  0.00  0.00    +0.016 C 
ATOM      6  C   UNL     1      33.310  -9.747 -23.324  0.00  0.00    +0.051 C 
ATOM      7  C   UNL     1      34.111 -11.607 -24.636  0.00  0.00    +0.016 C 
ATOM      8  C   UNL     1      31.830 -10.035 -21.355  0.00  0.00    +0.077 C 
ATOM      9  C   UNL     1      34.060 -10.237 -24.398  0.00  0.00    +0.016 C 
ATOM     10  C   UNL     1      31.820  -8.704 -21.177  0.00  0.00    +0.062 C 
ATOM     11  C   UNL     1      32.564  -7.779 -22.070  0.00  0.00    +0.250 C 
ATOM     12  H   UNL     1      33.774  -7.774 -23.708  0.00  0.00    +0.155 HD
ENDROOT
BRANCH   8  16
ATOM     13  F   UNL     1      30.006 -11.484 -21.063  0.00  0.00    -0.166 F 
ATOM     14  F   UNL     1      31.845 -11.942 -19.986  0.00  0.00    -0.166 F 
ATOM     15  F   UNL     1      30.606 -10.261 -19.362  0.00  0.00    -0.166 F 
ATOM     16  C   UNL     1      31.065 -10.939 -20.432  0.00  0.00    +0.419 C 
ENDBRANCH   8  16
BRANCH   3  17
ATOM     17  N   UNL     1      33.470 -13.872 -24.046  0.00  0.00    -0.293 N 
BRANCH  17  18
ATOM     18  C   UNL     1      34.484 -14.689 -23.412  0.00  0.00    +0.195 C 
BRANCH  18  22
ATOM     19  F   UNL     1      34.294 -16.570 -22.013  0.00  0.00    -0.168 F 
ATOM     20  F   UNL     1      34.455 -14.622 -21.049  0.00  0.00    -0.168 F 
ATOM     21  F   UNL     1      32.607 -15.192 -22.066  0.00  0.00    -0.168 F 
ATOM     22  C   UNL     1      33.953 -15.267 -22.123  0.00  0.00    +0.416 C 
ENDBRANCH  18  22
ENDBRANCH  17  18
BRANCH  17  23
ATOM     23  C   UNL     1      32.499 -14.501 -24.920  0.00  0.00    +0.195 C 
BRANCH  23  27
ATOM     24  F   UNL     1      32.288 -15.642 -26.965  0.00  0.00    -0.168 F 
ATOM     25  F   UNL     1      33.723 -14.003 -26.880  0.00  0.00    -0.168 F 
ATOM     26  F   UNL     1      34.157 -15.894 -25.871  0.00  0.00    -0.168 F 
ATOM     27  C   UNL     1      33.179 -15.011 -26.167  0.00  0.00    +0.416 C 
ENDBRANCH  23  27
ENDBRANCH  17  23
ENDBRANCH   3  17
TORSDOF 6
ENDMDL
MODEL 2
REMARK VINA RESULT:      -9.3      0.057      2.850
REMARK  Name = 11560224
REMARK  6 active torsions:
REMARK  status: ('A' for Active; 'I' for Inactive)
REMARK    1  A    between atoms: C_3  and  N_17
REMARK    2  A    between atoms: C_8  and  C_16
REMARK    3  A    between atoms: N_17  and  C_18
REMARK    4  A    between atoms: N_17  and  C_23
REMARK    5  A    between atoms: C_18  and  C_22
REMARK    6  A    between atoms: C_23  and  C_27
REMARK                            x       y       z     vdW  Elec       q    Type
REMARK                         _______ _______ _______ _____ _____    ______ ____
ROOT
ATOM      1  O   UNL     1      32.578  -6.601 -21.837  0.00  0.00    -0.270 OA
ATOM      2  N   UNL     1      33.305  -8.400 -23.071  0.00  0.00    -0.280 N 
ATOM      3  C   UNL     1      33.411 -12.522 -23.783  0.00  0.00    +0.048 C 
ATOM      4  C   UNL     1      32.614 -10.647 -22.451  0.00  0.00    +0.019 C 
ATOM      5  C   UNL     1      32.666 -12.024 -22.709  0.00  0.00    +0.016 C 
ATOM      6  C   UNL     1      33.330  -9.787 -23.298  0.00  0.00    +0.051 C 
ATOM      7  C   UNL     1      34.115 -11.653 -24.612  0.00  0.00    +0.016 C 
ATOM      8  C   UNL     1      31.844 -10.063 -21.332  0.00  0.00    +0.077 C 
ATOM      9  C   UNL     1      34.077 -10.282 -24.371  0.00  0.00    +0.016 C 
ATOM     10  C   UNL     1      31.847  -8.732 -21.152  0.00  0.00    +0.062 C 
ATOM     11  C   UNL     1      32.602  -7.813 -22.043  0.00  0.00    +0.250 C 
ATOM     12  H   UNL     1      33.815  -7.818 -23.679  0.00  0.00    +0.155 HD
ENDROOT
BRANCH   8  16
ATOM     13  F   UNL     1      30.006 -11.494 -21.046  0.00  0.00    -0.166 F 
ATOM     14  F   UNL     1      31.838 -11.971 -19.965  0.00  0.00    -0.166 F 
ATOM     15  F   UNL     1      30.614 -10.279 -19.342  0.00  0.00    -0.166 F 
ATOM     16  C   UNL     1      31.068 -10.960 -20.412  0.00  0.00    +0.419 C 
ENDBRANCH   8  16
BRANCH   3  17
ATOM     17  N   UNL     1      33.449 -13.912 -24.027  0.00  0.00    -0.293 N 
BRANCH  17  18
ATOM     18  C   UNL     1      32.487 -14.527 -24.918  0.00  0.00    +0.195 C 
BRANCH  18  22
ATOM     19  F   UNL     1      32.301 -15.666 -26.967  0.00  0.00    -0.168 F 
ATOM     20  F   UNL     1      33.749 -14.041 -26.858  0.00  0.00    -0.168 F 
ATOM     21  F   UNL     1      34.148 -15.934 -25.841  0.00  0.00    -0.168 F 
ATOM     22  C   UNL     1      33.183 -15.044 -26.154  0.00  0.00    +0.416 C 
ENDBRANCH  18  22
ENDBRANCH  17  18
BRANCH  17  23
ATOM     23  C   UNL     1      34.461 -14.739 -23.399  0.00  0.00    +0.195 C 
BRANCH  23  27
ATOM     24  F   UNL     1      34.410 -14.529 -21.057  0.00  0.00    -0.168 F 
ATOM     25  F   UNL     1      32.600 -15.251 -22.033  0.00  0.00    -0.168 F 
ATOM     26  F   UNL     1      34.354 -16.547 -21.879  0.00  0.00    -0.168 F 
ATOM     27  C   UNL     1      33.948 -15.276 -22.085  0.00  0.00    +0.416 C 
ENDBRANCH  23  27
ENDBRANCH  17  23
ENDBRANCH   3  17
TORSDOF 6
ENDMDL
MODEL 3
REMARK VINA RESULT:      -9.3      3.809      7.447
REMARK  Name = 11560224
REMARK  6 active torsions:
REMARK  status: ('A' for Active; 'I' for Inactive)
REMARK    1  A    between atoms: C_3  and  N_17
REMARK    2  A    between atoms: C_8  and  C_16
REMARK    3  A    between atoms: N_17  and  C_18
REMARK    4  A    between atoms: N_17  and  C_23
REMARK    5  A    between atoms: C_18  and  C_22
REMARK    6  A    between atoms: C_23  and  C_27
REMARK                            x       y       z     vdW  Elec       q    Type
REMARK                         _______ _______ _______ _____ _____    ______ ____
ROOT
ATOM      1  O   UNL     1      35.774 -19.825 -20.326  0.00  0.00    -0.270 OA
ATOM      2  N   UNL     1      35.234 -17.625 -20.723  0.00  0.00    -0.280 N 
ATOM      3  C   UNL     1      34.027 -14.587 -23.335  0.00  0.00    +0.048 C 
ATOM      4  C   UNL     1      34.587 -16.926 -22.959  0.00  0.00    +0.019 C 
ATOM      5  C   UNL     1      34.184 -15.891 -23.815  0.00  0.00    +0.016 C 
ATOM      6  C   UNL     1      34.828 -16.616 -21.612  0.00  0.00    +0.051 C 
ATOM      7  C   UNL     1      34.271 -14.299 -21.995  0.00  0.00    +0.016 C 
ATOM      8  C   UNL     1      34.769 -18.323 -23.410  0.00  0.00    +0.077 C 
ATOM      9  C   UNL     1      34.672 -15.312 -21.130  0.00  0.00    +0.016 C 
ATOM     10  C   UNL     1      35.158 -19.256 -22.526  0.00  0.00    +0.062 C 
ATOM     11  C   UNL     1      35.417 -18.937 -21.098  0.00  0.00    +0.250 C 
ATOM     12  H   UNL     1      35.397 -17.382 -19.783  0.00  0.00    +0.155 HD
ENDROOT
BRANCH   8  16
ATOM     13  F   UNL     1      33.198 -18.666 -25.119  0.00  0.00    -0.166 F 
ATOM     14  F   UNL     1      35.125 -17.811 -25.673  0.00  0.00    -0.166 F 
ATOM     15  F   UNL     1      34.984 -19.915 -25.124  0.00  0.00    -0.166 F 
ATOM     16  C   UNL     1      34.517 -18.682 -24.845  0.00  0.00    +0.419 C 
ENDBRANCH   8  16
BRANCH   3  17
ATOM     17  N   UNL     1      33.620 -13.559 -24.213  0.00  0.00    -0.293 N 
BRANCH  17  18
ATOM     18  C   UNL     1      32.502 -13.764 -25.112  0.00  0.00    +0.195 C 
BRANCH  18  22
ATOM     19  F   UNL     1      31.935 -13.767 -27.394  0.00  0.00    -0.168 F 
ATOM     20  F   UNL     1      33.746 -12.699 -26.818  0.00  0.00    -0.168 F 
ATOM     21  F   UNL     1      33.712 -14.884 -26.806  0.00  0.00    -0.168 F 
ATOM     22  C   UNL     1      32.984 -13.779 -26.542  0.00  0.00    +0.416 C 
ENDBRANCH  18  22
ENDBRANCH  17  18
BRANCH  17  23
ATOM     23  C   UNL     1      34.305 -12.282 -24.215  0.00  0.00    +0.195 C 
BRANCH  23  27
ATOM     24  F   UNL     1      32.732 -10.685 -24.926  0.00  0.00    -0.168 F 
ATOM     25  F   UNL     1      32.390 -11.629 -22.992  0.00  0.00    -0.168 F 
ATOM     26  F   UNL     1      33.990 -10.158 -23.226  0.00  0.00    -0.168 F 
ATOM     27  C   UNL     1      33.348 -11.181 -23.829  0.00  0.00    +0.416 C 
ENDBRANCH  23  27
ENDBRANCH  17  23
ENDBRANCH   3  17
TORSDOF 6
ENDMDL
MODEL 4
REMARK VINA RESULT:      -9.3      3.791      7.089
REMARK  Name = 11560224
REMARK  6 active torsions:
REMARK  status: ('A' for Active; 'I' for Inactive)
REMARK    1  A    between atoms: C_3  and  N_17
REMARK    2  A    between atoms: C_8  and  C_16
REMARK    3  A    between atoms: N_17  and  C_18
REMARK    4  A    between atoms: N_17  and  C_23
REMARK    5  A    between atoms: C_18  and  C_22
REMARK    6  A    between atoms: C_23  and  C_27
REMARK                            x       y       z     vdW  Elec       q    Type
REMARK                         _______ _______ _______ _____ _____    ______ ____
ROOT
ATOM      1  O   UNL     1      35.782 -19.753 -20.332  0.00  0.00    -0.270 OA
ATOM      2  N   UNL     1      35.233 -17.555 -20.729  0.00  0.00    -0.280 N 
ATOM      3  C   UNL     1      34.014 -14.522 -23.342  0.00  0.00    +0.048 C 
ATOM      4  C   UNL     1      34.582 -16.860 -22.966  0.00  0.00    +0.019 C 
ATOM      5  C   UNL     1      34.175 -15.826 -23.821  0.00  0.00    +0.016 C 
ATOM      6  C   UNL     1      34.822 -16.548 -21.619  0.00  0.00    +0.051 C 
ATOM      7  C   UNL     1      34.256 -14.233 -22.002  0.00  0.00    +0.016 C 
ATOM      8  C   UNL     1      34.770 -18.255 -23.416  0.00  0.00    +0.077 C 
ATOM      9  C   UNL     1      34.662 -15.245 -21.136  0.00  0.00    +0.016 C 
ATOM     10  C   UNL     1      35.163 -19.187 -22.532  0.00  0.00    +0.062 C 
ATOM     11  C   UNL     1      35.421 -18.867 -21.104  0.00  0.00    +0.250 C 
ATOM     12  H   UNL     1      35.396 -17.311 -19.790  0.00  0.00    +0.155 HD
ENDROOT
BRANCH   8  16
ATOM     13  F   UNL     1      35.135 -17.749 -25.679  0.00  0.00    -0.166 F 
ATOM     14  F   UNL     1      34.981 -19.852 -25.124  0.00  0.00    -0.166 F 
ATOM     15  F   UNL     1      33.201 -18.594 -25.133  0.00  0.00    -0.166 F 
ATOM     16  C   UNL     1      34.519 -18.616 -24.851  0.00  0.00    +0.419 C 
ENDBRANCH   8  16
BRANCH   3  17
ATOM     17  N   UNL     1      33.602 -13.497 -24.220  0.00  0.00    -0.293 N 
BRANCH  17  18
ATOM     18  C   UNL     1      34.298 -12.226 -24.241  0.00  0.00    +0.195 C 
BRANCH  18  22
ATOM     19  F   UNL     1      32.445 -11.581 -22.947  0.00  0.00    -0.168 F 
ATOM     20  F   UNL     1      34.033 -10.112 -23.216  0.00  0.00    -0.168 F 
ATOM     21  F   UNL     1      32.701 -10.604 -24.878  0.00  0.00    -0.168 F 
ATOM     22  C   UNL     1      33.365 -11.117 -23.821  0.00  0.00    +0.416 C 
ENDBRANCH  18  22
ENDBRANCH  17  18
BRANCH  17  23
ATOM     23  C   UNL     1      32.487 -13.707 -25.121  0.00  0.00    +0.195 C 
BRANCH  23  27
ATOM     24  F   UNL     1      33.753 -12.650 -26.798  0.00  0.00    -0.168 F 
ATOM     25  F   UNL     1      33.706 -14.829 -26.808  0.00  0.00    -0.168 F 
ATOM     26  F   UNL     1      31.943 -13.692 -27.422  0.00  0.00    -0.168 F 
ATOM     27  C   UNL     1      32.973 -13.726 -26.550  0.00  0.00    +0.416 C 
ENDBRANCH  23  27
ENDBRANCH  17  23
ENDBRANCH   3  17
TORSDOF 6
ENDMDL
MODEL 5
REMARK VINA RESULT:      -9.2      3.582      7.385
REMARK  Name = 11560224
REMARK  6 active torsions:
REMARK  status: ('A' for Active; 'I' for Inactive)
REMARK    1  A    between atoms: C_3  and  N_17
REMARK    2  A    between atoms: C_8  and  C_16
REMARK    3  A    between atoms: N_17  and  C_18
REMARK    4  A    between atoms: N_17  and  C_23
REMARK    5  A    between atoms: C_18  and  C_22
REMARK    6  A    between atoms: C_23  and  C_27
REMARK                            x       y       z     vdW  Elec       q    Type
REMARK                         _______ _______ _______ _____ _____    ______ ____
ROOT
ATOM      1  O   UNL     1      36.010 -19.882 -21.079  0.00  0.00    -0.270 OA
ATOM      2  N   UNL     1      35.297 -17.713 -20.800  0.00  0.00    -0.280 N 
ATOM      3  C   UNL     1      33.820 -14.134 -22.386  0.00  0.00    +0.048 C 
ATOM      4  C   UNL     1      34.562 -16.427 -22.727  0.00  0.00    +0.019 C 
ATOM      5  C   UNL     1      34.068 -15.217 -23.235  0.00  0.00    +0.016 C 
ATOM      6  C   UNL     1      34.801 -16.518 -21.347  0.00  0.00    +0.051 C 
ATOM      7  C   UNL     1      34.062 -14.243 -21.019  0.00  0.00    +0.016 C 
ATOM      8  C   UNL     1      34.844 -17.605 -23.576  0.00  0.00    +0.077 C 
ATOM      9  C   UNL     1      34.554 -15.436 -20.496  0.00  0.00    +0.016 C 
ATOM     10  C   UNL     1      35.317 -18.727 -23.011  0.00  0.00    +0.062 C 
ATOM     11  C   UNL     1      35.573 -18.834 -21.551  0.00  0.00    +0.250 C 
ATOM     12  H   UNL     1      35.456 -17.752 -19.829  0.00  0.00    +0.155 HD
ENDROOT
BRANCH   8  16
ATOM     13  F   UNL     1      35.474 -16.701 -25.648  0.00  0.00    -0.166 F 
ATOM     14  F   UNL     1      34.729 -18.750 -25.622  0.00  0.00    -0.166 F 
ATOM     15  F   UNL     1      33.354 -17.086 -25.317  0.00  0.00    -0.166 F 
ATOM     16  C   UNL     1      34.597 -17.535 -25.055  0.00  0.00    +0.419 C 
ENDBRANCH   8  16
BRANCH   3  17
ATOM     17  N   UNL     1      33.321 -12.925 -22.917  0.00  0.00    -0.293 N 
BRANCH  17  18
ATOM     18  C   UNL     1      34.219 -11.970 -23.536  0.00  0.00    +0.195 C 
BRANCH  18  22
ATOM     19  F   UNL     1      32.880 -10.816 -25.086  0.00  0.00    -0.168 F 
ATOM     20  F   UNL     1      34.895 -11.358 -25.717  0.00  0.00    -0.168 F 
ATOM     21  F   UNL     1      33.353 -12.896 -25.531  0.00  0.00    -0.168 F 
ATOM     22  C   UNL     1      33.838 -11.763 -24.981  0.00  0.00    +0.416 C 
ENDBRANCH  18  22
ENDBRANCH  17  18
BRANCH  17  23
ATOM     23  C   UNL     1      31.903 -12.630 -22.864  0.00  0.00    +0.195 C 
BRANCH  23  27
ATOM     24  F   UNL     1      31.973 -12.061 -20.583  0.00  0.00    -0.168 F 
ATOM     25  F   UNL     1      32.339 -10.465 -22.021  0.00  0.00    -0.168 F 
ATOM     26  F   UNL     1      30.321 -11.263 -21.760  0.00  0.00    -0.168 F 
ATOM     27  C   UNL     1      31.629 -11.592 -21.804  0.00  0.00    +0.416 C 
ENDBRANCH  23  27
ENDBRANCH  17  23
ENDBRANCH   3  17
TORSDOF 6
ENDMDL
MODEL 6
REMARK VINA RESULT:      -9.2      3.586      7.062
REMARK  Name = 11560224
REMARK  6 active torsions:
REMARK  status: ('A' for Active; 'I' for Inactive)
REMARK    1  A    between atoms: C_3  and  N_17
REMARK    2  A    between atoms: C_8  and  C_16
REMARK    3  A    between atoms: N_17  and  C_18
REMARK    4  A    between atoms: N_17  and  C_23
REMARK    5  A    between atoms: C_18  and  C_22
REMARK    6  A    between atoms: C_23  and  C_27
REMARK                            x       y       z     vdW  Elec       q    Type
REMARK                         _______ _______ _______ _____ _____    ______ ____
ROOT
ATOM      1  O   UNL     1      36.000 -19.897 -21.142  0.00  0.00    -0.270 OA
ATOM      2  N   UNL     1      35.276 -17.739 -20.815  0.00  0.00    -0.280 N 
ATOM      3  C   UNL     1      33.793 -14.128 -22.322  0.00  0.00    +0.048 C 
ATOM      4  C   UNL     1      34.547 -16.410 -22.715  0.00  0.00    +0.019 C 
ATOM      5  C   UNL     1      34.051 -15.190 -23.196  0.00  0.00    +0.016 C 
ATOM      6  C   UNL     1      34.777 -16.533 -21.336  0.00  0.00    +0.051 C 
ATOM      7  C   UNL     1      34.028 -14.270 -20.957  0.00  0.00    +0.016 C 
ATOM      8  C   UNL     1      34.838 -17.565 -23.590  0.00  0.00    +0.077 C 
ATOM      9  C   UNL     1      34.521 -15.473 -20.460  0.00  0.00    +0.016 C 
ATOM     10  C   UNL     1      35.313 -18.699 -23.050  0.00  0.00    +0.062 C 
ATOM     11  C   UNL     1      35.561 -18.840 -21.591  0.00  0.00    +0.250 C 
ATOM     12  H   UNL     1      35.429 -17.801 -19.845  0.00  0.00    +0.155 HD
ENDROOT
BRANCH   8  16
ATOM     13  F   UNL     1      33.355 -17.009 -25.322  0.00  0.00    -0.166 F 
ATOM     14  F   UNL     1      35.475 -16.609 -25.637  0.00  0.00    -0.166 F 
ATOM     15  F   UNL     1      34.737 -18.660 -25.667  0.00  0.00    -0.166 F 
ATOM     16  C   UNL     1      34.599 -17.461 -25.068  0.00  0.00    +0.419 C 
ENDBRANCH   8  16
BRANCH   3  17
ATOM     17  N   UNL     1      33.292 -12.909 -22.827  0.00  0.00    -0.293 N 
BRANCH  17  18
ATOM     18  C   UNL     1      31.875 -12.615 -22.761  0.00  0.00    +0.195 C 
BRANCH  18  22
ATOM     19  F   UNL     1      32.131 -10.387 -22.055  0.00  0.00    -0.168 F 
ATOM     20  F   UNL     1      30.286 -11.404 -21.497  0.00  0.00    -0.168 F 
ATOM     21  F   UNL     1      32.167 -11.931 -20.517  0.00  0.00    -0.168 F 
ATOM     22  C   UNL     1      31.609 -11.581 -21.695  0.00  0.00    +0.416 C 
ENDBRANCH  18  22
ENDBRANCH  17  18
BRANCH  17  23
ATOM     23  C   UNL     1      34.192 -11.929 -23.403  0.00  0.00    +0.195 C 
BRANCH  23  27
ATOM     24  F   UNL     1      33.388 -12.848 -25.413  0.00  0.00    -0.168 F 
ATOM     25  F   UNL     1      32.896 -10.764 -25.001  0.00  0.00    -0.168 F 
ATOM     26  F   UNL     1      34.935 -11.319 -25.563  0.00  0.00    -0.168 F 
ATOM     27  C   UNL     1      33.852 -11.706 -24.856  0.00  0.00    +0.416 C 
ENDBRANCH  23  27
ENDBRANCH  17  23
ENDBRANCH   3  17
TORSDOF 6
ENDMDL
MODEL 7
REMARK VINA RESULT:      -9.0     13.919     15.530
REMARK  Name = 11560224
REMARK  6 active torsions:
REMARK  status: ('A' for Active; 'I' for Inactive)
REMARK    1  A    between atoms: C_3  and  N_17
REMARK    2  A    between atoms: C_8  and  C_16
REMARK    3  A    between atoms: N_17  and  C_18
REMARK    4  A    between atoms: N_17  and  C_23
REMARK    5  A    between atoms: C_18  and  C_22
REMARK    6  A    between atoms: C_23  and  C_27
REMARK                            x       y       z     vdW  Elec       q    Type
REMARK                         _______ _______ _______ _____ _____    ______ ____
ROOT
ATOM      1  O   UNL     1      29.285 -22.365 -17.324  0.00  0.00    -0.270 OA
ATOM      2  N   UNL     1      31.538 -22.712 -17.019  0.00  0.00    -0.280 N 
ATOM      3  C   UNL     1      34.723 -24.132 -14.706  0.00  0.00    +0.048 C 
ATOM      4  C   UNL     1      32.329 -23.789 -14.988  0.00  0.00    +0.019 C 
ATOM      5  C   UNL     1      33.413 -24.256 -14.231  0.00  0.00    +0.016 C 
ATOM      6  C   UNL     1      32.597 -23.194 -16.231  0.00  0.00    +0.051 C 
ATOM      7  C   UNL     1      34.968 -23.540 -15.942  0.00  0.00    +0.016 C 
ATOM      8  C   UNL     1      30.925 -23.892 -14.538  0.00  0.00    +0.077 C 
ATOM      9  C   UNL     1      33.906 -23.069 -16.708  0.00  0.00    +0.016 C 
ATOM     10  C   UNL     1      29.944 -23.418 -15.323  0.00  0.00    +0.062 C 
ATOM     11  C   UNL     1      30.216 -22.787 -16.641  0.00  0.00    +0.250 C 
ATOM     12  H   UNL     1      31.752 -22.299 -17.887  0.00  0.00    +0.155 HD
ENDROOT
BRANCH   8  16
ATOM     13  F   UNL     1      29.383 -25.081 -13.227  0.00  0.00    -0.166 F 
ATOM     14  F   UNL     1      31.503 -25.489 -12.917  0.00  0.00    -0.166 F 
ATOM     15  F   UNL     1      30.641 -23.611 -12.222  0.00  0.00    -0.166 F 
ATOM     16  C   UNL     1      30.611 -24.524 -13.213  0.00  0.00    +0.419 C 
ENDBRANCH   8  16
BRANCH   3  17
ATOM     17  N   UNL     1      35.800 -24.610 -13.929  0.00  0.00    -0.293 N 
BRANCH  17  18
ATOM     18  C   UNL     1      37.105 -24.808 -14.527  0.00  0.00    +0.195 C 
BRANCH  18  22
ATOM     19  F   UNL     1      38.673 -26.495 -15.000  0.00  0.00    -0.168 F 
ATOM     20  F   UNL     1      37.071 -26.985 -13.605  0.00  0.00    -0.168 F 
ATOM     21  F   UNL     1      36.643 -26.785 -15.739  0.00  0.00    -0.168 F 
ATOM     22  C   UNL     1      37.368 -26.282 -14.719  0.00  0.00    +0.416 C 
ENDBRANCH  18  22
ENDBRANCH  17  18
BRANCH  17  23
ATOM     23  C   UNL     1      35.618 -24.894 -12.520  0.00  0.00    +0.195 C 
BRANCH  23  27
ATOM     24  F   UNL     1      35.987 -23.870 -10.436  0.00  0.00    -0.168 F 
ATOM     25  F   UNL     1      37.745 -24.437 -11.594  0.00  0.00    -0.168 F 
ATOM     26  F   UNL     1      36.526 -22.732 -12.215  0.00  0.00    -0.168 F 
ATOM     27  C   UNL     1      36.480 -23.975 -11.690  0.00  0.00    +0.416 C 
ENDBRANCH  23  27
ENDBRANCH  17  23
ENDBRANCH   3  17
TORSDOF 6
ENDMDL
MODEL 8
REMARK VINA RESULT:      -9.0     13.907     15.399
REMARK  Name = 11560224
REMARK  6 active torsions:
REMARK  status: ('A' for Active; 'I' for Inactive)
REMARK    1  A    between atoms: C_3  and  N_17
REMARK    2  A    between atoms: C_8  and  C_16
REMARK    3  A    between atoms: N_17  and  C_18
REMARK    4  A    between atoms: N_17  and  C_23
REMARK    5  A    between atoms: C_18  and  C_22
REMARK    6  A    between atoms: C_23  and  C_27
REMARK                            x       y       z     vdW  Elec       q    Type
REMARK                         _______ _______ _______ _____ _____    ______ ____
ROOT
ATOM      1  O   UNL     1      29.251 -22.351 -17.340  0.00  0.00    -0.270 OA
ATOM      2  N   UNL     1      31.503 -22.704 -17.041  0.00  0.00    -0.280 N 
ATOM      3  C   UNL     1      34.690 -24.131 -14.734  0.00  0.00    +0.048 C 
ATOM      4  C   UNL     1      32.297 -23.781 -15.011  0.00  0.00    +0.019 C 
ATOM      5  C   UNL     1      33.381 -24.250 -14.256  0.00  0.00    +0.016 C 
ATOM      6  C   UNL     1      32.563 -23.189 -16.255  0.00  0.00    +0.051 C 
ATOM      7  C   UNL     1      34.934 -23.541 -15.972  0.00  0.00    +0.016 C 
ATOM      8  C   UNL     1      30.893 -23.880 -14.557  0.00  0.00    +0.077 C 
ATOM      9  C   UNL     1      33.871 -23.067 -16.735  0.00  0.00    +0.016 C 
ATOM     10  C   UNL     1      29.911 -23.404 -15.341  0.00  0.00    +0.062 C 
ATOM     11  C   UNL     1      30.183 -22.775 -16.659  0.00  0.00    +0.250 C 
ATOM     12  H   UNL     1      31.716 -22.293 -17.909  0.00  0.00    +0.155 HD
ENDROOT
BRANCH   8  16
ATOM     13  F   UNL     1      31.465 -25.485 -12.943  0.00  0.00    -0.166 F 
ATOM     14  F   UNL     1      30.629 -23.597 -12.242  0.00  0.00    -0.166 F 
ATOM     15  F   UNL     1      29.348 -25.055 -13.233  0.00  0.00    -0.166 F 
ATOM     16  C   UNL     1      30.580 -24.510 -13.231  0.00  0.00    +0.419 C 
ENDBRANCH   8  16
BRANCH   3  17
ATOM     17  N   UNL     1      35.767 -24.612 -13.959  0.00  0.00    -0.293 N 
BRANCH  17  18
ATOM     18  C   UNL     1      35.581 -24.917 -12.555  0.00  0.00    +0.195 C 
BRANCH  18  22
ATOM     19  F   UNL     1      35.916 -23.894 -10.465  0.00  0.00    -0.168 F 
ATOM     20  F   UNL     1      37.693 -24.471 -11.589  0.00  0.00    -0.168 F 
ATOM     21  F   UNL     1      36.495 -22.761 -12.234  0.00  0.00    -0.168 F 
ATOM     22  C   UNL     1      36.432 -24.003 -11.709  0.00  0.00    +0.416 C 
ENDBRANCH  18  22
ENDBRANCH  17  18
BRANCH  17  23
ATOM     23  C   UNL     1      37.069 -24.819 -14.562  0.00  0.00    +0.195 C 
BRANCH  23  27
ATOM     24  F   UNL     1      38.636 -26.515 -15.011  0.00  0.00    -0.168 F 
ATOM     25  F   UNL     1      37.030 -26.984 -13.613  0.00  0.00    -0.168 F 
ATOM     26  F   UNL     1      36.607 -26.810 -15.751  0.00  0.00    -0.168 F 
ATOM     27  C   UNL     1      37.330 -26.296 -14.734  0.00  0.00    +0.416 C 
ENDBRANCH  23  27
ENDBRANCH  17  23
ENDBRANCH   3  17
TORSDOF 6
ENDMDL
MODEL 9
REMARK VINA RESULT:      -8.9     12.533     15.059
REMARK  Name = 11560224
REMARK  6 active torsions:
REMARK  status: ('A' for Active; 'I' for Inactive)
REMARK    1  A    between atoms: C_3  and  N_17
REMARK    2  A    between atoms: C_8  and  C_16
REMARK    3  A    between atoms: N_17  and  C_18
REMARK    4  A    between atoms: N_17  and  C_23
REMARK    5  A    between atoms: C_18  and  C_22
REMARK    6  A    between atoms: C_23  and  C_27
REMARK                            x       y       z     vdW  Elec       q    Type
REMARK                         _______ _______ _______ _____ _____    ______ ____
ROOT
ATOM      1  O   UNL     1      33.072 -22.161 -19.661  0.00  0.00    -0.270 OA
ATOM      2  N   UNL     1      34.891 -22.265 -18.258  0.00  0.00    -0.280 N 
ATOM      3  C   UNL     1      36.568 -23.165 -14.532  0.00  0.00    +0.048 C 
ATOM      4  C   UNL     1      34.615 -23.076 -15.983  0.00  0.00    +0.019 C 
ATOM      5  C   UNL     1      35.200 -23.369 -14.743  0.00  0.00    +0.016 C 
ATOM      6  C   UNL     1      35.440 -22.573 -17.002  0.00  0.00    +0.051 C 
ATOM      7  C   UNL     1      37.369 -22.666 -15.555  0.00  0.00    +0.016 C 
ATOM      8  C   UNL     1      33.177 -23.270 -16.265  0.00  0.00    +0.077 C 
ATOM      9  C   UNL     1      36.807 -22.368 -16.793  0.00  0.00    +0.016 C 
ATOM     10  C   UNL     1      32.695 -22.963 -17.480  0.00  0.00    +0.062 C 
ATOM     11  C   UNL     1      33.559 -22.430 -18.565  0.00  0.00    +0.250 C 
ATOM     12  H   UNL     1      35.490 -21.914 -18.956  0.00  0.00    +0.155 HD
ENDROOT
BRANCH   8  16
ATOM     13  F   UNL     1      31.105 -24.230 -15.719  0.00  0.00    -0.166 F 
ATOM     14  F   UNL     1      32.845 -24.849 -14.560  0.00  0.00    -0.166 F 
ATOM     15  F   UNL     1      31.997 -22.862 -14.274  0.00  0.00    -0.166 F 
ATOM     16  C   UNL     1      32.273 -23.807 -15.194  0.00  0.00    +0.419 C 
ENDBRANCH   8  16
BRANCH   3  17
ATOM     17  N   UNL     1      37.137 -23.468 -13.276  0.00  0.00    -0.293 N 
BRANCH  17  18
ATOM     18  C   UNL     1      38.459 -24.055 -13.193  0.00  0.00    +0.195 C 
BRANCH  18  22
ATOM     19  F   UNL     1      39.149 -26.303 -13.208  0.00  0.00    -0.168 F 
ATOM     20  F   UNL     1      37.241 -25.839 -14.155  0.00  0.00    -0.168 F 
ATOM     21  F   UNL     1      39.114 -25.257 -15.120  0.00  0.00    -0.168 F 
ATOM     22  C   UNL     1      38.488 -25.372 -13.930  0.00  0.00    +0.416 C 
ENDBRANCH  18  22
ENDBRANCH  17  18
BRANCH  17  23
ATOM     23  C   UNL     1      36.412 -23.181 -12.054  0.00  0.00    +0.195 C 
BRANCH  23  27
ATOM     24  F   UNL     1      34.761 -24.852 -12.167  0.00  0.00    -0.168 F 
ATOM     25  F   UNL     1      36.753 -25.460 -11.523  0.00  0.00    -0.168 F 
ATOM     26  F   UNL     1      35.478 -24.291 -10.187  0.00  0.00    -0.168 F 
ATOM     27  C   UNL     1      35.852 -24.456 -11.473  0.00  0.00    +0.416 C 
ENDBRANCH  23  27
ENDBRANCH  17  23
ENDBRANCH   3  17
TORSDOF 6
ENDMDL
