MODEL 1
REMARK VINA RESULT:      -5.6      0.000      0.000
REMARK  Name = 446273
REMARK  6 active torsions:
REMARK  status: ('A' for Active; 'I' for Inactive)
REMARK    1  A    between atoms: C_1  and  P_2
REMARK    2  A    between atoms: C_1  and  C_8
REMARK    3  A    between atoms: P_2  and  O_4
REMARK    4  A    between atoms: P_2  and  O_6
REMARK    5  A    between atoms: C_8  and  N_10
REMARK    6  A    between atoms: N_10  and  O_12
REMARK                            x       y       z     vdW  Elec       q    Type
REMARK                         _______ _______ _______ _____ _____    ______ ____
ROOT
ATOM      1  C   UNL     1      37.531 -24.604 -14.047  0.00  0.00    +0.140 C 
ENDROOT
BRANCH   1   2
ATOM      2  P   UNL     1      37.234 -26.333 -14.488  0.00  0.00    +0.339 P 
ATOM      3  O   UNL     1      36.273 -26.505 -15.610  0.00  0.00    -0.258 OA
BRANCH   2   4
ATOM      4  O   UNL     1      36.808 -26.981 -13.078  0.00  0.00    -0.324 OA
ATOM      5  H   UNL     1      37.319 -26.568 -12.363  0.00  0.00    +0.220 HD
ENDBRANCH   2   4
BRANCH   2   6
ATOM      6  O   UNL     1      38.725 -26.886 -14.736  0.00  0.00    -0.324 OA
ATOM      7  H   UNL     1      39.272 -26.182 -15.115  0.00  0.00    +0.220 HD
ENDBRANCH   2   6
ENDBRANCH   1   2
BRANCH   1   8
ATOM      8  C   UNL     1      38.151 -24.444 -12.672  0.00  0.00    +0.137 C 
BRANCH   8  10
ATOM      9  O   UNL     1      35.820 -25.118 -11.104  0.00  0.00    -0.263 OA
ATOM     10  N   UNL     1      37.375 -23.565 -11.842  0.00  0.00    -0.164 N 
ATOM     11  C   UNL     1      36.282 -23.983 -11.135  0.00  0.00    +0.327 C 
BRANCH  10  12
ATOM     12  O   UNL     1      37.836 -22.240 -11.821  0.00  0.00    -0.291 OA
ATOM     13  H   UNL     1      37.080 -21.634 -11.787  0.00  0.00    +0.242 HD
ENDBRANCH  10  12
ENDBRANCH   8  10
ENDBRANCH   1   8
TORSDOF 6
ENDMDL
MODEL 2
REMARK VINA RESULT:      -5.6      2.121      3.189
REMARK  Name = 446273
REMARK  6 active torsions:
REMARK  status: ('A' for Active; 'I' for Inactive)
REMARK    1  A    between atoms: C_1  and  P_2
REMARK    2  A    between atoms: C_1  and  C_8
REMARK    3  A    between atoms: P_2  and  O_4
REMARK    4  A    between atoms: P_2  and  O_6
REMARK    5  A    between atoms: C_8  and  N_10
REMARK    6  A    between atoms: N_10  and  O_12
REMARK                            x       y       z     vdW  Elec       q    Type
REMARK                         _______ _______ _______ _____ _____    ______ ____
ROOT
ATOM      1  C   UNL     1      38.433 -26.240 -14.411  0.00  0.00    +0.140 C 
ENDROOT
BRANCH   1   2
ATOM      2  P   UNL     1      39.790 -25.150 -14.902  0.00  0.00    +0.339 P 
ATOM      3  O   UNL     1      40.730 -24.833 -13.794  0.00  0.00    -0.258 OA
BRANCH   2   4
ATOM      4  O   UNL     1      39.011 -23.903 -15.556  0.00  0.00    -0.324 OA
ATOM      5  H   UNL     1      38.694 -24.146 -16.441  0.00  0.00    +0.220 HD
ENDBRANCH   2   4
BRANCH   2   6
ATOM      6  O   UNL     1      40.415 -25.925 -16.166  0.00  0.00    -0.324 OA
ATOM      7  H   UNL     1      39.721 -26.444 -16.603  0.00  0.00    +0.220 HD
ENDBRANCH   2   6
ENDBRANCH   1   2
BRANCH   1   8
ATOM      8  C   UNL     1      37.198 -25.481 -13.964  0.00  0.00    +0.137 C 
BRANCH   8  10
ATOM      9  O   UNL     1      37.816 -22.948 -12.720  0.00  0.00    -0.263 OA
ATOM     10  N   UNL     1      37.239 -25.187 -12.558  0.00  0.00    -0.164 N 
ATOM     11  C   UNL     1      37.545 -23.949 -12.066  0.00  0.00    +0.327 C 
BRANCH  10  12
ATOM     12  O   UNL     1      36.940 -26.283 -11.734  0.00  0.00    -0.291 OA
ATOM     13  H   UNL     1      37.555 -27.008 -11.923  0.00  0.00    +0.242 HD
ENDBRANCH  10  12
ENDBRANCH   8  10
ENDBRANCH   1   8
TORSDOF 6
ENDMDL
MODEL 3
REMARK VINA RESULT:      -5.5      0.777      1.650
REMARK  Name = 446273
REMARK  6 active torsions:
REMARK  status: ('A' for Active; 'I' for Inactive)
REMARK    1  A    between atoms: C_1  and  P_2
REMARK    2  A    between atoms: C_1  and  C_8
REMARK    3  A    between atoms: P_2  and  O_4
REMARK    4  A    between atoms: P_2  and  O_6
REMARK    5  A    between atoms: C_8  and  N_10
REMARK    6  A    between atoms: N_10  and  O_12
REMARK                            x       y       z     vdW  Elec       q    Type
REMARK                         _______ _______ _______ _____ _____    ______ ____
ROOT
ATOM      1  C   UNL     1      38.203 -24.682 -13.257  0.00  0.00    +0.140 C 
ENDROOT
BRANCH   1   2
ATOM      2  P   UNL     1      37.763 -26.114 -14.270  0.00  0.00    +0.339 P 
ATOM      3  O   UNL     1      38.936 -26.913 -14.714  0.00  0.00    -0.258 OA
BRANCH   2   4
ATOM      4  O   UNL     1      36.868 -25.453 -15.432  0.00  0.00    -0.324 OA
ATOM      5  H   UNL     1      37.448 -25.086 -16.119  0.00  0.00    +0.220 HD
ENDBRANCH   2   4
BRANCH   2   6
ATOM      6  O   UNL     1      36.693 -26.878 -13.342  0.00  0.00    -0.324 OA
ATOM      7  H   UNL     1      36.316 -26.254 -12.702  0.00  0.00    +0.220 HD
ENDBRANCH   2   6
ENDBRANCH   1   2
BRANCH   1   8
ATOM      8  C   UNL     1      37.084 -23.663 -13.158  0.00  0.00    +0.137 C 
BRANCH   8  10
ATOM      9  O   UNL     1      35.161 -25.049 -11.507  0.00  0.00    -0.263 OA
ATOM     10  N   UNL     1      36.746 -23.381 -11.791  0.00  0.00    -0.164 N 
ATOM     11  C   UNL     1      35.816 -24.100 -11.091  0.00  0.00    +0.327 C 
BRANCH  10  12
ATOM     12  O   UNL     1      37.452 -22.303 -11.235  0.00  0.00    -0.291 OA
ATOM     13  H   UNL     1      37.922 -22.600 -10.441  0.00  0.00    +0.242 HD
ENDBRANCH  10  12
ENDBRANCH   8  10
ENDBRANCH   1   8
TORSDOF 6
ENDMDL
MODEL 4
REMARK VINA RESULT:      -5.5      1.359      2.450
REMARK  Name = 446273
REMARK  6 active torsions:
REMARK  status: ('A' for Active; 'I' for Inactive)
REMARK    1  A    between atoms: C_1  and  P_2
REMARK    2  A    between atoms: C_1  and  C_8
REMARK    3  A    between atoms: P_2  and  O_4
REMARK    4  A    between atoms: P_2  and  O_6
REMARK    5  A    between atoms: C_8  and  N_10
REMARK    6  A    between atoms: N_10  and  O_12
REMARK                            x       y       z     vdW  Elec       q    Type
REMARK                         _______ _______ _______ _____ _____    ______ ____
ROOT
ATOM      1  C   UNL     1      37.506 -26.416 -13.493  0.00  0.00    +0.140 C 
ENDROOT
BRANCH   1   2
ATOM      2  P   UNL     1      36.644 -26.083 -15.048  0.00  0.00    +0.339 P 
ATOM      3  O   UNL     1      36.718 -27.205 -16.022  0.00  0.00    -0.258 OA
BRANCH   2   4
ATOM      4  O   UNL     1      37.299 -24.689 -15.514  0.00  0.00    -0.324 OA
ATOM      5  H   UNL     1      37.330 -24.654 -16.484  0.00  0.00    +0.220 HD
ENDBRANCH   2   4
BRANCH   2   6
ATOM      6  O   UNL     1      35.172 -25.674 -14.545  0.00  0.00    -0.324 OA
ATOM      7  H   UNL     1      34.839 -24.939 -15.084  0.00  0.00    +0.220 HD
ENDBRANCH   2   6
ENDBRANCH   1   2
BRANCH   1   8
ATOM      8  C   UNL     1      38.080 -25.164 -12.857  0.00  0.00    +0.137 C 
BRANCH   8  10
ATOM      9  O   UNL     1      38.086 -22.431 -11.924  0.00  0.00    -0.263 OA
ATOM     10  N   UNL     1      37.136 -24.544 -11.969  0.00  0.00    -0.164 N 
ATOM     11  C   UNL     1      37.226 -23.235 -11.585  0.00  0.00    +0.327 C 
BRANCH  10  12
ATOM     12  O   UNL     1      36.113 -25.399 -11.531  0.00  0.00    -0.291 OA
ATOM     13  H   UNL     1      35.320 -25.258 -12.071  0.00  0.00    +0.242 HD
ENDBRANCH  10  12
ENDBRANCH   8  10
ENDBRANCH   1   8
TORSDOF 6
ENDMDL
MODEL 5
REMARK VINA RESULT:      -5.5      2.666      4.330
REMARK  Name = 446273
REMARK  6 active torsions:
REMARK  status: ('A' for Active; 'I' for Inactive)
REMARK    1  A    between atoms: C_1  and  P_2
REMARK    2  A    between atoms: C_1  and  C_8
REMARK    3  A    between atoms: P_2  and  O_4
REMARK    4  A    between atoms: P_2  and  O_6
REMARK    5  A    between atoms: C_8  and  N_10
REMARK    6  A    between atoms: N_10  and  O_12
REMARK                            x       y       z     vdW  Elec       q    Type
REMARK                         _______ _______ _______ _____ _____    ______ ____
ROOT
ATOM      1  C   UNL     1      38.265 -25.424 -12.560  0.00  0.00    +0.140 C 
ENDROOT
BRANCH   1   2
ATOM      2  P   UNL     1      37.506 -23.844 -12.113  0.00  0.00    +0.339 P 
ATOM      3  O   UNL     1      36.653 -23.268 -13.187  0.00  0.00    -0.258 OA
BRANCH   2   4
ATOM      4  O   UNL     1      38.777 -22.965 -11.665  0.00  0.00    -0.324 OA
ATOM      5  H   UNL     1      39.049 -22.390 -12.398  0.00  0.00    +0.220 HD
ENDBRANCH   2   4
BRANCH   2   6
ATOM      6  O   UNL     1      36.767 -24.195 -10.728  0.00  0.00    -0.324 OA
ATOM      7  H   UNL     1      37.397 -24.117  -9.996  0.00  0.00    +0.220 HD
ENDBRANCH   2   6
ENDBRANCH   1   2
BRANCH   1   8
ATOM      8  C   UNL     1      38.144 -25.740 -14.038  0.00  0.00    +0.137 C 
BRANCH   8  10
ATOM      9  O   UNL     1      40.919 -26.478 -14.353  0.00  0.00    -0.263 OA
ATOM     10  N   UNL     1      39.146 -25.056 -14.808  0.00  0.00    -0.164 N 
ATOM     11  C   UNL     1      40.440 -25.488 -14.895  0.00  0.00    +0.327 C 
BRANCH  10  12
ATOM     12  O   UNL     1      38.680 -23.906 -15.463  0.00  0.00    -0.291 OA
ATOM     13  H   UNL     1      37.716 -23.954 -15.555  0.00  0.00    +0.242 HD
ENDBRANCH  10  12
ENDBRANCH   8  10
ENDBRANCH   1   8
TORSDOF 6
ENDMDL
MODEL 6
REMARK VINA RESULT:      -5.4      2.369      4.485
REMARK  Name = 446273
REMARK  6 active torsions:
REMARK  status: ('A' for Active; 'I' for Inactive)
REMARK    1  A    between atoms: C_1  and  P_2
REMARK    2  A    between atoms: C_1  and  C_8
REMARK    3  A    between atoms: P_2  and  O_4
REMARK    4  A    between atoms: P_2  and  O_6
REMARK    5  A    between atoms: C_8  and  N_10
REMARK    6  A    between atoms: N_10  and  O_12
REMARK                            x       y       z     vdW  Elec       q    Type
REMARK                         _______ _______ _______ _____ _____    ______ ____
ROOT
ATOM      1  C   UNL     1      37.128 -25.387 -12.560  0.00  0.00    +0.140 C 
ENDROOT
BRANCH   1   2
ATOM      2  P   UNL     1      36.323 -24.096 -11.582  0.00  0.00    +0.339 P 
ATOM      3  O   UNL     1      37.277 -23.151 -10.943  0.00  0.00    -0.258 OA
BRANCH   2   4
ATOM      4  O   UNL     1      35.388 -24.948 -10.588  0.00  0.00    -0.324 OA
ATOM      5  H   UNL     1      34.486 -24.593 -10.607  0.00  0.00    +0.220 HD
ENDBRANCH   2   4
BRANCH   2   6
ATOM      6  O   UNL     1      35.289 -23.459 -12.638  0.00  0.00    -0.324 OA
ATOM      7  H   UNL     1      34.827 -24.170 -13.108  0.00  0.00    +0.220 HD
ENDBRANCH   2   6
ENDBRANCH   1   2
BRANCH   1   8
ATOM      8  C   UNL     1      38.059 -24.831 -13.621  0.00  0.00    +0.137 C 
BRANCH   8  10
ATOM      9  O   UNL     1      40.880 -24.730 -14.234  0.00  0.00    -0.263 OA
ATOM     10  N   UNL     1      38.859 -25.865 -14.216  0.00  0.00    -0.164 N 
ATOM     11  C   UNL     1      40.195 -25.720 -14.467  0.00  0.00    +0.327 C 
BRANCH  10  12
ATOM     12  O   UNL     1      38.149 -27.038 -14.517  0.00  0.00    -0.291 OA
ATOM     13  H   UNL     1      37.727 -26.946 -15.385  0.00  0.00    +0.242 HD
ENDBRANCH  10  12
ENDBRANCH   8  10
ENDBRANCH   1   8
TORSDOF 6
ENDMDL
MODEL 7
REMARK VINA RESULT:      -5.4      2.358      3.856
REMARK  Name = 446273
REMARK  6 active torsions:
REMARK  status: ('A' for Active; 'I' for Inactive)
REMARK    1  A    between atoms: C_1  and  P_2
REMARK    2  A    between atoms: C_1  and  C_8
REMARK    3  A    between atoms: P_2  and  O_4
REMARK    4  A    between atoms: P_2  and  O_6
REMARK    5  A    between atoms: C_8  and  N_10
REMARK    6  A    between atoms: N_10  and  O_12
REMARK                            x       y       z     vdW  Elec       q    Type
REMARK                         _______ _______ _______ _____ _____    ______ ____
ROOT
ATOM      1  C   UNL     1      36.664 -23.810 -13.298  0.00  0.00    +0.140 C 
ENDROOT
BRANCH   1   2
ATOM      2  P   UNL     1      36.155 -24.710 -11.814  0.00  0.00    +0.339 P 
ATOM      3  O   UNL     1      36.581 -24.059 -10.547  0.00  0.00    -0.258 OA
BRANCH   2   4
ATOM      4  O   UNL     1      36.737 -26.185 -12.089  0.00  0.00    -0.324 OA
ATOM      5  H   UNL     1      37.343 -26.433 -11.372  0.00  0.00    +0.220 HD
ENDBRANCH   2   4
BRANCH   2   6
ATOM      6  O   UNL     1      34.569 -24.870 -12.034  0.00  0.00    -0.324 OA
ATOM      7  H   UNL     1      34.396 -25.171 -12.940  0.00  0.00    +0.220 HD
ENDBRANCH   2   6
ENDBRANCH   1   2
BRANCH   1   8
ATOM      8  C   UNL     1      37.047 -24.728 -14.443  0.00  0.00    +0.137 C 
BRANCH   8  10
ATOM      9  O   UNL     1      39.327 -26.176 -13.418  0.00  0.00    -0.263 OA
ATOM     10  N   UNL     1      38.425 -24.562 -14.815  0.00  0.00    -0.164 N 
ATOM     11  C   UNL     1      39.437 -25.300 -14.268  0.00  0.00    +0.327 C 
BRANCH  10  12
ATOM     12  O   UNL     1      38.641 -23.573 -15.788  0.00  0.00    -0.291 OA
ATOM     13  H   UNL     1      38.275 -23.869 -16.636  0.00  0.00    +0.242 HD
ENDBRANCH  10  12
ENDBRANCH   8  10
ENDBRANCH   1   8
TORSDOF 6
ENDMDL
MODEL 8
REMARK VINA RESULT:      -5.4      2.080      3.250
REMARK  Name = 446273
REMARK  6 active torsions:
REMARK  status: ('A' for Active; 'I' for Inactive)
REMARK    1  A    between atoms: C_1  and  P_2
REMARK    2  A    between atoms: C_1  and  C_8
REMARK    3  A    between atoms: P_2  and  O_4
REMARK    4  A    between atoms: P_2  and  O_6
REMARK    5  A    between atoms: C_8  and  N_10
REMARK    6  A    between atoms: N_10  and  O_12
REMARK                            x       y       z     vdW  Elec       q    Type
REMARK                         _______ _______ _______ _____ _____    ______ ____
ROOT
ATOM      1  C   UNL     1      38.665 -25.129 -13.094  0.00  0.00    +0.140 C 
ENDROOT
BRANCH   1   2
ATOM      2  P   UNL     1      39.465 -25.373 -14.698  0.00  0.00    +0.339 P 
ATOM      3  O   UNL     1      40.902 -25.746 -14.596  0.00  0.00    -0.258 OA
BRANCH   2   4
ATOM      4  O   UNL     1      39.139 -23.994 -15.460  0.00  0.00    -0.324 OA
ATOM      5  H   UNL     1      39.966 -23.584 -15.757  0.00  0.00    +0.220 HD
ENDBRANCH   2   4
BRANCH   2   6
ATOM      6  O   UNL     1      38.499 -26.448 -15.406  0.00  0.00    -0.324 OA
ATOM      7  H   UNL     1      37.581 -26.138 -15.360  0.00  0.00    +0.220 HD
ENDBRANCH   2   6
ENDBRANCH   1   2
BRANCH   1   8
ATOM      8  C   UNL     1      37.530 -24.124 -13.148  0.00  0.00    +0.137 C 
BRANCH   8  10
ATOM      9  O   UNL     1      36.081 -24.455 -15.625  0.00  0.00    -0.263 OA
ATOM     10  N   UNL     1      36.261 -24.771 -13.336  0.00  0.00    -0.164 N 
ATOM     11  C   UNL     1      35.654 -24.877 -14.556  0.00  0.00    +0.327 C 
BRANCH  10  12
ATOM     12  O   UNL     1      35.699 -25.284 -12.157  0.00  0.00    -0.291 OA
ATOM     13  H   UNL     1      34.843 -24.859 -11.995  0.00  0.00    +0.242 HD
ENDBRANCH  10  12
ENDBRANCH   8  10
ENDBRANCH   1   8
TORSDOF 6
ENDMDL
MODEL 9
REMARK VINA RESULT:      -5.3      2.175      4.152
REMARK  Name = 446273
REMARK  6 active torsions:
REMARK  status: ('A' for Active; 'I' for Inactive)
REMARK    1  A    between atoms: C_1  and  P_2
REMARK    2  A    between atoms: C_1  and  C_8
REMARK    3  A    between atoms: P_2  and  O_4
REMARK    4  A    between atoms: P_2  and  O_6
REMARK    5  A    between atoms: C_8  and  N_10
REMARK    6  A    between atoms: N_10  and  O_12
REMARK                            x       y       z     vdW  Elec       q    Type
REMARK                         _______ _______ _______ _____ _____    ______ ____
ROOT
ATOM      1  C   UNL     1      37.149 -25.410 -12.417  0.00  0.00    +0.140 C 
ENDROOT
BRANCH   1   2
ATOM      2  P   UNL     1      36.337 -24.076 -11.504  0.00  0.00    +0.339 P 
ATOM      3  O   UNL     1      37.287 -23.121 -10.874  0.00  0.00    -0.258 OA
BRANCH   2   4
ATOM      4  O   UNL     1      35.369 -24.883 -10.504  0.00  0.00    -0.324 OA
ATOM      5  H   UNL     1      34.615 -25.241 -11.000  0.00  0.00    +0.220 HD
ENDBRANCH   2   4
BRANCH   2   6
ATOM      6  O   UNL     1      35.337 -23.463 -12.605  0.00  0.00    -0.324 OA
ATOM      7  H   UNL     1      35.734 -22.670 -12.998  0.00  0.00    +0.220 HD
ENDBRANCH   2   6
ENDBRANCH   1   2
BRANCH   1   8
ATOM      8  C   UNL     1      38.370 -24.941 -13.186  0.00  0.00    +0.137 C 
BRANCH   8  10
ATOM      9  O   UNL     1      37.490 -22.664 -14.730  0.00  0.00    -0.263 OA
ATOM     10  N   UNL     1      38.118 -24.891 -14.599  0.00  0.00    -0.164 N 
ATOM     11  C   UNL     1      37.701 -23.759 -15.241  0.00  0.00    +0.327 C 
BRANCH  10  12
ATOM     12  O   UNL     1      38.335 -26.108 -15.263  0.00  0.00    -0.291 OA
ATOM     13  H   UNL     1      37.584 -26.700 -15.108  0.00  0.00    +0.242 HD
ENDBRANCH  10  12
ENDBRANCH   8  10
ENDBRANCH   1   8
TORSDOF 6
ENDMDL
