MODEL 1
REMARK VINA RESULT:      -7.2      0.000      0.000
REMARK  Name = 46937141
REMARK  5 active torsions:
REMARK  status: ('A' for Active; 'I' for Inactive)
REMARK    1  A    between atoms: N_2  and  C_10
REMARK    2  A    between atoms: C_3  and  O_5
REMARK    3  A    between atoms: O_5  and  C_6
REMARK    4  A    between atoms: C_10  and  C_14
REMARK    5  A    between atoms: C_10  and  C_16
REMARK                            x       y       z     vdW  Elec       q    Type
REMARK                         _______ _______ _______ _____ _____    ______ ____
ROOT
ATOM      1  O   UNL     1      35.507 -25.124 -15.525  0.00  0.00    -0.226 OA
ATOM      2  N   UNL     1      34.290 -23.160 -15.319  0.00  0.00    -0.264 N 
ATOM      3  C   UNL     1      35.363 -23.989 -15.081  0.00  0.00    +0.402 C 
ATOM      4  H   UNL     1      34.290 -22.267 -14.905  0.00  0.00    +0.153 HD
ENDROOT
BRANCH   3   5
ATOM      5  O   UNL     1      36.256 -23.356 -14.264  0.00  0.00    -0.442 OA
BRANCH   5   6
ATOM      6  C   UNL     1      36.491 -23.978 -12.995  0.00  0.00    +0.138 C 
ATOM      7  C   UNL     1      35.143 -24.366 -12.388  0.00  0.00    +0.044 C 
ATOM      8  C   UNL     1      37.206 -22.959 -12.110  0.00  0.00    +0.044 C 
ATOM      9  C   UNL     1      37.367 -25.210 -13.212  0.00  0.00    +0.044 C 
ENDBRANCH   5   6
ENDBRANCH   3   5
BRANCH   2  10
ATOM     10  C   UNL     1      33.161 -23.529 -16.150  0.00  0.00    +0.153 C 
BRANCH  10  14
ATOM     11  O   UNL     1      34.594 -22.949 -18.055  0.00  0.00    -0.414 OA
ATOM     12  N   UNL     1      32.449 -22.370 -18.320  0.00  0.00    -0.110 NA
ATOM     13  N   UNL     1      33.138 -21.988 -19.456  0.00  0.00    -0.102 NA
ATOM     14  C   UNL     1      33.337 -22.926 -17.531  0.00  0.00    +0.244 C 
ATOM     15  C   UNL     1      34.385 -22.345 -19.257  0.00  0.00    +0.306 C 
ENDBRANCH  10  14
BRANCH  10  16
ATOM     16  C   UNL     1      31.813 -23.158 -15.473  0.00  0.00    +0.027 C 
ATOM     17  C   UNL     1      31.952 -23.110 -13.945  0.00  0.00    +0.002 C 
ATOM     18  C   UNL     1      30.701 -24.153 -15.832  0.00  0.00    +0.002 C 
ENDBRANCH  10  16
ENDBRANCH   2  10
TORSDOF 5
ENDMDL
MODEL 2
REMARK VINA RESULT:      -7.2      2.857      6.150
REMARK  Name = 46937141
REMARK  5 active torsions:
REMARK  status: ('A' for Active; 'I' for Inactive)
REMARK    1  A    between atoms: N_2  and  C_10
REMARK    2  A    between atoms: C_3  and  O_5
REMARK    3  A    between atoms: O_5  and  C_6
REMARK    4  A    between atoms: C_10  and  C_14
REMARK    5  A    between atoms: C_10  and  C_16
REMARK                            x       y       z     vdW  Elec       q    Type
REMARK                         _______ _______ _______ _____ _____    ______ ____
ROOT
ATOM      1  O   UNL     1      32.196 -25.438 -13.832  0.00  0.00    -0.226 OA
ATOM      2  N   UNL     1      33.478 -23.506 -13.879  0.00  0.00    -0.264 N 
ATOM      3  C   UNL     1      32.299 -24.217 -13.888  0.00  0.00    +0.402 C 
ATOM      4  H   UNL     1      33.429 -22.524 -13.928  0.00  0.00    +0.153 HD
ENDROOT
BRANCH   3   5
ATOM      5  O   UNL     1      31.245 -23.352 -13.970  0.00  0.00    -0.442 OA
BRANCH   5   6
ATOM      6  C   UNL     1      30.457 -23.440 -15.162  0.00  0.00    +0.138 C 
ATOM      7  C   UNL     1      31.363 -23.174 -16.364  0.00  0.00    +0.044 C 
ATOM      8  C   UNL     1      29.362 -22.379 -15.069  0.00  0.00    +0.044 C 
ATOM      9  C   UNL     1      29.846 -24.838 -15.240  0.00  0.00    +0.044 C 
ENDBRANCH   5   6
ENDBRANCH   3   5
BRANCH   2  10
ATOM     10  C   UNL     1      34.786 -24.124 -13.801  0.00  0.00    +0.153 C 
BRANCH  10  14
ATOM     11  O   UNL     1      36.195 -23.202 -12.016  0.00  0.00    -0.414 OA
ATOM     12  N   UNL     1      34.886 -24.893 -11.359  0.00  0.00    -0.110 NA
ATOM     13  N   UNL     1      35.620 -24.472 -10.266  0.00  0.00    -0.102 NA
ATOM     14  C   UNL     1      35.254 -24.124 -12.357  0.00  0.00    +0.244 C 
ATOM     15  C   UNL     1      36.371 -23.485 -10.696  0.00  0.00    +0.306 C 
ENDBRANCH  10  14
BRANCH  10  16
ATOM     16  C   UNL     1      35.789 -23.458 -14.782  0.00  0.00    +0.027 C 
ATOM     17  C   UNL     1      35.088 -23.002 -16.070  0.00  0.00    +0.002 C 
ATOM     18  C   UNL     1      36.937 -24.406 -15.157  0.00  0.00    +0.002 C 
ENDBRANCH  10  16
ENDBRANCH   2  10
TORSDOF 5
ENDMDL
MODEL 3
REMARK VINA RESULT:      -7.0      2.484      4.855
REMARK  Name = 46937141
REMARK  5 active torsions:
REMARK  status: ('A' for Active; 'I' for Inactive)
REMARK    1  A    between atoms: N_2  and  C_10
REMARK    2  A    between atoms: C_3  and  O_5
REMARK    3  A    between atoms: O_5  and  C_6
REMARK    4  A    between atoms: C_10  and  C_14
REMARK    5  A    between atoms: C_10  and  C_16
REMARK                            x       y       z     vdW  Elec       q    Type
REMARK                         _______ _______ _______ _____ _____    ______ ____
ROOT
ATOM      1  O   UNL     1      33.725 -23.663 -12.708  0.00  0.00    -0.226 OA
ATOM      2  N   UNL     1      34.695 -24.915 -14.403  0.00  0.00    -0.264 N 
ATOM      3  C   UNL     1      33.655 -24.498 -13.604  0.00  0.00    +0.402 C 
ATOM      4  H   UNL     1      34.511 -25.594 -15.092  0.00  0.00    +0.153 HD
ENDROOT
BRANCH   3   5
ATOM      5  O   UNL     1      32.513 -25.160 -13.959  0.00  0.00    -0.442 OA
BRANCH   5   6
ATOM      6  C   UNL     1      31.463 -24.349 -14.499  0.00  0.00    +0.138 C 
ATOM      7  C   UNL     1      30.922 -23.453 -13.385  0.00  0.00    +0.044 C 
ATOM      8  C   UNL     1      30.373 -25.289 -15.010  0.00  0.00    +0.044 C 
ATOM      9  C   UNL     1      32.033 -23.513 -15.643  0.00  0.00    +0.044 C 
ENDBRANCH   5   6
ENDBRANCH   3   5
BRANCH   2  10
ATOM     10  C   UNL     1      36.048 -24.408 -14.286  0.00  0.00    +0.153 C 
BRANCH  10  14
ATOM     11  O   UNL     1      37.445 -22.682 -15.330  0.00  0.00    -0.414 OA
ATOM     12  N   UNL     1      35.629 -23.224 -16.519  0.00  0.00    -0.110 NA
ATOM     13  N   UNL     1      36.319 -22.250 -17.215  0.00  0.00    -0.102 NA
ATOM     14  C   UNL     1      36.321 -23.445 -15.427  0.00  0.00    +0.244 C 
ATOM     15  C   UNL     1      37.371 -21.964 -16.484  0.00  0.00    +0.306 C 
ENDBRANCH  10  14
BRANCH  10  16
ATOM     16  C   UNL     1      37.081 -25.563 -14.182  0.00  0.00    +0.027 C 
ATOM     17  C   UNL     1      36.729 -26.712 -15.137  0.00  0.00    +0.002 C 
ATOM     18  C   UNL     1      37.171 -26.121 -12.755  0.00  0.00    +0.002 C 
ENDBRANCH  10  16
ENDBRANCH   2  10
TORSDOF 5
ENDMDL
MODEL 4
REMARK VINA RESULT:      -6.7      7.868     10.874
REMARK  Name = 46937141
REMARK  5 active torsions:
REMARK  status: ('A' for Active; 'I' for Inactive)
REMARK    1  A    between atoms: N_2  and  C_10
REMARK    2  A    between atoms: C_3  and  O_5
REMARK    3  A    between atoms: O_5  and  C_6
REMARK    4  A    between atoms: C_10  and  C_14
REMARK    5  A    between atoms: C_10  and  C_16
REMARK                            x       y       z     vdW  Elec       q    Type
REMARK                         _______ _______ _______ _____ _____    ______ ____
ROOT
ATOM      1  O   UNL     1      36.066 -17.106 -22.453  0.00  0.00    -0.226 OA
ATOM      2  N   UNL     1      33.908 -16.260 -22.523  0.00  0.00    -0.264 N 
ATOM      3  C   UNL     1      34.910 -17.072 -22.043  0.00  0.00    +0.402 C 
ATOM      4  H   UNL     1      33.017 -16.325 -22.109  0.00  0.00    +0.153 HD
ENDROOT
BRANCH   3   5
ATOM      5  O   UNL     1      34.423 -17.848 -21.029  0.00  0.00    -0.442 OA
BRANCH   5   6
ATOM      6  C   UNL     1      34.376 -19.256 -21.288  0.00  0.00    +0.138 C 
ATOM      7  C   UNL     1      34.467 -19.476 -22.798  0.00  0.00    +0.044 C 
ATOM      8  C   UNL     1      33.046 -19.778 -20.748  0.00  0.00    +0.044 C 
ATOM      9  C   UNL     1      35.548 -19.922 -20.569  0.00  0.00    +0.044 C 
ENDBRANCH   5   6
ENDBRANCH   3   5
BRANCH   2  10
ATOM     10  C   UNL     1      34.093 -15.313 -23.605  0.00  0.00    +0.153 C 
BRANCH  10  14
ATOM     11  O   UNL     1      32.312 -14.069 -22.464  0.00  0.00    -0.414 OA
ATOM     12  N   UNL     1      33.773 -12.772 -23.553  0.00  0.00    -0.110 NA
ATOM     13  N   UNL     1      32.832 -11.951 -22.962  0.00  0.00    -0.102 NA
ATOM     14  C   UNL     1      33.431 -13.998 -23.237  0.00  0.00    +0.244 C 
ATOM     15  C   UNL     1      31.999 -12.751 -22.338  0.00  0.00    +0.306 C 
ENDBRANCH  10  14
BRANCH  10  16
ATOM     16  C   UNL     1      33.610 -15.897 -24.961  0.00  0.00    +0.027 C 
ATOM     17  C   UNL     1      34.658 -16.843 -25.564  0.00  0.00    +0.002 C 
ATOM     18  C   UNL     1      33.301 -14.793 -25.981  0.00  0.00    +0.002 C 
ENDBRANCH  10  16
ENDBRANCH   2  10
TORSDOF 5
ENDMDL
MODEL 5
REMARK VINA RESULT:      -6.7     12.281     14.911
REMARK  Name = 46937141
REMARK  5 active torsions:
REMARK  status: ('A' for Active; 'I' for Inactive)
REMARK    1  A    between atoms: N_2  and  C_10
REMARK    2  A    between atoms: C_3  and  O_5
REMARK    3  A    between atoms: O_5  and  C_6
REMARK    4  A    between atoms: C_10  and  C_14
REMARK    5  A    between atoms: C_10  and  C_16
REMARK                            x       y       z     vdW  Elec       q    Type
REMARK                         _______ _______ _______ _____ _____    ______ ____
ROOT
ATOM      1  O   UNL     1      34.591 -10.298 -23.979  0.00  0.00    -0.226 OA
ATOM      2  N   UNL     1      32.761 -11.695 -23.699  0.00  0.00    -0.264 N 
ATOM      3  C   UNL     1      33.382 -10.480 -23.880  0.00  0.00    +0.402 C 
ATOM      4  H   UNL     1      31.779 -11.712 -23.634  0.00  0.00    +0.153 HD
ENDROOT
BRANCH   3   5
ATOM      5  O   UNL     1      32.441  -9.491 -23.933  0.00  0.00    -0.442 OA
BRANCH   5   6
ATOM      6  C   UNL     1      32.478  -8.536 -22.866  0.00  0.00    +0.138 C 
ATOM      7  C   UNL     1      32.311  -9.281 -21.542  0.00  0.00    +0.044 C 
ATOM      8  C   UNL     1      31.324  -7.560 -23.083  0.00  0.00    +0.044 C 
ATOM      9  C   UNL     1      33.818  -7.804 -22.914  0.00  0.00    +0.044 C 
ENDBRANCH   5   6
ENDBRANCH   3   5
BRANCH   2  10
ATOM     10  C   UNL     1      33.475 -12.953 -23.599  0.00  0.00    +0.153 C 
BRANCH  10  14
ATOM     11  O   UNL     1      33.378 -12.877 -26.049  0.00  0.00    -0.414 OA
ATOM     12  N   UNL     1      33.421 -14.948 -25.205  0.00  0.00    -0.110 NA
ATOM     13  N   UNL     1      33.367 -15.050 -26.582  0.00  0.00    -0.102 NA
ATOM     14  C   UNL     1      33.426 -13.663 -24.939  0.00  0.00    +0.244 C 
ATOM     15  C   UNL     1      33.343 -13.817 -27.033  0.00  0.00    +0.306 C 
ENDBRANCH  10  14
BRANCH  10  16
ATOM     16  C   UNL     1      32.950 -13.812 -22.416  0.00  0.00    +0.027 C 
ATOM     17  C   UNL     1      32.147 -12.960 -21.423  0.00  0.00    +0.002 C 
ATOM     18  C   UNL     1      34.093 -14.501 -21.659  0.00  0.00    +0.002 C 
ENDBRANCH  10  16
ENDBRANCH   2  10
TORSDOF 5
ENDMDL
MODEL 6
REMARK VINA RESULT:      -6.6      1.733      2.125
REMARK  Name = 46937141
REMARK  5 active torsions:
REMARK  status: ('A' for Active; 'I' for Inactive)
REMARK    1  A    between atoms: N_2  and  C_10
REMARK    2  A    between atoms: C_3  and  O_5
REMARK    3  A    between atoms: O_5  and  C_6
REMARK    4  A    between atoms: C_10  and  C_14
REMARK    5  A    between atoms: C_10  and  C_16
REMARK                            x       y       z     vdW  Elec       q    Type
REMARK                         _______ _______ _______ _____ _____    ______ ____
ROOT
ATOM      1  O   UNL     1      35.839 -26.159 -15.741  0.00  0.00    -0.226 OA
ATOM      2  N   UNL     1      34.967 -24.232 -14.789  0.00  0.00    -0.264 N 
ATOM      3  C   UNL     1      35.733 -25.375 -14.803  0.00  0.00    +0.402 C 
ATOM      4  H   UNL     1      34.966 -23.682 -13.973  0.00  0.00    +0.153 HD
ENDROOT
BRANCH   3   5
ATOM      5  O   UNL     1      36.369 -25.513 -13.602  0.00  0.00    -0.442 OA
BRANCH   5   6
ATOM      6  C   UNL     1      37.561 -24.736 -13.434  0.00  0.00    +0.138 C 
ATOM      7  C   UNL     1      38.298 -24.682 -14.771  0.00  0.00    +0.044 C 
ATOM      8  C   UNL     1      38.417 -25.431 -12.376  0.00  0.00    +0.044 C 
ATOM      9  C   UNL     1      37.167 -23.335 -12.971  0.00  0.00    +0.044 C 
ENDBRANCH   5   6
ENDBRANCH   3   5
BRANCH   2  10
ATOM     10  C   UNL     1      34.162 -23.793 -15.912  0.00  0.00    +0.153 C 
BRANCH  10  14
ATOM     11  O   UNL     1      36.136 -22.397 -16.329  0.00  0.00    -0.414 OA
ATOM     12  N   UNL     1      34.867 -22.742 -18.139  0.00  0.00    -0.110 NA
ATOM     13  N   UNL     1      35.935 -21.947 -18.511  0.00  0.00    -0.102 NA
ATOM     14  C   UNL     1      35.025 -22.980 -16.858  0.00  0.00    +0.244 C 
ATOM     15  C   UNL     1      36.648 -21.771 -17.423  0.00  0.00    +0.306 C 
ENDBRANCH  10  14
BRANCH  10  16
ATOM     16  C   UNL     1      32.883 -23.049 -15.438  0.00  0.00    +0.027 C 
ATOM     17  C   UNL     1      32.428 -23.549 -14.059  0.00  0.00    +0.002 C 
ATOM     18  C   UNL     1      31.724 -23.219 -16.429  0.00  0.00    +0.002 C 
ENDBRANCH  10  16
ENDBRANCH   2  10
TORSDOF 5
ENDMDL
MODEL 7
REMARK VINA RESULT:      -6.6     11.649     14.517
REMARK  Name = 46937141
REMARK  5 active torsions:
REMARK  status: ('A' for Active; 'I' for Inactive)
REMARK    1  A    between atoms: N_2  and  C_10
REMARK    2  A    between atoms: C_3  and  O_5
REMARK    3  A    between atoms: O_5  and  C_6
REMARK    4  A    between atoms: C_10  and  C_14
REMARK    5  A    between atoms: C_10  and  C_16
REMARK                            x       y       z     vdW  Elec       q    Type
REMARK                         _______ _______ _______ _____ _____    ______ ____
ROOT
ATOM      1  O   UNL     1      34.614 -10.714 -23.900  0.00  0.00    -0.226 OA
ATOM      2  N   UNL     1      32.772 -12.082 -23.560  0.00  0.00    -0.264 N 
ATOM      3  C   UNL     1      33.401 -10.893 -23.854  0.00  0.00    +0.402 C 
ATOM      4  H   UNL     1      31.788 -12.099 -23.555  0.00  0.00    +0.153 HD
ENDROOT
BRANCH   3   5
ATOM      5  O   UNL     1      32.464  -9.927 -24.089  0.00  0.00    -0.442 OA
BRANCH   5   6
ATOM      6  C   UNL     1      32.439  -8.842 -23.155  0.00  0.00    +0.138 C 
ATOM      7  C   UNL     1      33.778  -8.108 -23.227  0.00  0.00    +0.044 C 
ATOM      8  C   UNL     1      32.227  -9.437 -21.764  0.00  0.00    +0.044 C 
ATOM      9  C   UNL     1      31.286  -7.910 -23.522  0.00  0.00    +0.044 C 
ENDBRANCH   5   6
ENDBRANCH   3   5
BRANCH   2  10
ATOM     10  C   UNL     1      33.480 -13.311 -23.259  0.00  0.00    +0.153 C 
BRANCH  10  14
ATOM     11  O   UNL     1      33.906 -15.481 -24.321  0.00  0.00    -0.414 OA
ATOM     12  N   UNL     1      33.167 -13.908 -25.730  0.00  0.00    -0.110 NA
ATOM     13  N   UNL     1      33.365 -15.070 -26.453  0.00  0.00    -0.102 NA
ATOM     14  C   UNL     1      33.494 -14.194 -24.493  0.00  0.00    +0.244 C 
ATOM     15  C   UNL     1      33.796 -15.960 -25.590  0.00  0.00    +0.306 C 
ENDBRANCH  10  14
BRANCH  10  16
ATOM     16  C   UNL     1      32.899 -14.007 -21.998  0.00  0.00    +0.027 C 
ATOM     17  C   UNL     1      32.066 -13.029 -21.157  0.00  0.00    +0.002 C 
ATOM     18  C   UNL     1      34.005 -14.597 -21.112  0.00  0.00    +0.002 C 
ENDBRANCH  10  16
ENDBRANCH   2  10
TORSDOF 5
ENDMDL
MODEL 8
REMARK VINA RESULT:      -6.6      8.256     10.998
REMARK  Name = 46937141
REMARK  5 active torsions:
REMARK  status: ('A' for Active; 'I' for Inactive)
REMARK    1  A    between atoms: N_2  and  C_10
REMARK    2  A    between atoms: C_3  and  O_5
REMARK    3  A    between atoms: O_5  and  C_6
REMARK    4  A    between atoms: C_10  and  C_14
REMARK    5  A    between atoms: C_10  and  C_16
REMARK                            x       y       z     vdW  Elec       q    Type
REMARK                         _______ _______ _______ _____ _____    ______ ____
ROOT
ATOM      1  O   UNL     1      32.818 -16.501 -20.764  0.00  0.00    -0.226 OA
ATOM      2  N   UNL     1      34.193 -15.627 -22.414  0.00  0.00    -0.264 N 
ATOM      3  C   UNL     1      33.905 -16.419 -21.326  0.00  0.00    +0.402 C 
ATOM      4  H   UNL     1      35.108 -15.649 -22.777  0.00  0.00    +0.153 HD
ENDROOT
BRANCH   3   5
ATOM      5  O   UNL     1      35.024 -17.111 -20.956  0.00  0.00    -0.442 OA
BRANCH   5   6
ATOM      6  C   UNL     1      35.134 -18.442 -21.472  0.00  0.00    +0.138 C 
ATOM      7  C   UNL     1      33.942 -19.257 -20.970  0.00  0.00    +0.044 C 
ATOM      8  C   UNL     1      36.444 -19.031 -20.951  0.00  0.00    +0.044 C 
ATOM      9  C   UNL     1      35.144 -18.373 -22.998  0.00  0.00    +0.044 C 
ENDBRANCH   5   6
ENDBRANCH   3   5
BRANCH   2  10
ATOM     10  C   UNL     1      33.223 -14.763 -23.056  0.00  0.00    +0.153 C 
BRANCH  10  14
ATOM     11  O   UNL     1      32.451 -14.207 -25.318  0.00  0.00    -0.414 OA
ATOM     12  N   UNL     1      34.058 -15.762 -25.262  0.00  0.00    -0.110 NA
ATOM     13  N   UNL     1      33.719 -15.546 -26.584  0.00  0.00    -0.102 NA
ATOM     14  C   UNL     1      33.295 -14.960 -24.559  0.00  0.00    +0.244 C 
ATOM     15  C   UNL     1      32.778 -14.632 -26.569  0.00  0.00    +0.306 C 
ENDBRANCH  10  14
BRANCH  10  16
ATOM     16  C   UNL     1      33.395 -13.285 -22.610  0.00  0.00    +0.027 C 
ATOM     17  C   UNL     1      32.089 -12.724 -22.029  0.00  0.00    +0.002 C 
ATOM     18  C   UNL     1      33.841 -12.387 -23.772  0.00  0.00    +0.002 C 
ENDBRANCH  10  16
ENDBRANCH   2  10
TORSDOF 5
ENDMDL
MODEL 9
REMARK VINA RESULT:      -6.5      2.764      5.633
REMARK  Name = 46937141
REMARK  5 active torsions:
REMARK  status: ('A' for Active; 'I' for Inactive)
REMARK    1  A    between atoms: N_2  and  C_10
REMARK    2  A    between atoms: C_3  and  O_5
REMARK    3  A    between atoms: O_5  and  C_6
REMARK    4  A    between atoms: C_10  and  C_14
REMARK    5  A    between atoms: C_10  and  C_16
REMARK                            x       y       z     vdW  Elec       q    Type
REMARK                         _______ _______ _______ _____ _____    ______ ____
ROOT
ATOM      1  O   UNL     1      34.263 -23.045 -15.543  0.00  0.00    -0.226 OA
ATOM      2  N   UNL     1      34.998 -24.525 -13.915  0.00  0.00    -0.264 N 
ATOM      3  C   UNL     1      34.099 -24.032 -14.833  0.00  0.00    +0.402 C 
ATOM      4  H   UNL     1      34.749 -25.329 -13.405  0.00  0.00    +0.153 HD
ENDROOT
BRANCH   3   5
ATOM      5  O   UNL     1      32.978 -24.813 -14.839  0.00  0.00    -0.442 OA
BRANCH   5   6
ATOM      6  C   UNL     1      31.732 -24.118 -14.712  0.00  0.00    +0.138 C 
ATOM      7  C   UNL     1      31.420 -23.433 -16.042  0.00  0.00    +0.044 C 
ATOM      8  C   UNL     1      31.895 -23.083 -13.600  0.00  0.00    +0.044 C 
ATOM      9  C   UNL     1      30.645 -25.129 -14.352  0.00  0.00    +0.044 C 
ENDBRANCH   5   6
ENDBRANCH   3   5
BRANCH   2  10
ATOM     10  C   UNL     1      36.293 -23.926 -13.660  0.00  0.00    +0.153 C 
BRANCH  10  14
ATOM     11  O   UNL     1      38.490 -24.381 -14.653  0.00  0.00    -0.414 OA
ATOM     12  N   UNL     1      37.430 -26.208 -13.914  0.00  0.00    -0.110 NA
ATOM     13  N   UNL     1      38.643 -26.603 -14.444  0.00  0.00    -0.102 NA
ATOM     14  C   UNL     1      37.383 -24.904 -14.056  0.00  0.00    +0.244 C 
ATOM     15  C   UNL     1      39.228 -25.505 -14.864  0.00  0.00    +0.306 C 
ENDBRANCH  10  14
BRANCH  10  16
ATOM     16  C   UNL     1      36.407 -23.422 -12.195  0.00  0.00    +0.027 C 
ATOM     17  C   UNL     1      37.875 -23.295 -11.764  0.00  0.00    +0.002 C 
ATOM     18  C   UNL     1      35.687 -24.356 -11.213  0.00  0.00    +0.002 C 
ENDBRANCH  10  16
ENDBRANCH   2  10
TORSDOF 5
ENDMDL
