MODEL 1
REMARK VINA RESULT:      -9.6      0.000      0.000
REMARK  Name = 5462501
REMARK  10 active torsions:
REMARK  status: ('A' for Active; 'I' for Inactive)
REMARK    1  A    between atoms: N_1  and  CA_4
REMARK    2  A    between atoms: N_1  and  CA_17
REMARK    3  A    between atoms: CA_4  and  C_12
REMARK    4  A    between atoms: CA_8  and  C_14
REMARK    5  A    between atoms: C_14  and  O_15
REMARK    6  A    between atoms: CA_17  and  C_19
REMARK    7  A    between atoms: CA_17  and  C_22
REMARK    8  A    between atoms: C_19  and  O_20
REMARK    9  A    between atoms: C_22  and  C_23
REMARK   10  A    between atoms: C_23  and  C_24
REMARK                            x       y       z     vdW  Elec       q    Type
REMARK                         _______ _______ _______ _____ _____    ______ ____
ROOT
ATOM      1  N   UNL     1      35.327 -22.911 -15.326  0.00  0.00    +0.399 N 
ATOM      2  H1  UNL     1      35.618 -22.789 -14.355  0.00  0.00    -0.083 HD
ATOM      3  H2  UNL     1      34.731 -22.138 -15.622  0.00  0.00    -0.083 HD
ENDROOT
BRANCH   1   4
ATOM      4  CA  UNL     1      34.572 -24.148 -15.443  0.00  0.00    +0.018 C 
ATOM      5  CB  UNL     1      35.433 -25.346 -15.096  0.00  0.00    -0.014 C 
BRANCH   4  12
ATOM      6  O   UNL     1      33.567 -24.333 -13.293  0.00  0.00    -0.277 OA
ATOM      7  N   UNL     1      32.214 -23.633 -15.036  0.00  0.00    -0.273 N 
ATOM      8  CA  UNL     1      31.042 -23.328 -14.225  0.00  0.00    +0.174 C 
ATOM      9  CB  UNL     1      30.146 -22.498 -15.136  0.00  0.00    +0.033 C 
ATOM     10  CG  UNL     1      30.499 -23.000 -16.534  0.00  0.00    +0.024 C 
ATOM     11  CD  UNL     1      31.990 -23.286 -16.436  0.00  0.00    +0.094 C 
ATOM     12  C   UNL     1      33.415 -24.047 -14.483  0.00  0.00    +0.206 C 
BRANCH   8  14
ATOM     13  OXT UNL     1      29.823 -25.375 -14.639  0.00  0.00    -0.248 OA
ATOM     14  C   UNL     1      30.406 -24.636 -13.860  0.00  0.00    +0.332 C 
BRANCH  14  15
ATOM     15  O   UNL     1      30.563 -24.892 -12.538  0.00  0.00    -0.479 OA
ATOM     16  H   UNL     1      30.241 -24.285 -11.902  0.00  0.00    +0.295 HD
ENDBRANCH  14  15
ENDBRANCH   8  14
ENDBRANCH   4  12
ENDBRANCH   1   4
BRANCH   1  17
ATOM     17  CA  UNL     1      36.510 -22.936 -16.177  0.00  0.00    +0.041 C 
BRANCH  17  19
ATOM     18  OXT UNL     1      37.704 -22.842 -14.057  0.00  0.00    -0.253 OA
ATOM     19  C   UNL     1      37.713 -23.071 -15.260  0.00  0.00    +0.293 C 
BRANCH  19  20
ATOM     20  O   UNL     1      38.820 -23.505 -15.915  0.00  0.00    -0.482 OA
ATOM     21  H   UNL     1      39.315 -22.912 -16.444  0.00  0.00    +0.295 HD
ENDBRANCH  19  20
ENDBRANCH  17  19
BRANCH  17  22
ATOM     22  C   UNL     1      36.576 -21.635 -16.989  0.00  0.00    -0.006 C 
BRANCH  22  23
ATOM     23  C   UNL     1      36.665 -21.838 -18.510  0.00  0.00    +0.025 C 
BRANCH  23  24
ATOM     24  C   UNL     1      35.496 -21.282 -19.285  0.00  0.00    -0.022 C 
ATOM     25  C   UNL     1      34.202 -21.725 -19.009  0.00  0.00    -0.004 C 
ATOM     26  C   UNL     1      35.708 -20.324 -20.277  0.00  0.00    -0.004 C 
ATOM     27  C   UNL     1      33.121 -21.211 -19.724  0.00  0.00    -0.000 C 
ATOM     28  C   UNL     1      34.626 -19.810 -20.992  0.00  0.00    -0.000 C 
ATOM     29  C   UNL     1      33.333 -20.253 -20.717  0.00  0.00    -0.000 C 
ENDBRANCH  23  24
ENDBRANCH  22  23
ENDBRANCH  17  22
ENDBRANCH   1  17
TORSDOF 10
ENDMDL
MODEL 2
REMARK VINA RESULT:      -9.4      2.078      5.280
REMARK  Name = 5462501
REMARK  10 active torsions:
REMARK  status: ('A' for Active; 'I' for Inactive)
REMARK    1  A    between atoms: N_1  and  CA_4
REMARK    2  A    between atoms: N_1  and  CA_17
REMARK    3  A    between atoms: CA_4  and  C_12
REMARK    4  A    between atoms: CA_8  and  C_14
REMARK    5  A    between atoms: C_14  and  O_15
REMARK    6  A    between atoms: CA_17  and  C_19
REMARK    7  A    between atoms: CA_17  and  C_22
REMARK    8  A    between atoms: C_19  and  O_20
REMARK    9  A    between atoms: C_22  and  C_23
REMARK   10  A    between atoms: C_23  and  C_24
REMARK                            x       y       z     vdW  Elec       q    Type
REMARK                         _______ _______ _______ _____ _____    ______ ____
ROOT
ATOM      1  N   UNL     1      34.018 -24.170 -15.673  0.00  0.00    +0.399 N 
ATOM      2  H1  UNL     1      33.671 -24.690 -14.867  0.00  0.00    -0.083 HD
ATOM      3  H2  UNL     1      33.999 -24.753 -16.510  0.00  0.00    -0.083 HD
ENDROOT
BRANCH   1   4
ATOM      4  CA  UNL     1      35.393 -23.768 -15.423  0.00  0.00    +0.018 C 
ATOM      5  CB  UNL     1      35.563 -22.272 -15.605  0.00  0.00    -0.014 C 
BRANCH   4  12
ATOM      6  O   UNL     1      34.849 -24.066 -13.125  0.00  0.00    -0.277 OA
ATOM      7  N   UNL     1      37.008 -24.587 -13.777  0.00  0.00    -0.273 N 
ATOM      8  CA  UNL     1      37.436 -25.148 -12.501  0.00  0.00    +0.174 C 
ATOM      9  CB  UNL     1      38.726 -25.895 -12.821  0.00  0.00    +0.033 C 
ATOM     10  CG  UNL     1      39.299 -25.122 -14.006  0.00  0.00    +0.024 C 
ATOM     11  CD  UNL     1      38.059 -24.705 -14.783  0.00  0.00    +0.094 C 
ATOM     12  C   UNL     1      35.711 -24.154 -14.002  0.00  0.00    +0.206 C 
BRANCH   8  14
ATOM     13  OXT UNL     1      38.590 -23.194 -11.668  0.00  0.00    -0.248 OA
ATOM     14  C   UNL     1      37.675 -23.998 -11.570  0.00  0.00    +0.332 C 
BRANCH  14  15
ATOM     15  O   UNL     1      36.733 -23.968 -10.596  0.00  0.00    -0.479 OA
ATOM     16  H   UNL     1      36.561 -24.735 -10.087  0.00  0.00    +0.295 HD
ENDBRANCH  14  15
ENDBRANCH   8  14
ENDBRANCH   4  12
ENDBRANCH   1   4
BRANCH   1  17
ATOM     17  CA  UNL     1      33.165 -23.010 -15.897  0.00  0.00    +0.041 C 
BRANCH  17  19
ATOM     18  OXT UNL     1      30.901 -23.514 -15.156  0.00  0.00    -0.253 OA
ATOM     19  C   UNL     1      32.024 -23.101 -14.898  0.00  0.00    +0.293 C 
BRANCH  19  20
ATOM     20  O   UNL     1      32.388 -22.695 -13.655  0.00  0.00    -0.482 OA
ATOM     21  H   UNL     1      32.583 -21.792 -13.494  0.00  0.00    +0.295 HD
ENDBRANCH  19  20
ENDBRANCH  17  19
BRANCH  17  22
ATOM     22  C   UNL     1      32.641 -23.039 -17.339  0.00  0.00    -0.006 C 
BRANCH  22  23
ATOM     23  C   UNL     1      33.723 -23.270 -18.406  0.00  0.00    +0.025 C 
BRANCH  23  24
ATOM     24  C   UNL     1      34.061 -22.051 -19.229  0.00  0.00    -0.022 C 
ATOM     25  C   UNL     1      35.393 -21.749 -19.512  0.00  0.00    -0.004 C 
ATOM     26  C   UNL     1      33.041 -21.229 -19.708  0.00  0.00    -0.004 C 
ATOM     27  C   UNL     1      35.705 -20.622 -20.273  0.00  0.00    -0.000 C 
ATOM     28  C   UNL     1      33.354 -20.103 -20.470  0.00  0.00    -0.000 C 
ATOM     29  C   UNL     1      34.686 -19.799 -20.752  0.00  0.00    -0.000 C 
ENDBRANCH  23  24
ENDBRANCH  22  23
ENDBRANCH  17  22
ENDBRANCH   1  17
TORSDOF 10
ENDMDL
MODEL 3
REMARK VINA RESULT:      -8.8      9.724     12.759
REMARK  Name = 5462501
REMARK  10 active torsions:
REMARK  status: ('A' for Active; 'I' for Inactive)
REMARK    1  A    between atoms: N_1  and  CA_4
REMARK    2  A    between atoms: N_1  and  CA_17
REMARK    3  A    between atoms: CA_4  and  C_12
REMARK    4  A    between atoms: CA_8  and  C_14
REMARK    5  A    between atoms: C_14  and  O_15
REMARK    6  A    between atoms: CA_17  and  C_19
REMARK    7  A    between atoms: CA_17  and  C_22
REMARK    8  A    between atoms: C_19  and  O_20
REMARK    9  A    between atoms: C_22  and  C_23
REMARK   10  A    between atoms: C_23  and  C_24
REMARK                            x       y       z     vdW  Elec       q    Type
REMARK                         _______ _______ _______ _____ _____    ______ ____
ROOT
ATOM      1  N   UNL     1      34.550 -13.779 -23.088  0.00  0.00    +0.399 N 
ATOM      2  H1  UNL     1      34.483 -13.332 -22.174  0.00  0.00    -0.083 HD
ATOM      3  H2  UNL     1      35.523 -13.831 -23.391  0.00  0.00    -0.083 HD
ENDROOT
BRANCH   1   4
ATOM      4  CA  UNL     1      33.807 -12.991 -24.058  0.00  0.00    +0.018 C 
ATOM      5  CB  UNL     1      32.806 -13.850 -24.805  0.00  0.00    -0.014 C 
BRANCH   4  12
ATOM      6  O   UNL     1      32.175 -12.205 -22.513  0.00  0.00    -0.277 OA
ATOM      7  N   UNL     1      33.521 -10.618 -23.526  0.00  0.00    -0.273 N 
ATOM      8  CA  UNL     1      33.048  -9.479 -22.750  0.00  0.00    +0.174 C 
ATOM      9  CB  UNL     1      34.076  -8.383 -23.006  0.00  0.00    +0.033 C 
ATOM     10  CG  UNL     1      34.599  -8.707 -24.403  0.00  0.00    +0.024 C 
ATOM     11  CD  UNL     1      34.596 -10.228 -24.434  0.00  0.00    +0.094 C 
ATOM     12  C   UNL     1      33.088 -11.913 -23.287  0.00  0.00    +0.206 C 
BRANCH   8  14
ATOM     13  OXT UNL     1      31.490  -8.274 -24.153  0.00  0.00    -0.248 OA
ATOM     14  C   UNL     1      31.697  -9.110 -23.286  0.00  0.00    +0.332 C 
BRANCH  14  15
ATOM     15  O   UNL     1      30.727  -9.833 -22.675  0.00  0.00    -0.479 OA
ATOM     16  H   UNL     1      30.867 -10.739 -22.484  0.00  0.00    +0.295 HD
ENDBRANCH  14  15
ENDBRANCH   8  14
ENDBRANCH   4  12
ENDBRANCH   1   4
BRANCH   1  17
ATOM     17  CA  UNL     1      34.020 -15.133 -22.998  0.00  0.00    +0.041 C 
BRANCH  17  19
ATOM     18  OXT UNL     1      34.172 -15.529 -20.600  0.00  0.00    -0.253 OA
ATOM     19  C   UNL     1      33.483 -15.305 -21.587  0.00  0.00    +0.293 C 
BRANCH  19  20
ATOM     20  O   UNL     1      32.136 -15.156 -21.522  0.00  0.00    -0.482 OA
ATOM     21  H   UNL     1      31.723 -14.433 -21.952  0.00  0.00    +0.295 HD
ENDBRANCH  19  20
ENDBRANCH  17  19
BRANCH  17  22
ATOM     22  C   UNL     1      35.145 -16.137 -23.287  0.00  0.00    -0.006 C 
BRANCH  22  23
ATOM     23  C   UNL     1      34.672 -17.588 -23.470  0.00  0.00    +0.025 C 
BRANCH  23  24
ATOM     24  C   UNL     1      35.040 -18.514 -22.336  0.00  0.00    -0.022 C 
ATOM     25  C   UNL     1      36.348 -18.535 -21.851  0.00  0.00    -0.004 C 
ATOM     26  C   UNL     1      34.073 -19.346 -21.774  0.00  0.00    -0.004 C 
ATOM     27  C   UNL     1      36.688 -19.391 -20.803  0.00  0.00    -0.000 C 
ATOM     28  C   UNL     1      34.414 -20.201 -20.725  0.00  0.00    -0.000 C 
ATOM     29  C   UNL     1      35.721 -20.224 -20.240  0.00  0.00    -0.000 C 
ENDBRANCH  23  24
ENDBRANCH  22  23
ENDBRANCH  17  22
ENDBRANCH   1  17
TORSDOF 10
ENDMDL
MODEL 4
REMARK VINA RESULT:      -8.7     10.652     13.512
REMARK  Name = 5462501
REMARK  10 active torsions:
REMARK  status: ('A' for Active; 'I' for Inactive)
REMARK    1  A    between atoms: N_1  and  CA_4
REMARK    2  A    between atoms: N_1  and  CA_17
REMARK    3  A    between atoms: CA_4  and  C_12
REMARK    4  A    between atoms: CA_8  and  C_14
REMARK    5  A    between atoms: C_14  and  O_15
REMARK    6  A    between atoms: CA_17  and  C_19
REMARK    7  A    between atoms: CA_17  and  C_22
REMARK    8  A    between atoms: C_19  and  O_20
REMARK    9  A    between atoms: C_22  and  C_23
REMARK   10  A    between atoms: C_23  and  C_24
REMARK                            x       y       z     vdW  Elec       q    Type
REMARK                         _______ _______ _______ _____ _____    ______ ____
ROOT
ATOM      1  N   UNL     1      33.096 -12.038 -25.058  0.00  0.00    +0.399 N 
ATOM      2  H1  UNL     1      32.981 -11.551 -25.947  0.00  0.00    -0.083 HD
ATOM      3  H2  UNL     1      32.190 -12.191 -24.613  0.00  0.00    -0.083 HD
ENDROOT
BRANCH   1   4
ATOM      4  CA  UNL     1      33.912 -11.222 -24.172  0.00  0.00    +0.018 C 
ATOM      5  CB  UNL     1      34.949 -10.440 -24.954  0.00  0.00    -0.014 C 
BRANCH   4  12
ATOM      6  O   UNL     1      32.807  -9.132 -23.892  0.00  0.00    -0.277 OA
ATOM      7  N   UNL     1      32.361 -10.781 -22.331  0.00  0.00    -0.273 N 
ATOM      8  CA  UNL     1      31.311 -10.060 -21.623  0.00  0.00    +0.174 C 
ATOM      9  CB  UNL     1      30.618 -11.120 -20.774  0.00  0.00    +0.033 C 
ATOM     10  CG  UNL     1      31.724 -12.135 -20.500  0.00  0.00    +0.024 C 
ATOM     11  CD  UNL     1      32.533 -12.126 -21.789  0.00  0.00    +0.094 C 
ATOM     12  C   UNL     1      32.977 -10.275 -23.465  0.00  0.00    +0.206 C 
BRANCH   8  14
ATOM     13  OXT UNL     1      32.476  -9.224 -19.676  0.00  0.00    -0.248 OA
ATOM     14  C   UNL     1      31.982  -9.021 -20.775  0.00  0.00    +0.332 C 
BRANCH  14  15
ATOM     15  O   UNL     1      31.969  -7.816 -21.396  0.00  0.00    -0.479 OA
ATOM     16  H   UNL     1      32.349  -7.723 -22.246  0.00  0.00    +0.295 HD
ENDBRANCH  14  15
ENDBRANCH   8  14
ENDBRANCH   4  12
ENDBRANCH   1   4
BRANCH   1  17
ATOM     17  CA  UNL     1      33.718 -13.333 -25.299  0.00  0.00    +0.041 C 
BRANCH  17  19
ATOM     18  OXT UNL     1      33.738 -13.512 -27.727  0.00  0.00    -0.253 OA
ATOM     19  C   UNL     1      33.230 -13.813 -26.655  0.00  0.00    +0.293 C 
BRANCH  19  20
ATOM     20  O   UNL     1      32.166 -14.651 -26.557  0.00  0.00    -0.482 OA
ATOM     21  H   UNL     1      31.622 -14.808 -27.303  0.00  0.00    +0.295 HD
ENDBRANCH  19  20
ENDBRANCH  17  19
BRANCH  17  22
ATOM     22  C   UNL     1      33.307 -14.307 -24.186  0.00  0.00    -0.006 C 
BRANCH  22  23
ATOM     23  C   UNL     1      34.485 -14.933 -23.421  0.00  0.00    +0.025 C 
BRANCH  23  24
ATOM     24  C   UNL     1      34.638 -16.422 -23.619  0.00  0.00    -0.022 C 
ATOM     25  C   UNL     1      34.357 -16.992 -24.860  0.00  0.00    -0.004 C 
ATOM     26  C   UNL     1      35.061 -17.226 -22.561  0.00  0.00    -0.004 C 
ATOM     27  C   UNL     1      34.498 -18.368 -25.044  0.00  0.00    -0.000 C 
ATOM     28  C   UNL     1      35.203 -18.601 -22.744  0.00  0.00    -0.000 C 
ATOM     29  C   UNL     1      34.921 -19.173 -23.985  0.00  0.00    -0.000 C 
ENDBRANCH  23  24
ENDBRANCH  22  23
ENDBRANCH  17  22
ENDBRANCH   1  17
TORSDOF 10
ENDMDL
MODEL 5
REMARK VINA RESULT:      -8.6      8.526     11.211
REMARK  Name = 5462501
REMARK  10 active torsions:
REMARK  status: ('A' for Active; 'I' for Inactive)
REMARK    1  A    between atoms: N_1  and  CA_4
REMARK    2  A    between atoms: N_1  and  CA_17
REMARK    3  A    between atoms: CA_4  and  C_12
REMARK    4  A    between atoms: CA_8  and  C_14
REMARK    5  A    between atoms: C_14  and  O_15
REMARK    6  A    between atoms: CA_17  and  C_19
REMARK    7  A    between atoms: CA_17  and  C_22
REMARK    8  A    between atoms: C_19  and  O_20
REMARK    9  A    between atoms: C_22  and  C_23
REMARK   10  A    between atoms: C_23  and  C_24
REMARK                            x       y       z     vdW  Elec       q    Type
REMARK                         _______ _______ _______ _____ _____    ______ ____
ROOT
ATOM      1  N   UNL     1      33.324 -15.993 -22.473  0.00  0.00    +0.399 N 
ATOM      2  H1  UNL     1      32.769 -15.764 -23.298  0.00  0.00    -0.083 HD
ATOM      3  H2  UNL     1      32.883 -16.745 -21.942  0.00  0.00    -0.083 HD
ENDROOT
BRANCH   1   4
ATOM      4  CA  UNL     1      33.414 -14.819 -21.621  0.00  0.00    +0.018 C 
ATOM      5  CB  UNL     1      34.856 -14.513 -21.266  0.00  0.00    -0.014 C 
BRANCH   4  12
ATOM      6  O   UNL     1      32.914 -13.629 -23.621  0.00  0.00    -0.277 OA
ATOM      7  N   UNL     1      32.189 -12.700 -21.629  0.00  0.00    -0.273 N 
ATOM      8  CA  UNL     1      31.424 -11.611 -22.223  0.00  0.00    +0.174 C 
ATOM      9  CB  UNL     1      30.554 -11.085 -21.087  0.00  0.00    +0.033 C 
ATOM     10  CG  UNL     1      31.380 -11.385 -19.839  0.00  0.00    +0.024 C 
ATOM     11  CD  UNL     1      32.053 -12.707 -20.176  0.00  0.00    +0.094 C 
ATOM     12  C   UNL     1      32.818 -13.670 -22.393  0.00  0.00    +0.206 C 
BRANCH   8  14
ATOM     13  OXT UNL     1      32.692  -9.557 -22.089  0.00  0.00    -0.248 OA
ATOM     14  C   UNL     1      32.409 -10.582 -22.691  0.00  0.00    +0.332 C 
BRANCH  14  15
ATOM     15  O   UNL     1      32.948 -10.942 -23.881  0.00  0.00    -0.479 OA
ATOM     16  H   UNL     1      33.575 -10.386 -24.300  0.00  0.00    +0.295 HD
ENDBRANCH  14  15
ENDBRANCH   8  14
ENDBRANCH   4  12
ENDBRANCH   1   4
BRANCH   1  17
ATOM     17  CA  UNL     1      34.646 -16.437 -22.895  0.00  0.00    +0.041 C 
BRANCH  17  19
ATOM     18  OXT UNL     1      34.953 -17.755 -24.919  0.00  0.00    -0.253 OA
ATOM     19  C   UNL     1      34.562 -16.725 -24.384  0.00  0.00    +0.293 C 
BRANCH  19  20
ATOM     20  O   UNL     1      33.974 -15.717 -25.076  0.00  0.00    -0.482 OA
ATOM     21  H   UNL     1      33.042 -15.693 -25.169  0.00  0.00    +0.295 HD
ENDBRANCH  19  20
ENDBRANCH  17  19
BRANCH  17  22
ATOM     22  C   UNL     1      35.031 -17.698 -22.108  0.00  0.00    -0.006 C 
BRANCH  22  23
ATOM     23  C   UNL     1      33.838 -18.473 -21.525  0.00  0.00    +0.025 C 
BRANCH  23  24
ATOM     24  C   UNL     1      34.217 -19.714 -20.753  0.00  0.00    -0.022 C 
ATOM     25  C   UNL     1      33.225 -20.487 -20.148  0.00  0.00    -0.004 C 
ATOM     26  C   UNL     1      35.556 -20.087 -20.644  0.00  0.00    -0.004 C 
ATOM     27  C   UNL     1      33.574 -21.634 -19.434  0.00  0.00    -0.000 C 
ATOM     28  C   UNL     1      35.904 -21.234 -19.931  0.00  0.00    -0.000 C 
ATOM     29  C   UNL     1      34.914 -22.007 -19.325  0.00  0.00    -0.000 C 
ENDBRANCH  23  24
ENDBRANCH  22  23
ENDBRANCH  17  22
ENDBRANCH   1  17
TORSDOF 10
ENDMDL
MODEL 6
REMARK VINA RESULT:      -8.4      7.947     11.090
REMARK  Name = 5462501
REMARK  10 active torsions:
REMARK  status: ('A' for Active; 'I' for Inactive)
REMARK    1  A    between atoms: N_1  and  CA_4
REMARK    2  A    between atoms: N_1  and  CA_17
REMARK    3  A    between atoms: CA_4  and  C_12
REMARK    4  A    between atoms: CA_8  and  C_14
REMARK    5  A    between atoms: C_14  and  O_15
REMARK    6  A    between atoms: CA_17  and  C_19
REMARK    7  A    between atoms: CA_17  and  C_22
REMARK    8  A    between atoms: C_19  and  O_20
REMARK    9  A    between atoms: C_22  and  C_23
REMARK   10  A    between atoms: C_23  and  C_24
REMARK                            x       y       z     vdW  Elec       q    Type
REMARK                         _______ _______ _______ _____ _____    ______ ____
ROOT
ATOM      1  N   UNL     1      35.544 -16.619 -23.017  0.00  0.00    +0.399 N 
ATOM      2  H1  UNL     1      36.029 -16.671 -22.121  0.00  0.00    -0.083 HD
ATOM      3  H2  UNL     1      36.026 -15.980 -23.650  0.00  0.00    -0.083 HD
ENDROOT
BRANCH   1   4
ATOM      4  CA  UNL     1      34.195 -16.123 -22.800  0.00  0.00    +0.018 C 
ATOM      5  CB  UNL     1      33.641 -16.613 -21.476  0.00  0.00    -0.014 C 
BRANCH   4  12
ATOM      6  O   UNL     1      34.747 -14.021 -21.827  0.00  0.00    -0.277 OA
ATOM      7  N   UNL     1      33.788 -13.992 -23.934  0.00  0.00    -0.273 N 
ATOM      8  CA  UNL     1      33.938 -12.561 -24.165  0.00  0.00    +0.174 C 
ATOM      9  CB  UNL     1      33.701 -12.384 -25.661  0.00  0.00    +0.033 C 
ATOM     10  CG  UNL     1      32.753 -13.528 -26.008  0.00  0.00    +0.024 C 
ATOM     11  CD  UNL     1      33.224 -14.658 -25.104  0.00  0.00    +0.094 C 
ATOM     12  C   UNL     1      34.277 -14.618 -22.798  0.00  0.00    +0.206 C 
BRANCH   8  14
ATOM     13  OXT UNL     1      32.014 -12.432 -22.707  0.00  0.00    -0.248 OA
ATOM     14  C   UNL     1      32.887 -11.869 -23.350  0.00  0.00    +0.332 C 
BRANCH  14  15
ATOM     15  O   UNL     1      33.035 -10.524 -23.422  0.00  0.00    -0.479 OA
ATOM     16  H   UNL     1      32.860 -10.075 -24.225  0.00  0.00    +0.295 HD
ENDBRANCH  14  15
ENDBRANCH   8  14
ENDBRANCH   4  12
ENDBRANCH   1   4
BRANCH   1  17
ATOM     17  CA  UNL     1      35.523 -17.944 -23.625  0.00  0.00    +0.041 C 
BRANCH  17  19
ATOM     18  OXT UNL     1      35.004 -17.030 -25.821  0.00  0.00    -0.253 OA
ATOM     19  C   UNL     1      34.746 -17.823 -24.924  0.00  0.00    +0.293 C 
BRANCH  19  20
ATOM     20  O   UNL     1      33.730 -18.719 -25.008  0.00  0.00    -0.482 OA
ATOM     21  H   UNL     1      33.285 -18.998 -24.231  0.00  0.00    +0.295 HD
ENDBRANCH  19  20
ENDBRANCH  17  19
BRANCH  17  22
ATOM     22  C   UNL     1      34.844 -18.930 -22.664  0.00  0.00    -0.006 C 
BRANCH  22  23
ATOM     23  C   UNL     1      35.704 -19.338 -21.457  0.00  0.00    +0.025 C 
BRANCH  23  24
ATOM     24  C   UNL     1      35.041 -20.317 -20.519  0.00  0.00    -0.022 C 
ATOM     25  C   UNL     1      35.819 -21.196 -19.765  0.00  0.00    -0.004 C 
ATOM     26  C   UNL     1      33.652 -20.341 -20.404  0.00  0.00    -0.004 C 
ATOM     27  C   UNL     1      35.207 -22.100 -18.897  0.00  0.00    -0.000 C 
ATOM     28  C   UNL     1      33.040 -21.245 -19.535  0.00  0.00    -0.000 C 
ATOM     29  C   UNL     1      33.817 -22.125 -18.782  0.00  0.00    -0.000 C 
ENDBRANCH  23  24
ENDBRANCH  22  23
ENDBRANCH  17  22
ENDBRANCH   1  17
TORSDOF 10
ENDMDL
MODEL 7
REMARK VINA RESULT:      -8.4      9.390     12.665
REMARK  Name = 5462501
REMARK  10 active torsions:
REMARK  status: ('A' for Active; 'I' for Inactive)
REMARK    1  A    between atoms: N_1  and  CA_4
REMARK    2  A    between atoms: N_1  and  CA_17
REMARK    3  A    between atoms: CA_4  and  C_12
REMARK    4  A    between atoms: CA_8  and  C_14
REMARK    5  A    between atoms: C_14  and  O_15
REMARK    6  A    between atoms: CA_17  and  C_19
REMARK    7  A    between atoms: CA_17  and  C_22
REMARK    8  A    between atoms: C_19  and  O_20
REMARK    9  A    between atoms: C_22  and  C_23
REMARK   10  A    between atoms: C_23  and  C_24
REMARK                            x       y       z     vdW  Elec       q    Type
REMARK                         _______ _______ _______ _____ _____    ______ ____
ROOT
ATOM      1  N   UNL     1      33.082 -14.952 -23.846  0.00  0.00    +0.399 N 
ATOM      2  H1  UNL     1      32.908 -14.629 -24.798  0.00  0.00    -0.083 HD
ATOM      3  H2  UNL     1      32.270 -15.452 -23.483  0.00  0.00    -0.083 HD
ENDROOT
BRANCH   1   4
ATOM      4  CA  UNL     1      33.334 -13.802 -22.993  0.00  0.00    +0.018 C 
ATOM      5  CB  UNL     1      34.503 -14.060 -22.063  0.00  0.00    -0.014 C 
BRANCH   4  12
ATOM      6  O   UNL     1      34.303 -12.815 -24.931  0.00  0.00    -0.277 OA
ATOM      7  N   UNL     1      33.156 -11.412 -23.491  0.00  0.00    -0.273 N 
ATOM      8  CA  UNL     1      33.226 -10.221 -24.328  0.00  0.00    +0.174 C 
ATOM      9  CB  UNL     1      32.204  -9.264 -23.726  0.00  0.00    +0.033 C 
ATOM     10  CG  UNL     1      32.181  -9.652 -22.250  0.00  0.00    +0.024 C 
ATOM     11  CD  UNL     1      32.376 -11.161 -22.283  0.00  0.00    +0.094 C 
ATOM     12  C   UNL     1      33.645 -12.642 -23.903  0.00  0.00    +0.206 C 
BRANCH   8  14
ATOM     13  OXT UNL     1      34.976  -8.801 -23.454  0.00  0.00    -0.248 OA
ATOM     14  C   UNL     1      34.622  -9.686 -24.218  0.00  0.00    +0.332 C 
BRANCH  14  15
ATOM     15  O   UNL     1      35.447 -10.318 -25.088  0.00  0.00    -0.479 OA
ATOM     16  H   UNL     1      36.163  -9.855 -25.476  0.00  0.00    +0.295 HD
ENDBRANCH  14  15
ENDBRANCH   8  14
ENDBRANCH   4  12
ENDBRANCH   1   4
BRANCH   1  17
ATOM     17  CA  UNL     1      34.221 -15.861 -23.851  0.00  0.00    +0.041 C 
BRANCH  17  19
ATOM     18  OXT UNL     1      34.762 -17.540 -25.528  0.00  0.00    -0.253 OA
ATOM     19  C   UNL     1      34.330 -16.427 -25.256  0.00  0.00    +0.293 C 
BRANCH  19  20
ATOM     20  O   UNL     1      33.865 -15.570 -26.199  0.00  0.00    -0.482 OA
ATOM     21  H   UNL     1      34.090 -14.661 -26.159  0.00  0.00    +0.295 HD
ENDBRANCH  19  20
ENDBRANCH  17  19
BRANCH  17  22
ATOM     22  C   UNL     1      33.983 -16.975 -22.822  0.00  0.00    -0.006 C 
BRANCH  22  23
ATOM     23  C   UNL     1      35.267 -17.603 -22.255  0.00  0.00    +0.025 C 
BRANCH  23  24
ATOM     24  C   UNL     1      35.041 -18.828 -21.403  0.00  0.00    -0.022 C 
ATOM     25  C   UNL     1      36.132 -19.538 -20.901  0.00  0.00    -0.004 C 
ATOM     26  C   UNL     1      33.743 -19.249 -21.118  0.00  0.00    -0.004 C 
ATOM     27  C   UNL     1      35.924 -20.671 -20.114  0.00  0.00    -0.000 C 
ATOM     28  C   UNL     1      33.535 -20.381 -20.330  0.00  0.00    -0.000 C 
ATOM     29  C   UNL     1      34.625 -21.093 -19.828  0.00  0.00    -0.000 C 
ENDBRANCH  23  24
ENDBRANCH  22  23
ENDBRANCH  17  22
ENDBRANCH   1  17
TORSDOF 10
ENDMDL
MODEL 8
REMARK VINA RESULT:      -8.4      9.314     12.374
REMARK  Name = 5462501
REMARK  10 active torsions:
REMARK  status: ('A' for Active; 'I' for Inactive)
REMARK    1  A    between atoms: N_1  and  CA_4
REMARK    2  A    between atoms: N_1  and  CA_17
REMARK    3  A    between atoms: CA_4  and  C_12
REMARK    4  A    between atoms: CA_8  and  C_14
REMARK    5  A    between atoms: C_14  and  O_15
REMARK    6  A    between atoms: CA_17  and  C_19
REMARK    7  A    between atoms: CA_17  and  C_22
REMARK    8  A    between atoms: C_19  and  O_20
REMARK    9  A    between atoms: C_22  and  C_23
REMARK   10  A    between atoms: C_23  and  C_24
REMARK                            x       y       z     vdW  Elec       q    Type
REMARK                         _______ _______ _______ _____ _____    ______ ____
ROOT
ATOM      1  N   UNL     1      34.183 -14.067 -24.573  0.00  0.00    +0.399 N 
ATOM      2  H1  UNL     1      34.831 -13.853 -25.331  0.00  0.00    -0.083 HD
ATOM      3  H2  UNL     1      34.692 -14.289 -23.717  0.00  0.00    -0.083 HD
ENDROOT
BRANCH   1   4
ATOM      4  CA  UNL     1      33.380 -15.220 -24.944  0.00  0.00    +0.018 C 
ATOM      5  CB  UNL     1      32.928 -15.126 -26.389  0.00  0.00    -0.014 C 
BRANCH   4  12
ATOM      6  O   UNL     1      34.671 -17.060 -25.729  0.00  0.00    -0.277 OA
ATOM      7  N   UNL     1      34.506 -16.786 -23.437  0.00  0.00    -0.273 N 
ATOM      8  CA  UNL     1      35.453 -17.833 -23.076  0.00  0.00    +0.174 C 
ATOM      9  CB  UNL     1      35.773 -17.575 -21.607  0.00  0.00    +0.033 C 
ATOM     10  CG  UNL     1      34.502 -16.918 -21.077  0.00  0.00    +0.024 C 
ATOM     11  CD  UNL     1      34.025 -16.079 -22.253  0.00  0.00    +0.094 C 
ATOM     12  C   UNL     1      34.248 -16.437 -24.754  0.00  0.00    +0.206 C 
BRANCH   8  14
ATOM     13  OXT UNL     1      34.056 -19.699 -22.435  0.00  0.00    -0.248 OA
ATOM     14  C   UNL     1      34.756 -19.146 -23.270  0.00  0.00    +0.332 C 
BRANCH  14  15
ATOM     15  O   UNL     1      35.008 -19.642 -24.505  0.00  0.00    -0.479 OA
ATOM     16  H   UNL     1      34.480 -20.336 -24.848  0.00  0.00    +0.295 HD
ENDBRANCH  14  15
ENDBRANCH   8  14
ENDBRANCH   4  12
ENDBRANCH   1   4
BRANCH   1  17
ATOM     17  CA  UNL     1      33.343 -12.902 -24.322  0.00  0.00    +0.041 C 
BRANCH  17  19
ATOM     18  OXT UNL     1      34.145 -11.473 -26.123  0.00  0.00    -0.253 OA
ATOM     19  C   UNL     1      34.056 -11.704 -24.923  0.00  0.00    +0.293 C 
BRANCH  19  20
ATOM     20  O   UNL     1      34.574 -10.879 -23.978  0.00  0.00    -0.482 OA
ATOM     21  H   UNL     1      35.414 -10.484 -24.109  0.00  0.00    +0.295 HD
ENDBRANCH  19  20
ENDBRANCH  17  19
BRANCH  17  22
ATOM     22  C   UNL     1      33.154 -12.732 -22.809  0.00  0.00    -0.006 C 
BRANCH  22  23
ATOM     23  C   UNL     1      31.754 -12.251 -22.392  0.00  0.00    +0.025 C 
BRANCH  23  24
ATOM     24  C   UNL     1      31.752 -11.173 -21.335  0.00  0.00    -0.022 C 
ATOM     25  C   UNL     1      31.522 -11.507 -20.000  0.00  0.00    -0.004 C 
ATOM     26  C   UNL     1      31.980  -9.845 -21.693  0.00  0.00    -0.004 C 
ATOM     27  C   UNL     1      31.520 -10.511 -19.023  0.00  0.00    -0.000 C 
ATOM     28  C   UNL     1      31.979  -8.849 -20.715  0.00  0.00    -0.000 C 
ATOM     29  C   UNL     1      31.748  -9.182 -19.380  0.00  0.00    -0.000 C 
ENDBRANCH  23  24
ENDBRANCH  22  23
ENDBRANCH  17  22
ENDBRANCH   1  17
TORSDOF 10
ENDMDL
MODEL 9
REMARK VINA RESULT:      -8.4      2.611      6.130
REMARK  Name = 5462501
REMARK  10 active torsions:
REMARK  status: ('A' for Active; 'I' for Inactive)
REMARK    1  A    between atoms: N_1  and  CA_4
REMARK    2  A    between atoms: N_1  and  CA_17
REMARK    3  A    between atoms: CA_4  and  C_12
REMARK    4  A    between atoms: CA_8  and  C_14
REMARK    5  A    between atoms: C_14  and  O_15
REMARK    6  A    between atoms: CA_17  and  C_19
REMARK    7  A    between atoms: CA_17  and  C_22
REMARK    8  A    between atoms: C_19  and  O_20
REMARK    9  A    between atoms: C_22  and  C_23
REMARK   10  A    between atoms: C_23  and  C_24
REMARK                            x       y       z     vdW  Elec       q    Type
REMARK                         _______ _______ _______ _____ _____    ______ ____
ROOT
ATOM      1  N   UNL     1      35.134 -22.401 -16.402  0.00  0.00    +0.399 N 
ATOM      2  H1  UNL     1      35.285 -21.404 -16.559  0.00  0.00    -0.083 HD
ATOM      3  H2  UNL     1      34.436 -22.547 -15.673  0.00  0.00    -0.083 HD
ENDROOT
BRANCH   1   4
ATOM      4  CA  UNL     1      36.383 -23.009 -15.973  0.00  0.00    +0.018 C 
ATOM      5  CB  UNL     1      37.542 -22.044 -16.133  0.00  0.00    -0.014 C 
BRANCH   4  12
ATOM      6  O   UNL     1      35.247 -22.962 -13.882  0.00  0.00    -0.277 OA
ATOM      7  N   UNL     1      37.212 -24.180 -13.990  0.00  0.00    -0.273 N 
ATOM      8  CA  UNL     1      37.123 -24.758 -12.655  0.00  0.00    +0.174 C 
ATOM      9  CB  UNL     1      38.141 -25.893 -12.656  0.00  0.00    +0.033 C 
ATOM     10  CG  UNL     1      39.194 -25.424 -13.656  0.00  0.00    +0.024 C 
ATOM     11  CD  UNL     1      38.375 -24.692 -14.709  0.00  0.00    +0.094 C 
ATOM     12  C   UNL     1      36.215 -23.377 -14.521  0.00  0.00    +0.206 C 
BRANCH   8  14
ATOM     13  OXT UNL     1      38.282 -22.774 -11.903  0.00  0.00    -0.248 OA
ATOM     14  C   UNL     1      37.493 -23.680 -11.681  0.00  0.00    +0.332 C 
BRANCH  14  15
ATOM     15  O   UNL     1      36.831 -23.846 -10.510  0.00  0.00    -0.479 OA
ATOM     16  H   UNL     1      36.194 -24.527 -10.424  0.00  0.00    +0.295 HD
ENDBRANCH  14  15
ENDBRANCH   8  14
ENDBRANCH   4  12
ENDBRANCH   1   4
BRANCH   1  17
ATOM     17  CA  UNL     1      34.651 -23.010 -17.635  0.00  0.00    +0.041 C 
BRANCH  17  19
ATOM     18  OXT UNL     1      36.010 -21.693 -19.167  0.00  0.00    -0.253 OA
ATOM     19  C   UNL     1      34.903 -22.011 -18.751  0.00  0.00    +0.293 C 
BRANCH  19  20
ATOM     20  O   UNL     1      33.753 -21.513 -19.273  0.00  0.00    -0.482 OA
ATOM     21  H   UNL     1      33.785 -20.914 -19.992  0.00  0.00    +0.295 HD
ENDBRANCH  19  20
ENDBRANCH  17  19
BRANCH  17  22
ATOM     22  C   UNL     1      33.154 -23.316 -17.494  0.00  0.00    -0.006 C 
BRANCH  22  23
ATOM     23  C   UNL     1      32.656 -23.410 -16.043  0.00  0.00    +0.025 C 
BRANCH  23  24
ATOM     24  C   UNL     1      31.161 -23.554 -15.902  0.00  0.00    -0.022 C 
ATOM     25  C   UNL     1      30.629 -24.594 -15.139  0.00  0.00    -0.004 C 
ATOM     26  C   UNL     1      30.310 -22.646 -16.532  0.00  0.00    -0.004 C 
ATOM     27  C   UNL     1      29.247 -24.727 -15.009  0.00  0.00    -0.000 C 
ATOM     28  C   UNL     1      28.928 -22.779 -16.401  0.00  0.00    -0.000 C 
ATOM     29  C   UNL     1      28.396 -23.819 -15.640  0.00  0.00    -0.000 C 
ENDBRANCH  23  24
ENDBRANCH  22  23
ENDBRANCH  17  22
ENDBRANCH   1  17
TORSDOF 10
ENDMDL
