MODEL 1
REMARK VINA RESULT:      -8.2      0.000      0.000
REMARK  Name = 1819
REMARK  7 active torsions:
REMARK  status: ('A' for Active; 'I' for Inactive)
REMARK    1  A    between atoms: C_3  and  C_12
REMARK    2  A    between atoms: C_12  and  C_13
REMARK    3  A    between atoms: C_13  and  C_14
REMARK    4  A    between atoms: C_14  and  O_15
REMARK    5  A    between atoms: O_15  and  P_16
REMARK    6  A    between atoms: P_16  and  O_18
REMARK    7  A    between atoms: P_16  and  O_20
REMARK                            x       y       z     vdW  Elec       q    Type
REMARK                         _______ _______ _______ _____ _____    ______ ____
ROOT
ATOM      1  F   UNL     1      33.195 -22.650 -18.846  0.00  0.00    -0.204 F 
ATOM      2  N   UNL     1      33.046 -23.781 -13.507  0.00  0.00    -0.312 N 
ATOM      3  C   UNL     1      35.053 -23.967 -14.437  0.00  0.00    -0.006 C 
ATOM      4  C   UNL     1      34.131 -23.570 -15.445  0.00  0.00    +0.013 C 
ATOM      5  C   UNL     1      32.879 -23.461 -14.836  0.00  0.00    +0.048 C 
ATOM      6  C   UNL     1      34.356 -24.088 -13.257  0.00  0.00    +0.058 C 
ATOM      7  C   UNL     1      34.241 -23.292 -16.822  0.00  0.00    +0.031 C 
ATOM      8  C   UNL     1      31.727 -23.086 -15.537  0.00  0.00    +0.017 C 
ATOM      9  C   UNL     1      33.098 -22.917 -17.537  0.00  0.00    +0.140 C 
ATOM     10  C   UNL     1      31.861 -22.815 -16.902  0.00  0.00    +0.031 C 
ATOM     11  H   UNL     1      32.327 -23.787 -12.835  0.00  0.00    +0.152 HD
ENDROOT
BRANCH   3  12
ATOM     12  C   UNL     1      36.500 -24.208 -14.615  0.00  0.00    +0.030 C 
BRANCH  12  13
ATOM     13  C   UNL     1      36.827 -25.667 -14.975  0.00  0.00    +0.037 C 
BRANCH  13  14
ATOM     14  C   UNL     1      37.624 -26.370 -13.885  0.00  0.00    +0.154 C 
BRANCH  14  15
ATOM     15  O   UNL     1      38.824 -26.879 -14.449  0.00  0.00    -0.273 OA
BRANCH  15  16
ATOM     16  P   UNL     1      40.108 -25.900 -14.535  0.00  0.00    +0.473 P 
ATOM     17  O   UNL     1      39.972 -24.605 -13.788  0.00  0.00    -0.227 OA
BRANCH  16  18
ATOM     18  O   UNL     1      40.377 -25.757 -16.124  0.00  0.00    -0.303 OA
ATOM     19  H   UNL     1      39.708 -26.262 -16.611  0.00  0.00    +0.222 HD
ENDBRANCH  16  18
BRANCH  16  20
ATOM     20  O   UNL     1      41.318 -26.851 -14.038  0.00  0.00    -0.303 OA
ATOM     21  H   UNL     1      42.159 -26.508 -14.376  0.00  0.00    +0.222 HD
ENDBRANCH  16  20
ENDBRANCH  15  16
ENDBRANCH  14  15
ENDBRANCH  13  14
ENDBRANCH  12  13
ENDBRANCH   3  12
TORSDOF 7
ENDMDL
MODEL 2
REMARK VINA RESULT:      -8.1      3.585      4.521
REMARK  Name = 1819
REMARK  7 active torsions:
REMARK  status: ('A' for Active; 'I' for Inactive)
REMARK    1  A    between atoms: C_3  and  C_12
REMARK    2  A    between atoms: C_12  and  C_13
REMARK    3  A    between atoms: C_13  and  C_14
REMARK    4  A    between atoms: C_14  and  O_15
REMARK    5  A    between atoms: O_15  and  P_16
REMARK    6  A    between atoms: P_16  and  O_18
REMARK    7  A    between atoms: P_16  and  O_20
REMARK                            x       y       z     vdW  Elec       q    Type
REMARK                         _______ _______ _______ _____ _____    ______ ____
ROOT
ATOM      1  F   UNL     1      37.151 -20.436 -20.184  0.00  0.00    -0.204 F 
ATOM      2  N   UNL     1      32.634 -22.648 -18.060  0.00  0.00    -0.312 N 
ATOM      3  C   UNL     1      34.494 -23.072 -16.926  0.00  0.00    -0.006 C 
ATOM      4  C   UNL     1      34.832 -22.267 -18.049  0.00  0.00    +0.013 C 
ATOM      5  C   UNL     1      33.647 -22.015 -18.745  0.00  0.00    +0.048 C 
ATOM      6  C   UNL     1      33.136 -23.290 -16.961  0.00  0.00    +0.058 C 
ATOM      7  C   UNL     1      36.035 -21.725 -18.542  0.00  0.00    +0.031 C 
ATOM      8  C   UNL     1      33.606 -21.246 -19.913  0.00  0.00    +0.017 C 
ATOM      9  C   UNL     1      36.010 -20.955 -19.710  0.00  0.00    +0.140 C 
ATOM     10  C   UNL     1      34.812 -20.719 -20.383  0.00  0.00    +0.031 C 
ATOM     11  H   UNL     1      31.686 -22.640 -18.325  0.00  0.00    +0.152 HD
ENDROOT
BRANCH   3  12
ATOM     12  C   UNL     1      35.425 -23.588 -15.902  0.00  0.00    +0.030 C 
BRANCH  12  13
ATOM     13  C   UNL     1      35.067 -23.132 -14.477  0.00  0.00    +0.037 C 
BRANCH  13  14
ATOM     14  C   UNL     1      34.656 -24.292 -13.582  0.00  0.00    +0.154 C 
BRANCH  14  15
ATOM     15  O   UNL     1      34.701 -23.866 -12.228  0.00  0.00    -0.273 OA
BRANCH  15  16
ATOM     16  P   UNL     1      35.970 -24.301 -11.326  0.00  0.00    +0.473 P 
ATOM     17  O   UNL     1      37.112 -23.328 -11.325  0.00  0.00    -0.227 OA
BRANCH  16  18
ATOM     18  O   UNL     1      36.328 -25.787 -11.856  0.00  0.00    -0.303 OA
ATOM     19  H   UNL     1      37.014 -25.730 -12.540  0.00  0.00    +0.222 HD
ENDBRANCH  16  18
BRANCH  16  20
ATOM     20  O   UNL     1      35.304 -24.574  -9.878  0.00  0.00    -0.303 OA
ATOM     21  H   UNL     1      35.854 -24.172  -9.188  0.00  0.00    +0.222 HD
ENDBRANCH  16  20
ENDBRANCH  15  16
ENDBRANCH  14  15
ENDBRANCH  13  14
ENDBRANCH  12  13
ENDBRANCH   3  12
TORSDOF 7
ENDMDL
MODEL 3
REMARK VINA RESULT:      -8.1      2.182      2.726
REMARK  Name = 1819
REMARK  7 active torsions:
REMARK  status: ('A' for Active; 'I' for Inactive)
REMARK    1  A    between atoms: C_3  and  C_12
REMARK    2  A    between atoms: C_12  and  C_13
REMARK    3  A    between atoms: C_13  and  C_14
REMARK    4  A    between atoms: C_14  and  O_15
REMARK    5  A    between atoms: O_15  and  P_16
REMARK    6  A    between atoms: P_16  and  O_18
REMARK    7  A    between atoms: P_16  and  O_20
REMARK                            x       y       z     vdW  Elec       q    Type
REMARK                         _______ _______ _______ _____ _____    ______ ____
ROOT
ATOM      1  F   UNL     1      37.043 -20.471 -20.037  0.00  0.00    -0.204 F 
ATOM      2  N   UNL     1      33.517 -23.321 -16.996  0.00  0.00    -0.312 N 
ATOM      3  C   UNL     1      35.550 -23.134 -16.125  0.00  0.00    -0.006 C 
ATOM      4  C   UNL     1      35.535 -22.448 -17.371  0.00  0.00    +0.013 C 
ATOM      5  C   UNL     1      34.248 -22.581 -17.897  0.00  0.00    +0.048 C 
ATOM      6  C   UNL     1      34.295 -23.660 -15.922  0.00  0.00    +0.058 C 
ATOM      7  C   UNL     1      36.496 -21.724 -18.105  0.00  0.00    +0.031 C 
ATOM      8  C   UNL     1      33.872 -22.023 -19.124  0.00  0.00    +0.017 C 
ATOM      9  C   UNL     1      36.135 -21.161 -19.334  0.00  0.00    +0.140 C 
ATOM     10  C   UNL     1      34.842 -21.309 -19.835  0.00  0.00    +0.031 C 
ATOM     11  H   UNL     1      32.571 -23.570 -17.108  0.00  0.00    +0.152 HD
ENDROOT
BRANCH   3  12
ATOM     12  C   UNL     1      36.700 -23.265 -15.207  0.00  0.00    +0.030 C 
BRANCH  12  13
ATOM     13  C   UNL     1      37.171 -24.719 -15.036  0.00  0.00    +0.037 C 
BRANCH  13  14
ATOM     14  C   UNL     1      38.047 -24.904 -13.804  0.00  0.00    +0.154 C 
BRANCH  14  15
ATOM     15  O   UNL     1      38.922 -26.002 -14.023  0.00  0.00    -0.273 OA
BRANCH  15  16
ATOM     16  P   UNL     1      40.412 -25.699 -14.573  0.00  0.00    +0.473 P 
ATOM     17  O   UNL     1      41.006 -24.399 -14.116  0.00  0.00    -0.227 OA
BRANCH  16  18
ATOM     18  O   UNL     1      40.273 -25.872 -16.175  0.00  0.00    -0.303 OA
ATOM     19  H   UNL     1      41.154 -25.981 -16.566  0.00  0.00    +0.222 HD
ENDBRANCH  16  18
BRANCH  16  20
ATOM     20  O   UNL     1      41.232 -27.020 -14.128  0.00  0.00    -0.303 OA
ATOM     21  H   UNL     1      41.337 -27.024 -13.163  0.00  0.00    +0.222 HD
ENDBRANCH  16  20
ENDBRANCH  15  16
ENDBRANCH  14  15
ENDBRANCH  13  14
ENDBRANCH  12  13
ENDBRANCH   3  12
TORSDOF 7
ENDMDL
MODEL 4
REMARK VINA RESULT:      -8.1      4.040      5.119
REMARK  Name = 1819
REMARK  7 active torsions:
REMARK  status: ('A' for Active; 'I' for Inactive)
REMARK    1  A    between atoms: C_3  and  C_12
REMARK    2  A    between atoms: C_12  and  C_13
REMARK    3  A    between atoms: C_13  and  C_14
REMARK    4  A    between atoms: C_14  and  O_15
REMARK    5  A    between atoms: O_15  and  P_16
REMARK    6  A    between atoms: P_16  and  O_18
REMARK    7  A    between atoms: P_16  and  O_20
REMARK                            x       y       z     vdW  Elec       q    Type
REMARK                         _______ _______ _______ _____ _____    ______ ____
ROOT
ATOM      1  F   UNL     1      36.027 -18.263 -22.145  0.00  0.00    -0.204 F 
ATOM      2  N   UNL     1      33.262 -21.915 -19.174  0.00  0.00    -0.312 N 
ATOM      3  C   UNL     1      35.429 -21.795 -18.711  0.00  0.00    -0.006 C 
ATOM      4  C   UNL     1      35.142 -20.858 -19.742  0.00  0.00    +0.013 C 
ATOM      5  C   UNL     1      33.776 -20.954 -20.015  0.00  0.00    +0.048 C 
ATOM      6  C   UNL     1      34.253 -22.429 -18.383  0.00  0.00    +0.058 C 
ATOM      7  C   UNL     1      35.917 -19.936 -20.473  0.00  0.00    +0.031 C 
ATOM      8  C   UNL     1      33.142 -20.168 -20.984  0.00  0.00    +0.017 C 
ATOM      9  C   UNL     1      35.297 -19.144 -21.447  0.00  0.00    +0.140 C 
ATOM     10  C   UNL     1      33.931 -19.260 -21.697  0.00  0.00    +0.031 C 
ATOM     11  H   UNL     1      32.317 -22.192 -19.147  0.00  0.00    +0.152 HD
ENDROOT
BRANCH   3  12
ATOM     12  C   UNL     1      36.748 -22.051 -18.096  0.00  0.00    +0.030 C 
BRANCH  12  13
ATOM     13  C   UNL     1      36.739 -21.899 -16.566  0.00  0.00    +0.037 C 
BRANCH  13  14
ATOM     14  C   UNL     1      37.264 -23.140 -15.857  0.00  0.00    +0.154 C 
BRANCH  14  15
ATOM     15  O   UNL     1      36.196 -24.061 -15.691  0.00  0.00    -0.273 OA
BRANCH  15  16
ATOM     16  P   UNL     1      36.485 -25.438 -14.895  0.00  0.00    +0.473 P 
ATOM     17  O   UNL     1      36.246 -26.692 -15.685  0.00  0.00    -0.227 OA
BRANCH  16  18
ATOM     18  O   UNL     1      35.608 -25.294 -13.544  0.00  0.00    -0.303 OA
ATOM     19  H   UNL     1      34.671 -25.440 -13.749  0.00  0.00    +0.222 HD
ENDBRANCH  16  18
BRANCH  16  20
ATOM     20  O   UNL     1      38.004 -25.239 -14.374  0.00  0.00    -0.303 OA
ATOM     21  H   UNL     1      38.003 -25.128 -13.410  0.00  0.00    +0.222 HD
ENDBRANCH  16  20
ENDBRANCH  15  16
ENDBRANCH  14  15
ENDBRANCH  13  14
ENDBRANCH  12  13
ENDBRANCH   3  12
TORSDOF 7
ENDMDL
MODEL 5
REMARK VINA RESULT:      -8.1      2.929      3.984
REMARK  Name = 1819
REMARK  7 active torsions:
REMARK  status: ('A' for Active; 'I' for Inactive)
REMARK    1  A    between atoms: C_3  and  C_12
REMARK    2  A    between atoms: C_12  and  C_13
REMARK    3  A    between atoms: C_13  and  C_14
REMARK    4  A    between atoms: C_14  and  O_15
REMARK    5  A    between atoms: O_15  and  P_16
REMARK    6  A    between atoms: P_16  and  O_18
REMARK    7  A    between atoms: P_16  and  O_20
REMARK                            x       y       z     vdW  Elec       q    Type
REMARK                         _______ _______ _______ _____ _____    ______ ____
ROOT
ATOM      1  F   UNL     1      36.952 -19.940 -20.591  0.00  0.00    -0.204 F 
ATOM      2  N   UNL     1      32.602 -22.413 -18.408  0.00  0.00    -0.312 N 
ATOM      3  C   UNL     1      34.525 -22.854 -17.391  0.00  0.00    -0.006 C 
ATOM      4  C   UNL     1      34.787 -21.969 -18.473  0.00  0.00    +0.013 C 
ATOM      5  C   UNL     1      33.564 -21.709 -19.096  0.00  0.00    +0.048 C 
ATOM      6  C   UNL     1      33.173 -23.108 -17.376  0.00  0.00    +0.058 C 
ATOM      7  C   UNL     1      35.951 -21.363 -18.986  0.00  0.00    +0.031 C 
ATOM      8  C   UNL     1      33.447 -20.869 -20.208  0.00  0.00    +0.017 C 
ATOM      9  C   UNL     1      35.849 -20.521 -20.099  0.00  0.00    +0.140 C 
ATOM     10  C   UNL     1      34.615 -20.278 -20.699  0.00  0.00    +0.031 C 
ATOM     11  H   UNL     1      31.642 -22.416 -18.627  0.00  0.00    +0.152 HD
ENDROOT
BRANCH   3  12
ATOM     12  C   UNL     1      35.518 -23.407 -16.447  0.00  0.00    +0.030 C 
BRANCH  12  13
ATOM     13  C   UNL     1      35.028 -23.406 -14.988  0.00  0.00    +0.037 C 
BRANCH  13  14
ATOM     14  C   UNL     1      35.511 -24.624 -14.213  0.00  0.00    +0.154 C 
BRANCH  14  15
ATOM     15  O   UNL     1      36.858 -24.893 -14.573  0.00  0.00    -0.273 OA
BRANCH  15  16
ATOM     16  P   UNL     1      37.343 -26.434 -14.640  0.00  0.00    +0.473 P 
ATOM     17  O   UNL     1      38.823 -26.629 -14.794  0.00  0.00    -0.227 OA
BRANCH  16  18
ATOM     18  O   UNL     1      36.434 -27.073 -15.815  0.00  0.00    -0.303 OA
ATOM     19  H   UNL     1      36.247 -28.002 -15.611  0.00  0.00    +0.222 HD
ENDBRANCH  16  18
BRANCH  16  20
ATOM     20  O   UNL     1      36.707 -27.068 -13.294  0.00  0.00    -0.303 OA
ATOM     21  H   UNL     1      36.879 -26.474 -12.546  0.00  0.00    +0.222 HD
ENDBRANCH  16  20
ENDBRANCH  15  16
ENDBRANCH  14  15
ENDBRANCH  13  14
ENDBRANCH  12  13
ENDBRANCH   3  12
TORSDOF 7
ENDMDL
MODEL 6
REMARK VINA RESULT:      -8.1      8.147      9.499
REMARK  Name = 1819
REMARK  7 active torsions:
REMARK  status: ('A' for Active; 'I' for Inactive)
REMARK    1  A    between atoms: C_3  and  C_12
REMARK    2  A    between atoms: C_12  and  C_13
REMARK    3  A    between atoms: C_13  and  C_14
REMARK    4  A    between atoms: C_14  and  O_15
REMARK    5  A    between atoms: O_15  and  P_16
REMARK    6  A    between atoms: P_16  and  O_18
REMARK    7  A    between atoms: P_16  and  O_20
REMARK                            x       y       z     vdW  Elec       q    Type
REMARK                         _______ _______ _______ _____ _____    ______ ____
ROOT
ATOM      1  F   UNL     1      32.497 -14.166 -20.255  0.00  0.00    -0.204 F 
ATOM      2  N   UNL     1      35.529 -16.996 -23.804  0.00  0.00    -0.312 N 
ATOM      3  C   UNL     1      34.918 -18.131 -21.998  0.00  0.00    -0.006 C 
ATOM      4  C   UNL     1      34.385 -16.816 -21.898  0.00  0.00    +0.013 C 
ATOM      5  C   UNL     1      34.784 -16.124 -23.044  0.00  0.00    +0.048 C 
ATOM      6  C   UNL     1      35.616 -18.211 -23.181  0.00  0.00    +0.058 C 
ATOM      7  C   UNL     1      33.601 -16.145 -20.939  0.00  0.00    +0.031 C 
ATOM      8  C   UNL     1      34.434 -14.790 -23.280  0.00  0.00    +0.017 C 
ATOM      9  C   UNL     1      33.244 -14.810 -21.162  0.00  0.00    +0.140 C 
ATOM     10  C   UNL     1      33.655 -14.145 -22.315  0.00  0.00    +0.031 C 
ATOM     11  H   UNL     1      35.940 -16.777 -24.672  0.00  0.00    +0.152 HD
ENDROOT
BRANCH   3  12
ATOM     12  C   UNL     1      34.758 -19.222 -21.014  0.00  0.00    +0.030 C 
BRANCH  12  13
ATOM     13  C   UNL     1      36.090 -19.888 -20.631  0.00  0.00    +0.037 C 
BRANCH  13  14
ATOM     14  C   UNL     1      35.892 -21.246 -19.972  0.00  0.00    +0.154 C 
BRANCH  14  15
ATOM     15  O   UNL     1      34.501 -21.470 -19.792  0.00  0.00    -0.273 OA
BRANCH  15  16
ATOM     16  P   UNL     1      34.035 -22.610 -18.743  0.00  0.00    +0.473 P 
ATOM     17  O   UNL     1      34.900 -22.742 -17.524  0.00  0.00    -0.227 OA
BRANCH  16  18
ATOM     18  O   UNL     1      33.911 -23.942 -19.652  0.00  0.00    -0.303 OA
ATOM     19  H   UNL     1      33.959 -23.699 -20.590  0.00  0.00    +0.222 HD
ENDBRANCH  16  18
BRANCH  16  20
ATOM     20  O   UNL     1      32.494 -22.216 -18.449  0.00  0.00    -0.303 OA
ATOM     21  H   UNL     1      31.914 -22.713 -19.047  0.00  0.00    +0.222 HD
ENDBRANCH  16  20
ENDBRANCH  15  16
ENDBRANCH  14  15
ENDBRANCH  13  14
ENDBRANCH  12  13
ENDBRANCH   3  12
TORSDOF 7
ENDMDL
MODEL 7
REMARK VINA RESULT:      -8.0      1.960      2.576
REMARK  Name = 1819
REMARK  7 active torsions:
REMARK  status: ('A' for Active; 'I' for Inactive)
REMARK    1  A    between atoms: C_3  and  C_12
REMARK    2  A    between atoms: C_12  and  C_13
REMARK    3  A    between atoms: C_13  and  C_14
REMARK    4  A    between atoms: C_14  and  O_15
REMARK    5  A    between atoms: O_15  and  P_16
REMARK    6  A    between atoms: P_16  and  O_18
REMARK    7  A    between atoms: P_16  and  O_20
REMARK                            x       y       z     vdW  Elec       q    Type
REMARK                         _______ _______ _______ _____ _____    ______ ____
ROOT
ATOM      1  F   UNL     1      31.730 -23.581 -16.887  0.00  0.00    -0.204 F 
ATOM      2  N   UNL     1      36.823 -21.831 -17.784  0.00  0.00    -0.312 N 
ATOM      3  C   UNL     1      36.537 -22.902 -15.862  0.00  0.00    -0.006 C 
ATOM      4  C   UNL     1      35.287 -22.865 -16.540  0.00  0.00    +0.013 C 
ATOM      5  C   UNL     1      35.493 -22.186 -17.743  0.00  0.00    +0.048 C 
ATOM      6  C   UNL     1      37.462 -22.259 -16.653  0.00  0.00    +0.058 C 
ATOM      7  C   UNL     1      33.996 -23.344 -16.244  0.00  0.00    +0.031 C 
ATOM      8  C   UNL     1      34.469 -21.963 -18.670  0.00  0.00    +0.017 C 
ATOM      9  C   UNL     1      32.961 -23.127 -17.161  0.00  0.00    +0.140 C 
ATOM     10  C   UNL     1      33.196 -22.448 -18.355  0.00  0.00    +0.031 C 
ATOM     11  H   UNL     1      37.251 -21.339 -18.523  0.00  0.00    +0.152 HD
ENDROOT
BRANCH   3  12
ATOM     12  C   UNL     1      36.806 -23.518 -14.546  0.00  0.00    +0.030 C 
BRANCH  12  13
ATOM     13  C   UNL     1      37.072 -25.030 -14.632  0.00  0.00    +0.037 C 
BRANCH  13  14
ATOM     14  C   UNL     1      37.943 -25.532 -13.488  0.00  0.00    +0.154 C 
BRANCH  14  15
ATOM     15  O   UNL     1      38.907 -26.436 -14.008  0.00  0.00    -0.273 OA
BRANCH  15  16
ATOM     16  P   UNL     1      40.350 -25.853 -14.448  0.00  0.00    +0.473 P 
ATOM     17  O   UNL     1      40.706 -24.522 -13.851  0.00  0.00    -0.227 OA
BRANCH  16  18
ATOM     18  O   UNL     1      40.308 -25.898 -16.063  0.00  0.00    -0.303 OA
ATOM     19  H   UNL     1      41.083 -25.437 -16.420  0.00  0.00    +0.222 HD
ENDBRANCH  16  18
BRANCH  16  20
ATOM     20  O   UNL     1      41.355 -27.062 -14.068  0.00  0.00    -0.303 OA
ATOM     21  H   UNL     1      41.471 -27.640 -14.839  0.00  0.00    +0.222 HD
ENDBRANCH  16  20
ENDBRANCH  15  16
ENDBRANCH  14  15
ENDBRANCH  13  14
ENDBRANCH  12  13
ENDBRANCH   3  12
TORSDOF 7
ENDMDL
MODEL 8
REMARK VINA RESULT:      -7.9      3.224      4.082
REMARK  Name = 1819
REMARK  7 active torsions:
REMARK  status: ('A' for Active; 'I' for Inactive)
REMARK    1  A    between atoms: C_3  and  C_12
REMARK    2  A    between atoms: C_12  and  C_13
REMARK    3  A    between atoms: C_13  and  C_14
REMARK    4  A    between atoms: C_14  and  O_15
REMARK    5  A    between atoms: O_15  and  P_16
REMARK    6  A    between atoms: P_16  and  O_18
REMARK    7  A    between atoms: P_16  and  O_20
REMARK                            x       y       z     vdW  Elec       q    Type
REMARK                         _______ _______ _______ _____ _____    ______ ____
ROOT
ATOM      1  F   UNL     1      30.412 -23.679 -12.698  0.00  0.00    -0.204 F 
ATOM      2  N   UNL     1      32.379 -22.888 -17.729  0.00  0.00    -0.312 N 
ATOM      3  C   UNL     1      33.920 -23.304 -16.188  0.00  0.00    -0.006 C 
ATOM      4  C   UNL     1      32.645 -23.319 -15.557  0.00  0.00    +0.013 C 
ATOM      5  C   UNL     1      31.695 -23.055 -16.546  0.00  0.00    +0.048 C 
ATOM      6  C   UNL     1      33.724 -23.036 -17.523  0.00  0.00    +0.058 C 
ATOM      7  C   UNL     1      32.206 -23.533 -14.236  0.00  0.00    +0.031 C 
ATOM      8  C   UNL     1      30.323 -22.995 -16.279  0.00  0.00    +0.017 C 
ATOM      9  C   UNL     1      30.836 -23.475 -13.953  0.00  0.00    +0.140 C 
ATOM     10  C   UNL     1      29.911 -23.211 -14.961  0.00  0.00    +0.031 C 
ATOM     11  H   UNL     1      31.960 -22.690 -18.598  0.00  0.00    +0.152 HD
ENDROOT
BRANCH   3  12
ATOM     12  C   UNL     1      35.226 -23.532 -15.536  0.00  0.00    +0.030 C 
BRANCH  12  13
ATOM     13  C   UNL     1      35.470 -25.007 -15.175  0.00  0.00    +0.037 C 
BRANCH  13  14
ATOM     14  C   UNL     1      36.526 -25.172 -14.091  0.00  0.00    +0.154 C 
BRANCH  14  15
ATOM     15  O   UNL     1      36.685 -23.935 -13.412  0.00  0.00    -0.273 OA
BRANCH  15  16
ATOM     16  P   UNL     1      36.340 -23.875 -11.833  0.00  0.00    +0.473 P 
ATOM     17  O   UNL     1      37.207 -22.952 -11.028  0.00  0.00    -0.227 OA
BRANCH  16  18
ATOM     18  O   UNL     1      36.366 -25.426 -11.374  0.00  0.00    -0.303 OA
ATOM     19  H   UNL     1      36.055 -25.984 -12.104  0.00  0.00    +0.222 HD
ENDBRANCH  16  18
BRANCH  16  20
ATOM     20  O   UNL     1      34.764 -23.512 -11.825  0.00  0.00    -0.303 OA
ATOM     21  H   UNL     1      34.560 -22.975 -11.042  0.00  0.00    +0.222 HD
ENDBRANCH  16  20
ENDBRANCH  15  16
ENDBRANCH  14  15
ENDBRANCH  13  14
ENDBRANCH  12  13
ENDBRANCH   3  12
TORSDOF 7
ENDMDL
MODEL 9
REMARK VINA RESULT:      -7.9      4.733      6.046
REMARK  Name = 1819
REMARK  7 active torsions:
REMARK  status: ('A' for Active; 'I' for Inactive)
REMARK    1  A    between atoms: C_3  and  C_12
REMARK    2  A    between atoms: C_12  and  C_13
REMARK    3  A    between atoms: C_13  and  C_14
REMARK    4  A    between atoms: C_14  and  O_15
REMARK    5  A    between atoms: O_15  and  P_16
REMARK    6  A    between atoms: P_16  and  O_18
REMARK    7  A    between atoms: P_16  and  O_20
REMARK                            x       y       z     vdW  Elec       q    Type
REMARK                         _______ _______ _______ _____ _____    ______ ____
ROOT
ATOM      1  F   UNL     1      37.971 -18.904 -21.415  0.00  0.00    -0.204 F 
ATOM      2  N   UNL     1      32.691 -20.042 -20.622  0.00  0.00    -0.312 N 
ATOM      3  C   UNL     1      34.097 -21.381 -19.548  0.00  0.00    -0.006 C 
ATOM      4  C   UNL     1      34.861 -20.429 -20.279  0.00  0.00    +0.013 C 
ATOM      5  C   UNL     1      33.954 -19.601 -20.945  0.00  0.00    +0.048 C 
ATOM      6  C   UNL     1      32.767 -21.117 -19.779  0.00  0.00    +0.058 C 
ATOM      7  C   UNL     1      36.240 -20.191 -20.440  0.00  0.00    +0.031 C 
ATOM      8  C   UNL     1      34.359 -18.542 -21.766  0.00  0.00    +0.017 C 
ATOM      9  C   UNL     1      36.660 -19.136 -21.258  0.00  0.00    +0.140 C 
ATOM     10  C   UNL     1      35.733 -18.325 -21.910  0.00  0.00    +0.031 C 
ATOM     11  H   UNL     1      31.853 -19.641 -20.951  0.00  0.00    +0.152 HD
ENDROOT
BRANCH   3  12
ATOM     12  C   UNL     1      34.628 -22.463 -18.693  0.00  0.00    +0.030 C 
BRANCH  12  13
ATOM     13  C   UNL     1      33.595 -22.994 -17.685  0.00  0.00    +0.037 C 
BRANCH  13  14
ATOM     14  C   UNL     1      34.186 -23.186 -16.295  0.00  0.00    +0.154 C 
BRANCH  14  15
ATOM     15  O   UNL     1      35.590 -23.369 -16.414  0.00  0.00    -0.273 OA
BRANCH  15  16
ATOM     16  P   UNL     1      36.429 -23.762 -15.089  0.00  0.00    +0.473 P 
ATOM     17  O   UNL     1      35.620 -23.851 -13.828  0.00  0.00    -0.227 OA
BRANCH  16  18
ATOM     18  O   UNL     1      37.634 -22.684 -15.063  0.00  0.00    -0.303 OA
ATOM     19  H   UNL     1      38.459 -23.127 -14.810  0.00  0.00    +0.222 HD
ENDBRANCH  16  18
BRANCH  16  20
ATOM     20  O   UNL     1      37.167 -25.133 -15.526  0.00  0.00    -0.303 OA
ATOM     21  H   UNL     1      37.733 -25.440 -14.801  0.00  0.00    +0.222 HD
ENDBRANCH  16  20
ENDBRANCH  15  16
ENDBRANCH  14  15
ENDBRANCH  13  14
ENDBRANCH  12  13
ENDBRANCH   3  12
TORSDOF 7
ENDMDL
