MODEL 1
REMARK VINA RESULT:     -10.5      0.000      0.000
REMARK  Name = 1453694
REMARK  4 active torsions:
REMARK  status: ('A' for Active; 'I' for Inactive)
REMARK    1  A    between atoms: C_3  and  C_12
REMARK    2  A    between atoms: C_8  and  C_19
REMARK    3  A    between atoms: C_13  and  C_15
REMARK    4  A    between atoms: C_19  and  C_21
REMARK                            x       y       z     vdW  Elec       q    Type
REMARK                         _______ _______ _______ _____ _____    ______ ____
ROOT
ATOM      1  O   UNL     1      36.814 -18.450 -21.367  0.00  0.00    -0.274 OA
ATOM      2  N   UNL     1      34.971 -19.840 -21.105  0.00  0.00    -0.279 N 
ATOM      3  C   UNL     1      33.912 -21.991 -19.478  0.00  0.00    +0.096 C 
ATOM      4  C   UNL     1      35.423 -21.704 -19.559  0.00  0.00    +0.032 C 
ATOM      5  C   UNL     1      33.103 -20.709 -19.754  0.00  0.00    +0.032 C 
ATOM      6  C   UNL     1      35.783 -21.038 -20.887  0.00  0.00    +0.094 C 
ATOM      7  C   UNL     1      33.521 -20.067 -21.076  0.00  0.00    +0.094 C 
ATOM      8  C   UNL     1      35.591 -18.612 -21.334  0.00  0.00    +0.231 C 
ENDROOT
BRANCH   3  12
ATOM      9  O   UNL     1      34.548 -23.076 -17.392  0.00  0.00    -0.316 OA
ATOM     10  N   UNL     1      32.339 -22.829 -17.660  0.00  0.00    -0.312 NA
ATOM     11  N   UNL     1      33.953 -23.623 -16.248  0.00  0.00    -0.007 NA
ATOM     12  C   UNL     1      33.524 -22.637 -18.158  0.00  0.00    +0.293 C 
ATOM     13  C   UNL     1      32.650 -23.440 -16.481  0.00  0.00    +0.133 C 
BRANCH  13  15
ATOM     14  S   UNL     1      31.950 -24.300 -13.898  0.00  0.00    -0.075 S 
ATOM     15  C   UNL     1      31.618 -23.871 -15.523  0.00  0.00    +0.106 C 
ATOM     16  C   UNL     1      30.276 -23.980 -15.819  0.00  0.00    +0.018 C 
ATOM     17  C   UNL     1      29.512 -24.420 -14.699  0.00  0.00    +0.008 C 
ATOM     18  C   UNL     1      30.299 -24.632 -13.589  0.00  0.00    +0.036 C 
ENDBRANCH  13  15
ENDBRANCH   3  12
BRANCH   8  19
ATOM     19  C   UNL     1      34.685 -17.427 -21.546  0.00  0.00    +0.118 C 
BRANCH  19  21
ATOM     20  S   UNL     1      34.174 -15.615 -23.563  0.00  0.00    -0.090 S 
ATOM     21  C   UNL     1      34.586 -17.176 -23.016  0.00  0.00    +0.016 C 
ATOM     22  C   UNL     1      34.789 -18.064 -24.037  0.00  0.00    +0.003 C 
ATOM     23  C   UNL     1      34.602 -17.450 -25.309  0.00  0.00    +0.007 C 
ATOM     24  C   UNL     1      34.264 -16.119 -25.196  0.00  0.00    +0.035 C 
ENDBRANCH  19  21
ENDBRANCH   8  19
TORSDOF 4
ENDMDL
MODEL 2
REMARK VINA RESULT:     -10.0      2.306      2.649
REMARK  Name = 1453694
REMARK  4 active torsions:
REMARK  status: ('A' for Active; 'I' for Inactive)
REMARK    1  A    between atoms: C_3  and  C_12
REMARK    2  A    between atoms: C_8  and  C_19
REMARK    3  A    between atoms: C_13  and  C_15
REMARK    4  A    between atoms: C_19  and  C_21
REMARK                            x       y       z     vdW  Elec       q    Type
REMARK                         _______ _______ _______ _____ _____    ______ ____
ROOT
ATOM      1  O   UNL     1      36.650 -18.538 -21.192  0.00  0.00    -0.274 OA
ATOM      2  N   UNL     1      35.189 -20.272 -20.686  0.00  0.00    -0.279 N 
ATOM      3  C   UNL     1      34.677 -22.374 -18.760  0.00  0.00    +0.096 C 
ATOM      4  C   UNL     1      36.078 -21.757 -18.933  0.00  0.00    +0.032 C 
ATOM      5  C   UNL     1      33.587 -21.364 -19.166  0.00  0.00    +0.032 C 
ATOM      6  C   UNL     1      36.262 -21.208 -20.347  0.00  0.00    +0.094 C 
ATOM      7  C   UNL     1      33.833 -20.825 -20.574  0.00  0.00    +0.094 C 
ATOM      8  C   UNL     1      35.501 -18.975 -21.093  0.00  0.00    +0.231 C 
ENDROOT
BRANCH   3  12
ATOM      9  O   UNL     1      33.173 -23.037 -16.961  0.00  0.00    -0.316 OA
ATOM     10  N   UNL     1      35.346 -23.269 -16.472  0.00  0.00    -0.312 NA
ATOM     11  N   UNL     1      33.227 -23.541 -15.656  0.00  0.00    -0.007 NA
ATOM     12  C   UNL     1      34.461 -22.912 -17.354  0.00  0.00    +0.293 C 
ATOM     13  C   UNL     1      34.541 -23.651 -15.439  0.00  0.00    +0.133 C 
BRANCH  13  15
ATOM     14  S   UNL     1      36.558 -25.016 -14.035  0.00  0.00    -0.075 S 
ATOM     15  C   UNL     1      35.083 -24.152 -14.165  0.00  0.00    +0.106 C 
ATOM     16  C   UNL     1      34.474 -23.988 -12.939  0.00  0.00    +0.018 C 
ATOM     17  C   UNL     1      35.227 -24.576 -11.882  0.00  0.00    +0.008 C 
ATOM     18  C   UNL     1      36.383 -25.170 -12.339  0.00  0.00    +0.036 C 
ENDBRANCH  13  15
ENDBRANCH   3  12
BRANCH   8  19
ATOM     19  C   UNL     1      34.339 -18.072 -21.420  0.00  0.00    +0.118 C 
BRANCH  19  21
ATOM     20  S   UNL     1      34.466 -16.086 -23.332  0.00  0.00    -0.090 S 
ATOM     21  C   UNL     1      34.415 -17.728 -22.873  0.00  0.00    +0.016 C 
ATOM     22  C   UNL     1      34.452 -18.582 -23.940  0.00  0.00    +0.003 C 
ATOM     23  C   UNL     1      34.524 -17.875 -25.175  0.00  0.00    +0.007 C 
ATOM     24  C   UNL     1      34.539 -16.510 -24.989  0.00  0.00    +0.035 C 
ENDBRANCH  19  21
ENDBRANCH   8  19
TORSDOF 4
ENDMDL
MODEL 3
REMARK VINA RESULT:      -9.7      2.596      3.190
REMARK  Name = 1453694
REMARK  4 active torsions:
REMARK  status: ('A' for Active; 'I' for Inactive)
REMARK    1  A    between atoms: C_3  and  C_12
REMARK    2  A    between atoms: C_8  and  C_19
REMARK    3  A    between atoms: C_13  and  C_15
REMARK    4  A    between atoms: C_19  and  C_21
REMARK                            x       y       z     vdW  Elec       q    Type
REMARK                         _______ _______ _______ _____ _____    ______ ____
ROOT
ATOM      1  O   UNL     1      36.063 -18.301 -21.006  0.00  0.00    -0.274 OA
ATOM      2  N   UNL     1      34.865 -20.235 -20.532  0.00  0.00    -0.279 N 
ATOM      3  C   UNL     1      34.641 -22.406 -18.629  0.00  0.00    +0.096 C 
ATOM      4  C   UNL     1      35.938 -21.589 -18.777  0.00  0.00    +0.032 C 
ATOM      5  C   UNL     1      33.420 -21.564 -19.044  0.00  0.00    +0.032 C 
ATOM      6  C   UNL     1      36.059 -21.006 -20.185  0.00  0.00    +0.094 C 
ATOM      7  C   UNL     1      33.603 -20.981 -20.444  0.00  0.00    +0.094 C 
ATOM      8  C   UNL     1      34.988 -18.902 -20.926  0.00  0.00    +0.231 C 
ENDROOT
BRANCH   3  12
ATOM      9  O   UNL     1      33.217 -23.173 -16.806  0.00  0.00    -0.316 OA
ATOM     10  N   UNL     1      35.411 -23.319 -16.380  0.00  0.00    -0.312 NA
ATOM     11  N   UNL     1      33.329 -23.702 -15.514  0.00  0.00    -0.007 NA
ATOM     12  C   UNL     1      34.487 -22.983 -17.230  0.00  0.00    +0.293 C 
ATOM     13  C   UNL     1      34.652 -23.758 -15.335  0.00  0.00    +0.133 C 
BRANCH  13  15
ATOM     14  S   UNL     1      36.661 -25.233 -14.035  0.00  0.00    -0.075 S 
ATOM     15  C   UNL     1      35.251 -24.261 -14.087  0.00  0.00    +0.106 C 
ATOM     16  C   UNL     1      34.752 -24.012 -12.826  0.00  0.00    +0.018 C 
ATOM     17  C   UNL     1      35.536 -24.626 -11.807  0.00  0.00    +0.008 C 
ATOM     18  C   UNL     1      36.605 -25.322 -12.326  0.00  0.00    +0.036 C 
ENDBRANCH  13  15
ENDBRANCH   3  12
BRANCH   8  19
ATOM     19  C   UNL     1      33.711 -18.177 -21.264  0.00  0.00    +0.118 C 
BRANCH  19  21
ATOM     20  S   UNL     1      34.240 -16.103 -23.006  0.00  0.00    -0.090 S 
ATOM     21  C   UNL     1      34.033 -16.727 -21.432  0.00  0.00    +0.016 C 
ATOM     22  C   UNL     1      34.194 -15.781 -20.457  0.00  0.00    +0.003 C 
ATOM     23  C   UNL     1      34.496 -14.504 -21.011  0.00  0.00    +0.007 C 
ATOM     24  C   UNL     1      34.552 -14.537 -22.388  0.00  0.00    +0.035 C 
ENDBRANCH  19  21
ENDBRANCH   8  19
TORSDOF 4
ENDMDL
MODEL 4
REMARK VINA RESULT:      -9.6      2.895      9.548
REMARK  Name = 1453694
REMARK  4 active torsions:
REMARK  status: ('A' for Active; 'I' for Inactive)
REMARK    1  A    between atoms: C_3  and  C_12
REMARK    2  A    between atoms: C_8  and  C_19
REMARK    3  A    between atoms: C_13  and  C_15
REMARK    4  A    between atoms: C_19  and  C_21
REMARK                            x       y       z     vdW  Elec       q    Type
REMARK                         _______ _______ _______ _____ _____    ______ ____
ROOT
ATOM      1  O   UNL     1      34.347 -22.854 -16.783  0.00  0.00    -0.274 OA
ATOM      2  N   UNL     1      35.483 -22.040 -18.640  0.00  0.00    -0.279 N 
ATOM      3  C   UNL     1      35.282 -20.151 -20.827  0.00  0.00    +0.096 C 
ATOM      4  C   UNL     1      34.034 -20.682 -20.096  0.00  0.00    +0.032 C 
ATOM      5  C   UNL     1      36.509 -20.185 -19.895  0.00  0.00    +0.032 C 
ATOM      6  C   UNL     1      34.297 -22.063 -19.497  0.00  0.00    +0.094 C 
ATOM      7  C   UNL     1      36.710 -21.578 -19.300  0.00  0.00    +0.094 C 
ATOM      8  C   UNL     1      35.389 -22.456 -17.312  0.00  0.00    +0.231 C 
ENDROOT
BRANCH   3  12
ATOM      9  O   UNL     1      35.392 -17.725 -20.626  0.00  0.00    -0.316 OA
ATOM     10  N   UNL     1      34.573 -18.448 -22.582  0.00  0.00    -0.312 NA
ATOM     11  N   UNL     1      35.095 -16.578 -21.373  0.00  0.00    -0.007 NA
ATOM     12  C   UNL     1      35.053 -18.769 -21.417  0.00  0.00    +0.293 C 
ATOM     13  C   UNL     1      34.617 -17.086 -22.512  0.00  0.00    +0.133 C 
BRANCH  13  15
ATOM     14  S   UNL     1      33.633 -14.613 -23.416  0.00  0.00    -0.075 S 
ATOM     15  C   UNL     1      34.166 -16.229 -23.621  0.00  0.00    +0.106 C 
ATOM     16  C   UNL     1      34.119 -16.621 -24.942  0.00  0.00    +0.018 C 
ATOM     17  C   UNL     1      33.641 -15.584 -25.794  0.00  0.00    +0.008 C 
ATOM     18  C   UNL     1      33.339 -14.438 -25.093  0.00  0.00    +0.036 C 
ENDBRANCH  13  15
ENDBRANCH   3  12
BRANCH   8  19
ATOM     19  C   UNL     1      36.654 -22.399 -16.495  0.00  0.00    +0.118 C 
BRANCH  19  21
ATOM     20  S   UNL     1      37.512 -24.559 -15.006  0.00  0.00    -0.090 S 
ATOM     21  C   UNL     1      36.459 -23.246 -15.279  0.00  0.00    +0.016 C 
ATOM     22  C   UNL     1      35.509 -23.112 -14.304  0.00  0.00    +0.003 C 
ATOM     23  C   UNL     1      35.643 -24.115 -13.301  0.00  0.00    +0.007 C 
ATOM     24  C   UNL     1      36.694 -24.968 -13.559  0.00  0.00    +0.035 C 
ENDBRANCH  19  21
ENDBRANCH   8  19
TORSDOF 4
ENDMDL
MODEL 5
REMARK VINA RESULT:      -9.5      5.016      8.161
REMARK  Name = 1453694
REMARK  4 active torsions:
REMARK  status: ('A' for Active; 'I' for Inactive)
REMARK    1  A    between atoms: C_3  and  C_12
REMARK    2  A    between atoms: C_8  and  C_19
REMARK    3  A    between atoms: C_13  and  C_15
REMARK    4  A    between atoms: C_19  and  C_21
REMARK                            x       y       z     vdW  Elec       q    Type
REMARK                         _______ _______ _______ _____ _____    ______ ____
ROOT
ATOM      1  O   UNL     1      33.946 -11.546 -26.043  0.00  0.00    -0.274 OA
ATOM      2  N   UNL     1      33.529 -12.756 -24.104  0.00  0.00    -0.279 N 
ATOM      3  C   UNL     1      33.662 -15.417 -22.967  0.00  0.00    +0.096 C 
ATOM      4  C   UNL     1      33.604 -15.188 -24.489  0.00  0.00    +0.032 C 
ATOM      5  C   UNL     1      34.292 -14.202 -22.261  0.00  0.00    +0.032 C 
ATOM      6  C   UNL     1      32.902 -13.870 -24.817  0.00  0.00    +0.094 C 
ATOM      7  C   UNL     1      33.574 -12.908 -22.645  0.00  0.00    +0.094 C 
ATOM      8  C   UNL     1      34.009 -11.657 -24.816  0.00  0.00    +0.231 C 
ENDROOT
BRANCH   3  12
ATOM      9  O   UNL     1      35.293 -17.146 -23.505  0.00  0.00    -0.316 OA
ATOM     10  N   UNL     1      34.217 -17.470 -21.567  0.00  0.00    -0.312 NA
ATOM     11  N   UNL     1      35.803 -18.336 -22.971  0.00  0.00    -0.007 NA
ATOM     12  C   UNL     1      34.372 -16.714 -22.613  0.00  0.00    +0.293 C 
ATOM     13  C   UNL     1      35.120 -18.459 -21.829  0.00  0.00    +0.133 C 
BRANCH  13  15
ATOM     14  S   UNL     1      34.058 -20.575 -20.313  0.00  0.00    -0.075 S 
ATOM     15  C   UNL     1      35.328 -19.593 -20.913  0.00  0.00    +0.106 C 
ATOM     16  C   UNL     1      36.557 -19.994 -20.435  0.00  0.00    +0.018 C 
ATOM     17  C   UNL     1      36.455 -21.120 -19.567  0.00  0.00    +0.008 C 
ATOM     18  C   UNL     1      35.152 -21.537 -19.413  0.00  0.00    +0.036 C 
ENDBRANCH  13  15
ENDBRANCH   3  12
BRANCH   8  19
ATOM     19  C   UNL     1      34.643 -10.553 -24.008  0.00  0.00    +0.118 C 
BRANCH  19  21
ATOM     20  S   UNL     1      34.163  -7.837 -23.909  0.00  0.00    -0.090 S 
ATOM     21  C   UNL     1      33.637  -9.458 -23.851  0.00  0.00    +0.016 C 
ATOM     22  C   UNL     1      32.288  -9.575 -23.658  0.00  0.00    +0.003 C 
ATOM     23  C   UNL     1      31.662  -8.300 -23.553  0.00  0.00    +0.007 C 
ATOM     24  C   UNL     1      32.567  -7.268 -23.672  0.00  0.00    +0.035 C 
ENDBRANCH  19  21
ENDBRANCH   8  19
TORSDOF 4
ENDMDL
MODEL 6
REMARK VINA RESULT:      -9.4      2.914      9.346
REMARK  Name = 1453694
REMARK  4 active torsions:
REMARK  status: ('A' for Active; 'I' for Inactive)
REMARK    1  A    between atoms: C_3  and  C_12
REMARK    2  A    between atoms: C_8  and  C_19
REMARK    3  A    between atoms: C_13  and  C_15
REMARK    4  A    between atoms: C_19  and  C_21
REMARK                            x       y       z     vdW  Elec       q    Type
REMARK                         _______ _______ _______ _____ _____    ______ ____
ROOT
ATOM      1  O   UNL     1      34.096 -23.014 -15.884  0.00  0.00    -0.274 OA
ATOM      2  N   UNL     1      35.353 -22.463 -17.759  0.00  0.00    -0.279 N 
ATOM      3  C   UNL     1      35.268 -20.976 -20.243  0.00  0.00    +0.096 C 
ATOM      4  C   UNL     1      33.984 -21.441 -19.532  0.00  0.00    +0.032 C 
ATOM      5  C   UNL     1      36.413 -20.793 -19.228  0.00  0.00    +0.032 C 
ATOM      6  C   UNL     1      34.246 -22.688 -18.689  0.00  0.00    +0.094 C 
ATOM      7  C   UNL     1      36.614 -22.056 -18.392  0.00  0.00    +0.094 C 
ATOM      8  C   UNL     1      35.163 -22.657 -16.391  0.00  0.00    +0.231 C 
ENDROOT
BRANCH   3  12
ATOM      9  O   UNL     1      34.975 -19.909 -22.414  0.00  0.00    -0.316 OA
ATOM     10  N   UNL     1      34.895 -18.496 -20.678  0.00  0.00    -0.312 NA
ATOM     11  N   UNL     1      34.762 -18.636 -22.957  0.00  0.00    -0.007 NA
ATOM     12  C   UNL     1      35.039 -19.725 -21.076  0.00  0.00    +0.293 C 
ATOM     13  C   UNL     1      34.727 -17.857 -21.872  0.00  0.00    +0.133 C 
BRANCH  13  15
ATOM     14  S   UNL     1      34.482 -15.537 -23.441  0.00  0.00    -0.075 S 
ATOM     15  C   UNL     1      34.520 -16.402 -21.961  0.00  0.00    +0.106 C 
ATOM     16  C   UNL     1      34.333 -15.572 -20.876  0.00  0.00    +0.018 C 
ATOM     17  C   UNL     1      34.158 -14.212 -21.264  0.00  0.00    +0.008 C 
ATOM     18  C   UNL     1      34.218 -14.052 -22.631  0.00  0.00    +0.036 C 
ENDBRANCH  13  15
ENDBRANCH   3  12
BRANCH   8  19
ATOM     19  C   UNL     1      36.352 -22.402 -15.501  0.00  0.00    +0.118 C 
BRANCH  19  21
ATOM     20  S   UNL     1      36.202 -23.532 -12.987  0.00  0.00    -0.090 S 
ATOM     21  C   UNL     1      36.563 -23.614 -14.652  0.00  0.00    +0.016 C 
ATOM     22  C   UNL     1      37.028 -24.841 -15.038  0.00  0.00    +0.003 C 
ATOM     23  C   UNL     1      37.093 -25.745 -13.939  0.00  0.00    +0.007 C 
ATOM     24  C   UNL     1      36.672 -25.163 -12.763  0.00  0.00    +0.035 C 
ENDBRANCH  19  21
ENDBRANCH   8  19
TORSDOF 4
ENDMDL
MODEL 7
REMARK VINA RESULT:      -9.4      2.579      9.355
REMARK  Name = 1453694
REMARK  4 active torsions:
REMARK  status: ('A' for Active; 'I' for Inactive)
REMARK    1  A    between atoms: C_3  and  C_12
REMARK    2  A    between atoms: C_8  and  C_19
REMARK    3  A    between atoms: C_13  and  C_15
REMARK    4  A    between atoms: C_19  and  C_21
REMARK                            x       y       z     vdW  Elec       q    Type
REMARK                         _______ _______ _______ _____ _____    ______ ____
ROOT
ATOM      1  O   UNL     1      33.156 -23.252 -15.871  0.00  0.00    -0.274 OA
ATOM      2  N   UNL     1      34.798 -22.807 -17.453  0.00  0.00    -0.279 N 
ATOM      3  C   UNL     1      35.324 -21.318 -19.881  0.00  0.00    +0.096 C 
ATOM      4  C   UNL     1      33.891 -21.675 -19.443  0.00  0.00    +0.032 C 
ATOM      5  C   UNL     1      36.257 -21.229 -18.658  0.00  0.00    +0.032 C 
ATOM      6  C   UNL     1      33.881 -22.940 -18.585  0.00  0.00    +0.094 C 
ATOM      7  C   UNL     1      36.187 -22.504 -17.819  0.00  0.00    +0.094 C 
ATOM      8  C   UNL     1      34.327 -22.984 -16.152  0.00  0.00    +0.231 C 
ENDROOT
BRANCH   3  12
ATOM      9  O   UNL     1      36.109 -19.037 -20.226  0.00  0.00    -0.316 OA
ATOM     10  N   UNL     1      34.779 -19.806 -21.856  0.00  0.00    -0.312 NA
ATOM     11  N   UNL     1      35.994 -17.998 -21.158  0.00  0.00    -0.007 NA
ATOM     12  C   UNL     1      35.364 -20.051 -20.722  0.00  0.00    +0.293 C 
ATOM     13  C   UNL     1      35.195 -18.528 -22.089  0.00  0.00    +0.133 C 
BRANCH  13  15
ATOM     14  S   UNL     1      34.567 -16.078 -23.317  0.00  0.00    -0.075 S 
ATOM     15  C   UNL     1      34.789 -17.777 -23.290  0.00  0.00    +0.106 C 
ATOM     16  C   UNL     1      34.542 -18.347 -24.520  0.00  0.00    +0.018 C 
ATOM     17  C   UNL     1      34.168 -17.378 -25.496  0.00  0.00    +0.008 C 
ATOM     18  C   UNL     1      34.140 -16.103 -24.974  0.00  0.00    +0.036 C 
ENDBRANCH  13  15
ENDBRANCH   3  12
BRANCH   8  19
ATOM     19  C   UNL     1      35.334 -22.827 -15.042  0.00  0.00    +0.118 C 
BRANCH  19  21
ATOM     20  S   UNL     1      37.556 -24.161 -14.094  0.00  0.00    -0.090 S 
ATOM     21  C   UNL     1      36.035 -24.135 -14.865  0.00  0.00    +0.016 C 
ATOM     22  C   UNL     1      35.611 -25.377 -15.250  0.00  0.00    +0.003 C 
ATOM     23  C   UNL     1      36.559 -26.384 -14.907  0.00  0.00    +0.007 C 
ATOM     24  C   UNL     1      37.664 -25.860 -14.273  0.00  0.00    +0.035 C 
ENDBRANCH  19  21
ENDBRANCH   8  19
TORSDOF 4
ENDMDL
MODEL 8
REMARK VINA RESULT:      -9.4      7.109     12.139
REMARK  Name = 1453694
REMARK  4 active torsions:
REMARK  status: ('A' for Active; 'I' for Inactive)
REMARK    1  A    between atoms: C_3  and  C_12
REMARK    2  A    between atoms: C_8  and  C_19
REMARK    3  A    between atoms: C_13  and  C_15
REMARK    4  A    between atoms: C_19  and  C_21
REMARK                            x       y       z     vdW  Elec       q    Type
REMARK                         _______ _______ _______ _____ _____    ______ ____
ROOT
ATOM      1  O   UNL     1      34.535 -16.091 -20.816  0.00  0.00    -0.274 OA
ATOM      2  N   UNL     1      33.300 -14.690 -22.199  0.00  0.00    -0.279 N 
ATOM      3  C   UNL     1      31.931 -12.139 -22.274  0.00  0.00    +0.096 C 
ATOM      4  C   UNL     1      32.213 -12.869 -20.948  0.00  0.00    +0.032 C 
ATOM      5  C   UNL     1      32.973 -12.531 -23.340  0.00  0.00    +0.032 C 
ATOM      6  C   UNL     1      32.313 -14.378 -21.165  0.00  0.00    +0.094 C 
ATOM      7  C   UNL     1      33.054 -14.049 -23.497  0.00  0.00    +0.094 C 
ATOM      8  C   UNL     1      34.358 -15.552 -21.912  0.00  0.00    +0.231 C 
ENDROOT
BRANCH   3  12
ATOM      9  O   UNL     1      31.950 -10.186 -20.816  0.00  0.00    -0.316 OA
ATOM     10  N   UNL     1      31.683  -9.707 -22.988  0.00  0.00    -0.312 NA
ATOM     11  N   UNL     1      31.844  -8.792 -20.897  0.00  0.00    -0.007 NA
ATOM     12  C   UNL     1      31.845 -10.632 -22.089  0.00  0.00    +0.293 C 
ATOM     13  C   UNL     1      31.688  -8.587 -22.209  0.00  0.00    +0.133 C 
BRANCH  13  15
ATOM     14  S   UNL     1      31.763  -5.797 -21.874  0.00  0.00    -0.075 S 
ATOM     15  C   UNL     1      31.532  -7.236 -22.775  0.00  0.00    +0.106 C 
ATOM     16  C   UNL     1      31.184  -6.974 -24.082  0.00  0.00    +0.018 C 
ATOM     17  C   UNL     1      31.107  -5.576 -24.348  0.00  0.00    +0.008 C 
ATOM     18  C   UNL     1      31.398  -4.822 -23.232  0.00  0.00    +0.036 C 
ENDBRANCH  13  15
ENDBRANCH   3  12
BRANCH   8  19
ATOM     19  C   UNL     1      35.333 -15.820 -23.030  0.00  0.00    +0.118 C 
BRANCH  19  21
ATOM     20  S   UNL     1      34.303 -17.291 -25.126  0.00  0.00    -0.090 S 
ATOM     21  C   UNL     1      35.035 -17.174 -23.590  0.00  0.00    +0.016 C 
ATOM     22  C   UNL     1      35.278 -18.393 -23.019  0.00  0.00    +0.003 C 
ATOM     23  C   UNL     1      34.851 -19.460 -23.862  0.00  0.00    +0.007 C 
ATOM     24  C   UNL     1      34.303 -19.001 -25.040  0.00  0.00    +0.035 C 
ENDBRANCH  19  21
ENDBRANCH   8  19
TORSDOF 4
ENDMDL
MODEL 9
REMARK VINA RESULT:      -9.3      2.698      3.203
REMARK  Name = 1453694
REMARK  4 active torsions:
REMARK  status: ('A' for Active; 'I' for Inactive)
REMARK    1  A    between atoms: C_3  and  C_12
REMARK    2  A    between atoms: C_8  and  C_19
REMARK    3  A    between atoms: C_13  and  C_15
REMARK    4  A    between atoms: C_19  and  C_21
REMARK                            x       y       z     vdW  Elec       q    Type
REMARK                         _______ _______ _______ _____ _____    ______ ____
ROOT
ATOM      1  O   UNL     1      35.472 -16.932 -21.504  0.00  0.00    -0.274 OA
ATOM      2  N   UNL     1      34.285 -18.910 -21.221  0.00  0.00    -0.279 N 
ATOM      3  C   UNL     1      34.314 -21.440 -19.811  0.00  0.00    +0.096 C 
ATOM      4  C   UNL     1      35.601 -20.624 -20.038  0.00  0.00    +0.032 C 
ATOM      5  C   UNL     1      33.083 -20.514 -19.789  0.00  0.00    +0.032 C 
ATOM      6  C   UNL     1      35.481 -19.751 -21.287  0.00  0.00    +0.094 C 
ATOM      7  C   UNL     1      33.026 -19.644 -21.044  0.00  0.00    +0.094 C 
ATOM      8  C   UNL     1      34.402 -17.525 -21.342  0.00  0.00    +0.231 C 
ENDROOT
BRANCH   3  12
ATOM      9  O   UNL     1      33.322 -23.079 -18.305  0.00  0.00    -0.316 OA
ATOM     10  N   UNL     1      35.371 -22.402 -17.703  0.00  0.00    -0.312 NA
ATOM     11  N   UNL     1      33.630 -23.770 -17.127  0.00  0.00    -0.007 NA
ATOM     12  C   UNL     1      34.400 -22.304 -18.563  0.00  0.00    +0.293 C 
ATOM     13  C   UNL     1      34.853 -23.318 -16.834  0.00  0.00    +0.133 C 
BRANCH  13  15
ATOM     14  S   UNL     1      37.134 -23.178 -15.197  0.00  0.00    -0.075 S 
ATOM     15  C   UNL     1      35.594 -23.779 -15.648  0.00  0.00    +0.106 C 
ATOM     16  C   UNL     1      35.139 -24.739 -14.769  0.00  0.00    +0.018 C 
ATOM     17  C   UNL     1      36.066 -24.983 -13.714  0.00  0.00    +0.008 C 
ATOM     18  C   UNL     1      37.194 -24.202 -13.826  0.00  0.00    +0.036 C 
ENDBRANCH  13  15
ENDBRANCH   3  12
BRANCH   8  19
ATOM     19  C   UNL     1      33.125 -16.730 -21.259  0.00  0.00    +0.118 C 
BRANCH  19  21
ATOM     20  S   UNL     1      32.862 -13.997 -21.536  0.00  0.00    -0.090 S 
ATOM     21  C   UNL     1      33.264 -15.536 -22.149  0.00  0.00    +0.016 C 
ATOM     22  C   UNL     1      33.690 -15.500 -23.448  0.00  0.00    +0.003 C 
ATOM     23  C   UNL     1      33.687 -14.171 -23.963  0.00  0.00    +0.007 C 
ATOM     24  C   UNL     1      33.258 -13.255 -23.027  0.00  0.00    +0.035 C 
ENDBRANCH  19  21
ENDBRANCH   8  19
TORSDOF 4
ENDMDL
