MODEL 1
REMARK VINA RESULT:      -8.9      0.000      0.000
REMARK  Name = 3086401
REMARK  8 active torsions:
REMARK  status: ('A' for Active; 'I' for Inactive)
REMARK    1  A    between atoms: N_1  and  C_28
REMARK    2  A    between atoms: C_5  and  N_18
REMARK    3  A    between atoms: C_11  and  O_16
REMARK    4  A    between atoms: N_18  and  S_20
REMARK    5  A    between atoms: S_20  and  N_23
REMARK    6  A    between atoms: N_23  and  C_24
REMARK    7  A    between atoms: N_23  and  C_26
REMARK    8  A    between atoms: C_28  and  C_29
REMARK                            x       y       z     vdW  Elec       q    Type
REMARK                         _______ _______ _______ _____ _____    ______ ____
ROOT
ATOM      1  N   UNL     1      33.307 -23.980 -15.360  0.00  0.00    +0.389 N 
ATOM      2  C   UNL     1      35.387 -23.162 -16.480  0.00  0.00    -0.013 C 
ATOM      3  C   UNL     1      33.880 -22.917 -16.223  0.00  0.00    -0.053 C 
ATOM      4  C   UNL     1      36.171 -23.355 -15.175  0.00  0.00    +0.014 C 
ATOM      5  C   UNL     1      35.513 -24.380 -14.262  0.00  0.00    +0.056 C 
ATOM      6  C   UNL     1      34.026 -24.083 -14.078  0.00  0.00    -0.059 C 
ATOM      7  C   UNL     1      35.992 -21.993 -17.276  0.00  0.00    +0.027 C 
ATOM      8  C   UNL     1      33.157 -22.847 -17.589  0.00  0.00    +0.005 C 
ATOM      9  C   UNL     1      35.194 -21.623 -18.496  0.00  0.00    +0.007 C 
ATOM     10  C   UNL     1      33.847 -21.995 -18.626  0.00  0.00    -0.025 C 
ATOM     11  C   UNL     1      35.795 -20.843 -19.496  0.00  0.00    +0.129 C 
ATOM     12  C   UNL     1      33.136 -21.611 -19.774  0.00  0.00    -0.004 C 
ATOM     13  C   UNL     1      35.076 -20.460 -20.626  0.00  0.00    +0.036 C 
ATOM     14  C   UNL     1      33.747 -20.846 -20.767  0.00  0.00    +0.003 C 
ATOM     15  H   UNL     1      33.419 -24.849 -15.885  0.00  0.00    -0.080 HD
ENDROOT
BRANCH  11  16
ATOM     16  O   UNL     1      37.094 -20.438 -19.384  0.00  0.00    -0.506 OA
ATOM     17  H   UNL     1      37.761 -21.059 -19.170  0.00  0.00    +0.292 HD
ENDBRANCH  11  16
BRANCH   5  18
ATOM     18  N   UNL     1      35.689 -25.749 -14.814  0.00  0.00    -0.173 NA
ATOM     19  H   UNL     1      34.900 -26.310 -14.491  0.00  0.00    +0.150 HD
BRANCH  18  20
ATOM     20  S   UNL     1      37.118 -26.599 -14.408  0.00  0.00    +0.099 S 
ATOM     21  O   UNL     1      36.860 -27.352 -13.195  0.00  0.00    -0.141 OA
ATOM     22  O   UNL     1      37.603 -27.282 -15.594  0.00  0.00    -0.141 OA
BRANCH  20  23
ATOM     23  N   UNL     1      38.204 -25.301 -14.029  0.00  0.00    -0.146 NA
BRANCH  23  24
ATOM     24  C   UNL     1      38.648 -25.200 -12.611  0.00  0.00    +0.097 C 
ATOM     25  C   UNL     1      38.070 -23.948 -11.981  0.00  0.00    +0.021 C 
ENDBRANCH  23  24
BRANCH  23  26
ATOM     26  C   UNL     1      39.352 -25.138 -14.963  0.00  0.00    +0.097 C 
ATOM     27  C   UNL     1      40.574 -25.832 -14.397  0.00  0.00    +0.021 C 
ENDBRANCH  23  26
ENDBRANCH  20  23
ENDBRANCH  18  20
ENDBRANCH   5  18
BRANCH   1  28
ATOM     28  C   UNL     1      31.879 -23.781 -15.093  0.00  0.00    -0.077 C 
BRANCH  28  29
ATOM     29  C   UNL     1      31.339 -24.915 -14.227  0.00  0.00    -0.023 C 
ATOM     30  C   UNL     1      30.025 -25.451 -14.773  0.00  0.00    -0.002 C 
ENDBRANCH  28  29
ENDBRANCH   1  28
TORSDOF 8
ENDMDL
MODEL 2
REMARK VINA RESULT:      -8.9      1.603      2.160
REMARK  Name = 3086401
REMARK  8 active torsions:
REMARK  status: ('A' for Active; 'I' for Inactive)
REMARK    1  A    between atoms: N_1  and  C_28
REMARK    2  A    between atoms: C_5  and  N_18
REMARK    3  A    between atoms: C_11  and  O_16
REMARK    4  A    between atoms: N_18  and  S_20
REMARK    5  A    between atoms: S_20  and  N_23
REMARK    6  A    between atoms: N_23  and  C_24
REMARK    7  A    between atoms: N_23  and  C_26
REMARK    8  A    between atoms: C_28  and  C_29
REMARK                            x       y       z     vdW  Elec       q    Type
REMARK                         _______ _______ _______ _____ _____    ______ ____
ROOT
ATOM      1  N   UNL     1      33.297 -24.448 -14.119  0.00  0.00    +0.389 N 
ATOM      2  C   UNL     1      35.396 -23.348 -14.914  0.00  0.00    -0.013 C 
ATOM      3  C   UNL     1      33.856 -23.438 -15.051  0.00  0.00    -0.053 C 
ATOM      4  C   UNL     1      35.834 -23.120 -13.461  0.00  0.00    +0.014 C 
ATOM      5  C   UNL     1      35.173 -24.106 -12.507  0.00  0.00    +0.056 C 
ATOM      6  C   UNL     1      33.661 -24.155 -12.721  0.00  0.00    -0.059 C 
ATOM      7  C   UNL     1      35.948 -22.217 -15.800  0.00  0.00    +0.027 C 
ATOM      8  C   UNL     1      33.517 -23.779 -16.522  0.00  0.00    +0.005 C 
ATOM      9  C   UNL     1      35.440 -22.265 -17.215  0.00  0.00    +0.007 C 
ATOM     10  C   UNL     1      34.274 -22.971 -17.548  0.00  0.00    -0.025 C 
ATOM     11  C   UNL     1      36.117 -21.542 -18.209  0.00  0.00    +0.129 C 
ATOM     12  C   UNL     1      33.828 -22.972 -18.879  0.00  0.00    -0.004 C 
ATOM     13  C   UNL     1      35.658 -21.542 -19.525  0.00  0.00    +0.036 C 
ATOM     14  C   UNL     1      34.515 -22.259 -19.861  0.00  0.00    +0.003 C 
ATOM     15  H   UNL     1      33.710 -25.339 -14.399  0.00  0.00    -0.080 HD
ENDROOT
BRANCH  11  16
ATOM     16  O   UNL     1      37.236 -20.818 -17.912  0.00  0.00    -0.506 OA
ATOM     17  H   UNL     1      37.234 -20.234 -17.180  0.00  0.00    +0.292 HD
ENDBRANCH  11  16
BRANCH   5  18
ATOM     18  N   UNL     1      35.751 -25.464 -12.688  0.00  0.00    -0.173 NA
ATOM     19  H   UNL     1      35.176 -26.113 -12.150  0.00  0.00    +0.150 HD
BRANCH  18  20
ATOM     20  S   UNL     1      37.378 -25.711 -12.215  0.00  0.00    +0.099 S 
ATOM     21  O   UNL     1      37.786 -24.572 -11.414  0.00  0.00    -0.141 OA
ATOM     22  O   UNL     1      37.506 -27.054 -11.680  0.00  0.00    -0.141 OA
BRANCH  20  23
ATOM     23  N   UNL     1      38.203 -25.636 -13.739  0.00  0.00    -0.146 NA
BRANCH  23  24
ATOM     24  C   UNL     1      39.627 -25.201 -13.702  0.00  0.00    +0.097 C 
ATOM     25  C   UNL     1      40.333 -25.651 -14.965  0.00  0.00    +0.021 C 
ENDBRANCH  23  24
BRANCH  23  26
ATOM     26  C   UNL     1      38.029 -26.827 -14.615  0.00  0.00    +0.097 C 
ATOM     27  C   UNL     1      36.760 -26.680 -15.429  0.00  0.00    +0.021 C 
ENDBRANCH  23  26
ENDBRANCH  20  23
ENDBRANCH  18  20
ENDBRANCH   5  18
BRANCH   1  28
ATOM     28  C   UNL     1      31.839 -24.562 -14.219  0.00  0.00    -0.077 C 
BRANCH  28  29
ATOM     29  C   UNL     1      31.176 -23.248 -13.815  0.00  0.00    -0.023 C 
ATOM     30  C   UNL     1      30.150 -22.805 -14.846  0.00  0.00    -0.002 C 
ENDBRANCH  28  29
ENDBRANCH   1  28
TORSDOF 8
ENDMDL
MODEL 3
REMARK VINA RESULT:      -8.9     11.544     15.556
REMARK  Name = 3086401
REMARK  8 active torsions:
REMARK  status: ('A' for Active; 'I' for Inactive)
REMARK    1  A    between atoms: N_1  and  C_28
REMARK    2  A    between atoms: C_5  and  N_18
REMARK    3  A    between atoms: C_11  and  O_16
REMARK    4  A    between atoms: N_18  and  S_20
REMARK    5  A    between atoms: S_20  and  N_23
REMARK    6  A    between atoms: N_23  and  C_24
REMARK    7  A    between atoms: N_23  and  C_26
REMARK    8  A    between atoms: C_28  and  C_29
REMARK                            x       y       z     vdW  Elec       q    Type
REMARK                         _______ _______ _______ _____ _____    ______ ____
ROOT
ATOM      1  N   UNL     1      31.874 -11.332 -21.850  0.00  0.00    +0.389 N 
ATOM      2  C   UNL     1      33.569 -12.440 -23.316  0.00  0.00    -0.013 C 
ATOM      3  C   UNL     1      32.355 -12.634 -22.374  0.00  0.00    -0.053 C 
ATOM      4  C   UNL     1      33.279 -11.423 -24.428  0.00  0.00    +0.014 C 
ATOM      5  C   UNL     1      32.694 -10.129 -23.878  0.00  0.00    +0.056 C 
ATOM      6  C   UNL     1      31.520 -10.406 -22.941  0.00  0.00    -0.059 C 
ATOM      7  C   UNL     1      33.982 -13.782 -23.943  0.00  0.00    +0.027 C 
ATOM      8  C   UNL     1      32.775 -13.584 -21.227  0.00  0.00    +0.005 C 
ATOM      9  C   UNL     1      34.133 -14.890 -22.936  0.00  0.00    +0.007 C 
ATOM     10  C   UNL     1      33.534 -14.812 -21.670  0.00  0.00    -0.025 C 
ATOM     11  C   UNL     1      34.841 -16.047 -23.295  0.00  0.00    +0.129 C 
ATOM     12  C   UNL     1      33.686 -15.878 -20.770  0.00  0.00    -0.004 C 
ATOM     13  C   UNL     1      34.977 -17.104 -22.396  0.00  0.00    +0.036 C 
ATOM     14  C   UNL     1      34.401 -17.019 -21.132  0.00  0.00    +0.003 C 
ATOM     15  H   UNL     1      32.653 -10.946 -21.315  0.00  0.00    -0.080 HD
ENDROOT
BRANCH  11  16
ATOM     16  O   UNL     1      35.409 -16.169 -24.530  0.00  0.00    -0.506 OA
ATOM     17  H   UNL     1      35.244 -16.933 -25.047  0.00  0.00    +0.292 HD
ENDBRANCH  11  16
BRANCH   5  18
ATOM     18  N   UNL     1      33.741  -9.356 -23.158  0.00  0.00    -0.173 NA
ATOM     19  H   UNL     1      33.572  -9.474 -22.159  0.00  0.00    +0.150 HD
BRANCH  18  20
ATOM     20  S   UNL     1      33.848  -7.675 -23.463  0.00  0.00    +0.099 S 
ATOM     21  O   UNL     1      35.237  -7.283 -23.309  0.00  0.00    -0.141 OA
ATOM     22  O   UNL     1      33.147  -7.383 -24.699  0.00  0.00    -0.141 OA
BRANCH  20  23
ATOM     23  N   UNL     1      32.942  -7.018 -22.138  0.00  0.00    -0.146 NA
BRANCH  23  24
ATOM     24  C   UNL     1      31.539  -6.612 -22.430  0.00  0.00    +0.097 C 
ATOM     25  C   UNL     1      31.479  -5.117 -22.672  0.00  0.00    +0.021 C 
ENDBRANCH  23  24
BRANCH  23  26
ATOM     26  C   UNL     1      33.023  -7.790 -20.867  0.00  0.00    +0.097 C 
ATOM     27  C   UNL     1      32.338  -7.021 -19.757  0.00  0.00    +0.021 C 
ENDBRANCH  23  26
ENDBRANCH  20  23
ENDBRANCH  18  20
ENDBRANCH   5  18
BRANCH   1  28
ATOM     28  C   UNL     1      30.722 -11.476 -20.954  0.00  0.00    -0.077 C 
BRANCH  28  29
ATOM     29  C   UNL     1      30.780 -10.430 -19.845  0.00  0.00    -0.023 C 
ATOM     30  C   UNL     1      31.579 -10.931 -18.652  0.00  0.00    -0.002 C 
ENDBRANCH  28  29
ENDBRANCH   1  28
TORSDOF 8
ENDMDL
MODEL 4
REMARK VINA RESULT:      -8.6     10.078     13.805
REMARK  Name = 3086401
REMARK  8 active torsions:
REMARK  status: ('A' for Active; 'I' for Inactive)
REMARK    1  A    between atoms: N_1  and  C_28
REMARK    2  A    between atoms: C_5  and  N_18
REMARK    3  A    between atoms: C_11  and  O_16
REMARK    4  A    between atoms: N_18  and  S_20
REMARK    5  A    between atoms: S_20  and  N_23
REMARK    6  A    between atoms: N_23  and  C_24
REMARK    7  A    between atoms: N_23  and  C_26
REMARK    8  A    between atoms: C_28  and  C_29
REMARK                            x       y       z     vdW  Elec       q    Type
REMARK                         _______ _______ _______ _____ _____    ______ ____
ROOT
ATOM      1  N   UNL     1      33.801 -12.999 -24.556  0.00  0.00    +0.389 N 
ATOM      2  C   UNL     1      32.904 -11.779 -22.566  0.00  0.00    -0.013 C 
ATOM      3  C   UNL     1      33.182 -11.734 -24.089  0.00  0.00    -0.053 C 
ATOM      4  C   UNL     1      32.095 -13.019 -22.164  0.00  0.00    +0.014 C 
ATOM      5  C   UNL     1      32.693 -14.299 -22.734  0.00  0.00    +0.056 C 
ATOM      6  C   UNL     1      32.959 -14.166 -24.233  0.00  0.00    -0.059 C 
ATOM      7  C   UNL     1      32.157 -10.511 -22.120  0.00  0.00    +0.027 C 
ATOM      8  C   UNL     1      34.093 -10.518 -24.383  0.00  0.00    +0.005 C 
ATOM      9  C   UNL     1      32.794  -9.239 -22.609  0.00  0.00    +0.007 C 
ATOM     10  C   UNL     1      33.677  -9.238 -23.699  0.00  0.00    -0.025 C 
ATOM     11  C   UNL     1      32.450  -8.023 -21.997  0.00  0.00    +0.129 C 
ATOM     12  C   UNL     1      34.232  -8.024 -24.133  0.00  0.00    -0.004 C 
ATOM     13  C   UNL     1      33.000  -6.823 -22.444  0.00  0.00    +0.036 C 
ATOM     14  C   UNL     1      33.893  -6.823 -23.511  0.00  0.00    +0.003 C 
ATOM     15  H   UNL     1      34.688 -13.071 -24.057  0.00  0.00    -0.080 HD
ENDROOT
BRANCH  11  16
ATOM     16  O   UNL     1      31.569  -7.986 -20.956  0.00  0.00    -0.506 OA
ATOM     17  H   UNL     1      31.641  -8.608 -20.259  0.00  0.00    +0.292 HD
ENDBRANCH  11  16
BRANCH   5  18
ATOM     18  N   UNL     1      33.956 -14.636 -22.026  0.00  0.00    -0.173 NA
ATOM     19  H   UNL     1      34.669 -14.797 -22.738  0.00  0.00    +0.150 HD
BRANCH  18  20
ATOM     20  S   UNL     1      33.954 -15.999 -20.990  0.00  0.00    +0.099 S 
ATOM     21  O   UNL     1      34.944 -15.771 -19.953  0.00  0.00    -0.141 OA
ATOM     22  O   UNL     1      32.582 -16.301 -20.625  0.00  0.00    -0.141 OA
BRANCH  20  23
ATOM     23  N   UNL     1      34.540 -17.245 -22.045  0.00  0.00    -0.146 NA
BRANCH  23  24
ATOM     24  C   UNL     1      35.319 -16.798 -23.232  0.00  0.00    +0.097 C 
ATOM     25  C   UNL     1      34.753 -17.435 -24.486  0.00  0.00    +0.021 C 
ENDBRANCH  23  24
BRANCH  23  26
ATOM     26  C   UNL     1      35.206 -18.391 -21.366  0.00  0.00    +0.097 C 
ATOM     27  C   UNL     1      34.190 -19.478 -21.084  0.00  0.00    +0.021 C 
ENDBRANCH  23  26
ENDBRANCH  20  23
ENDBRANCH  18  20
ENDBRANCH   5  18
BRANCH   1  28
ATOM     28  C   UNL     1      34.078 -12.994 -25.996  0.00  0.00    -0.077 C 
BRANCH  28  29
ATOM     29  C   UNL     1      33.071 -13.873 -26.732  0.00  0.00    -0.023 C 
ATOM     30  C   UNL     1      32.088 -13.036 -27.535  0.00  0.00    -0.002 C 
ENDBRANCH  28  29
ENDBRANCH   1  28
TORSDOF 8
ENDMDL
MODEL 5
REMARK VINA RESULT:      -8.5     11.312     15.463
REMARK  Name = 3086401
REMARK  8 active torsions:
REMARK  status: ('A' for Active; 'I' for Inactive)
REMARK    1  A    between atoms: N_1  and  C_28
REMARK    2  A    between atoms: C_5  and  N_18
REMARK    3  A    between atoms: C_11  and  O_16
REMARK    4  A    between atoms: N_18  and  S_20
REMARK    5  A    between atoms: S_20  and  N_23
REMARK    6  A    between atoms: N_23  and  C_24
REMARK    7  A    between atoms: N_23  and  C_26
REMARK    8  A    between atoms: C_28  and  C_29
REMARK                            x       y       z     vdW  Elec       q    Type
REMARK                         _______ _______ _______ _____ _____    ______ ____
ROOT
ATOM      1  N   UNL     1      32.561 -11.978 -21.866  0.00  0.00    +0.389 N 
ATOM      2  C   UNL     1      33.697 -12.963 -23.864  0.00  0.00    -0.013 C 
ATOM      3  C   UNL     1      32.797 -13.227 -22.631  0.00  0.00    -0.053 C 
ATOM      4  C   UNL     1      33.157 -11.824 -24.739  0.00  0.00    +0.014 C 
ATOM      5  C   UNL     1      32.830 -10.583 -23.919  0.00  0.00    +0.056 C 
ATOM      6  C   UNL     1      31.961 -10.930 -22.711  0.00  0.00    -0.059 C 
ATOM      7  C   UNL     1      33.836 -14.240 -24.710  0.00  0.00    +0.027 C 
ATOM      8  C   UNL     1      33.476 -14.307 -21.755  0.00  0.00    +0.005 C 
ATOM      9  C   UNL     1      34.208 -15.454 -23.904  0.00  0.00    +0.007 C 
ATOM     10  C   UNL     1      34.004 -15.498 -22.516  0.00  0.00    -0.025 C 
ATOM     11  C   UNL     1      34.716 -16.583 -24.564  0.00  0.00    +0.129 C 
ATOM     12  C   UNL     1      34.348 -16.660 -21.808  0.00  0.00    -0.004 C 
ATOM     13  C   UNL     1      35.045 -17.735 -23.850  0.00  0.00    +0.036 C 
ATOM     14  C   UNL     1      34.864 -17.773 -22.472  0.00  0.00    +0.003 C 
ATOM     15  H   UNL     1      33.482 -11.673 -21.548  0.00  0.00    -0.080 HD
ENDROOT
BRANCH  11  16
ATOM     16  O   UNL     1      34.896 -16.585 -25.917  0.00  0.00    -0.506 OA
ATOM     17  H   UNL     1      34.408 -15.991 -26.454  0.00  0.00    +0.292 HD
ENDBRANCH  11  16
BRANCH   5  18
ATOM     18  N   UNL     1      34.081  -9.921 -23.466  0.00  0.00    -0.173 NA
ATOM     19  H   UNL     1      34.155 -10.068 -22.459  0.00  0.00    +0.150 HD
BRANCH  18  20
ATOM     20  S   UNL     1      34.247  -8.240 -23.749  0.00  0.00    +0.099 S 
ATOM     21  O   UNL     1      35.246  -7.730 -22.828  0.00  0.00    -0.141 OA
ATOM     22  O   UNL     1      34.401  -8.024 -25.176  0.00  0.00    -0.141 OA
BRANCH  20  23
ATOM     23  N   UNL     1      32.693  -7.646 -23.258  0.00  0.00    -0.146 NA
BRANCH  23  24
ATOM     24  C   UNL     1      32.674  -6.724 -22.089  0.00  0.00    +0.097 C 
ATOM     25  C   UNL     1      32.117  -7.444 -20.877  0.00  0.00    +0.021 C 
ENDBRANCH  23  24
BRANCH  23  26
ATOM     26  C   UNL     1      31.832  -7.134 -24.359  0.00  0.00    +0.097 C 
ATOM     27  C   UNL     1      31.896  -5.621 -24.397  0.00  0.00    +0.021 C 
ENDBRANCH  23  26
ENDBRANCH  20  23
ENDBRANCH  18  20
ENDBRANCH   5  18
BRANCH   1  28
ATOM     28  C   UNL     1      31.711 -12.189 -20.690  0.00  0.00    -0.077 C 
BRANCH  28  29
ATOM     29  C   UNL     1      30.963 -10.906 -20.340  0.00  0.00    -0.023 C 
ATOM     30  C   UNL     1      31.258 -10.465 -18.915  0.00  0.00    -0.002 C 
ENDBRANCH  28  29
ENDBRANCH   1  28
TORSDOF 8
ENDMDL
MODEL 6
REMARK VINA RESULT:      -8.4      9.996     13.690
REMARK  Name = 3086401
REMARK  8 active torsions:
REMARK  status: ('A' for Active; 'I' for Inactive)
REMARK    1  A    between atoms: N_1  and  C_28
REMARK    2  A    between atoms: C_5  and  N_18
REMARK    3  A    between atoms: C_11  and  O_16
REMARK    4  A    between atoms: N_18  and  S_20
REMARK    5  A    between atoms: S_20  and  N_23
REMARK    6  A    between atoms: N_23  and  C_24
REMARK    7  A    between atoms: N_23  and  C_26
REMARK    8  A    between atoms: C_28  and  C_29
REMARK                            x       y       z     vdW  Elec       q    Type
REMARK                         _______ _______ _______ _____ _____    ______ ____
ROOT
ATOM      1  N   UNL     1      33.889 -13.083 -24.613  0.00  0.00    +0.389 N 
ATOM      2  C   UNL     1      33.015 -11.885 -22.600  0.00  0.00    -0.013 C 
ATOM      3  C   UNL     1      33.254 -11.832 -24.129  0.00  0.00    -0.053 C 
ATOM      4  C   UNL     1      32.243 -13.143 -22.180  0.00  0.00    +0.014 C 
ATOM      5  C   UNL     1      32.855 -14.408 -22.767  0.00  0.00    +0.056 C 
ATOM      6  C   UNL     1      33.081 -14.268 -24.271  0.00  0.00    -0.059 C 
ATOM      7  C   UNL     1      32.251 -10.634 -22.133  0.00  0.00    +0.027 C 
ATOM      8  C   UNL     1      34.130 -10.595 -24.443  0.00  0.00    +0.005 C 
ATOM      9  C   UNL     1      32.847  -9.347 -22.636  0.00  0.00    +0.007 C 
ATOM     10  C   UNL     1      33.704  -9.326 -23.747  0.00  0.00    -0.025 C 
ATOM     11  C   UNL     1      32.493  -8.141 -22.014  0.00  0.00    +0.129 C 
ATOM     12  C   UNL     1      34.221  -8.099 -24.192  0.00  0.00    -0.004 C 
ATOM     13  C   UNL     1      33.005  -6.928 -22.472  0.00  0.00    +0.036 C 
ATOM     14  C   UNL     1      33.871  -6.907 -23.560  0.00  0.00    +0.003 C 
ATOM     15  H   UNL     1      34.790 -13.136 -24.136  0.00  0.00    -0.080 HD
ENDROOT
BRANCH  11  16
ATOM     16  O   UNL     1      31.636  -8.123 -20.951  0.00  0.00    -0.506 OA
ATOM     17  H   UNL     1      31.317  -8.929 -20.595  0.00  0.00    +0.292 HD
ENDBRANCH  11  16
BRANCH   5  18
ATOM     18  N   UNL     1      34.142 -14.719 -22.091  0.00  0.00    -0.173 NA
ATOM     19  H   UNL     1      34.851 -14.815 -22.818  0.00  0.00    +0.150 HD
BRANCH  18  20
ATOM     20  S   UNL     1      34.216 -16.125 -21.116  0.00  0.00    +0.099 S 
ATOM     21  O   UNL     1      35.030 -15.818 -19.955  0.00  0.00    -0.141 OA
ATOM     22  O   UNL     1      32.870 -16.638 -20.941  0.00  0.00    -0.141 OA
BRANCH  20  23
ATOM     23  N   UNL     1      35.101 -17.214 -22.136  0.00  0.00    -0.146 NA
BRANCH  23  24
ATOM     24  C   UNL     1      35.899 -18.266 -21.448  0.00  0.00    +0.097 C 
ATOM     25  C   UNL     1      35.015 -19.459 -21.140  0.00  0.00    +0.021 C 
ENDBRANCH  23  24
BRANCH  23  26
ATOM     26  C   UNL     1      34.333 -17.783 -23.276  0.00  0.00    +0.097 C 
ATOM     27  C   UNL     1      34.975 -17.367 -24.584  0.00  0.00    +0.021 C 
ENDBRANCH  23  26
ENDBRANCH  20  23
ENDBRANCH  18  20
ENDBRANCH   5  18
BRANCH   1  28
ATOM     28  C   UNL     1      34.130 -13.070 -26.059  0.00  0.00    -0.077 C 
BRANCH  28  29
ATOM     29  C   UNL     1      33.142 -13.990 -26.770  0.00  0.00    -0.023 C 
ATOM     30  C   UNL     1      32.100 -13.194 -27.540  0.00  0.00    -0.002 C 
ENDBRANCH  28  29
ENDBRANCH   1  28
TORSDOF 8
ENDMDL
MODEL 7
REMARK VINA RESULT:      -8.4      1.232      1.911
REMARK  Name = 3086401
REMARK  8 active torsions:
REMARK  status: ('A' for Active; 'I' for Inactive)
REMARK    1  A    between atoms: N_1  and  C_28
REMARK    2  A    between atoms: C_5  and  N_18
REMARK    3  A    between atoms: C_11  and  O_16
REMARK    4  A    between atoms: N_18  and  S_20
REMARK    5  A    between atoms: S_20  and  N_23
REMARK    6  A    between atoms: N_23  and  C_24
REMARK    7  A    between atoms: N_23  and  C_26
REMARK    8  A    between atoms: C_28  and  C_29
REMARK                            x       y       z     vdW  Elec       q    Type
REMARK                         _______ _______ _______ _____ _____    ______ ____
ROOT
ATOM      1  N   UNL     1      34.663 -23.554 -15.952  0.00  0.00    +0.389 N 
ATOM      2  C   UNL     1      36.417 -22.381 -17.293  0.00  0.00    -0.013 C 
ATOM      3  C   UNL     1      34.932 -22.408 -16.855  0.00  0.00    -0.053 C 
ATOM      4  C   UNL     1      37.373 -22.429 -16.094  0.00  0.00    +0.014 C 
ATOM      5  C   UNL     1      37.020 -23.554 -15.129  0.00  0.00    +0.056 C 
ATOM      6  C   UNL     1      35.537 -23.526 -14.765  0.00  0.00    -0.059 C 
ATOM      7  C   UNL     1      36.706 -21.124 -18.131  0.00  0.00    +0.027 C 
ATOM      8  C   UNL     1      34.049 -22.470 -18.125  0.00  0.00    +0.005 C 
ATOM      9  C   UNL     1      35.715 -20.905 -19.241  0.00  0.00    +0.007 C 
ATOM     10  C   UNL     1      34.449 -21.511 -19.219  0.00  0.00    -0.025 C 
ATOM     11  C   UNL     1      36.044 -20.032 -20.289  0.00  0.00    +0.129 C 
ATOM     12  C   UNL     1      33.549 -21.261 -20.267  0.00  0.00    -0.004 C 
ATOM     13  C   UNL     1      35.138 -19.784 -21.319  0.00  0.00    +0.036 C 
ATOM     14  C   UNL     1      33.892 -20.401 -21.310  0.00  0.00    +0.003 C 
ATOM     15  H   UNL     1      34.863 -24.390 -16.502  0.00  0.00    -0.080 HD
ENDROOT
BRANCH  11  16
ATOM     16  O   UNL     1      37.255 -19.402 -20.324  0.00  0.00    -0.506 OA
ATOM     17  H   UNL     1      37.345 -18.589 -20.781  0.00  0.00    +0.292 HD
ENDBRANCH  11  16
BRANCH   5  18
ATOM     18  N   UNL     1      37.368 -24.871 -15.725  0.00  0.00    -0.173 NA
ATOM     19  H   UNL     1      36.824 -24.969 -16.583  0.00  0.00    +0.150 HD
BRANCH  18  20
ATOM     20  S   UNL     1      37.093 -26.274 -14.784  0.00  0.00    +0.099 S 
ATOM     21  O   UNL     1      35.785 -26.147 -14.167  0.00  0.00    -0.141 OA
ATOM     22  O   UNL     1      37.401 -27.441 -15.590  0.00  0.00    -0.141 OA
BRANCH  20  23
ATOM     23  N   UNL     1      38.301 -26.113 -13.549  0.00  0.00    -0.146 NA
BRANCH  23  24
ATOM     24  C   UNL     1      39.490 -25.285 -13.889  0.00  0.00    +0.097 C 
ATOM     25  C   UNL     1      40.551 -26.153 -14.537  0.00  0.00    +0.021 C 
ENDBRANCH  23  24
BRANCH  23  26
ATOM     26  C   UNL     1      37.784 -25.778 -12.194  0.00  0.00    +0.097 C 
ATOM     27  C   UNL     1      38.009 -24.307 -11.910  0.00  0.00    +0.021 C 
ENDBRANCH  23  26
ENDBRANCH  20  23
ENDBRANCH  18  20
ENDBRANCH   5  18
BRANCH   1  28
ATOM     28  C   UNL     1      33.265 -23.612 -15.514  0.00  0.00    -0.077 C 
BRANCH  28  29
ATOM     29  C   UNL     1      33.183 -23.552 -13.992  0.00  0.00    -0.023 C 
ATOM     30  C   UNL     1      31.761 -23.285 -13.523  0.00  0.00    -0.002 C 
ENDBRANCH  28  29
ENDBRANCH   1  28
TORSDOF 8
ENDMDL
MODEL 8
REMARK VINA RESULT:      -8.0      2.691      5.220
REMARK  Name = 3086401
REMARK  8 active torsions:
REMARK  status: ('A' for Active; 'I' for Inactive)
REMARK    1  A    between atoms: N_1  and  C_28
REMARK    2  A    between atoms: C_5  and  N_18
REMARK    3  A    between atoms: C_11  and  O_16
REMARK    4  A    between atoms: N_18  and  S_20
REMARK    5  A    between atoms: S_20  and  N_23
REMARK    6  A    between atoms: N_23  and  C_24
REMARK    7  A    between atoms: N_23  and  C_26
REMARK    8  A    between atoms: C_28  and  C_29
REMARK                            x       y       z     vdW  Elec       q    Type
REMARK                         _______ _______ _______ _____ _____    ______ ____
ROOT
ATOM      1  N   UNL     1      34.596 -22.860 -16.478  0.00  0.00    +0.389 N 
ATOM      2  C   UNL     1      33.061 -24.019 -14.881  0.00  0.00    -0.013 C 
ATOM      3  C   UNL     1      33.275 -23.519 -16.331  0.00  0.00    -0.053 C 
ATOM      4  C   UNL     1      34.221 -24.901 -14.399  0.00  0.00    +0.014 C 
ATOM      5  C   UNL     1      35.574 -24.247 -14.648  0.00  0.00    +0.056 C 
ATOM      6  C   UNL     1      35.697 -23.760 -16.091  0.00  0.00    -0.059 C 
ATOM      7  C   UNL     1      31.742 -24.802 -14.773  0.00  0.00    +0.027 C 
ATOM      8  C   UNL     1      32.119 -22.553 -16.688  0.00  0.00    +0.005 C 
ATOM      9  C   UNL     1      30.566 -24.078 -15.371  0.00  0.00    +0.007 C 
ATOM     10  C   UNL     1      30.745 -23.043 -16.302  0.00  0.00    -0.025 C 
ATOM     11  C   UNL     1      29.267 -24.487 -15.033  0.00  0.00    +0.129 C 
ATOM     12  C   UNL     1      29.618 -22.409 -16.848  0.00  0.00    -0.004 C 
ATOM     13  C   UNL     1      28.157 -23.856 -15.591  0.00  0.00    +0.036 C 
ATOM     14  C   UNL     1      28.331 -22.815 -16.496  0.00  0.00    +0.003 C 
ATOM     15  H   UNL     1      34.574 -22.057 -15.848  0.00  0.00    -0.080 HD
ENDROOT
BRANCH  11  16
ATOM     16  O   UNL     1      29.059 -25.512 -14.156  0.00  0.00    -0.506 OA
ATOM     17  H   UNL     1      29.761 -25.811 -13.612  0.00  0.00    +0.292 HD
ENDBRANCH  11  16
BRANCH   5  18
ATOM     18  N   UNL     1      35.776 -23.109 -13.713  0.00  0.00    -0.173 NA
ATOM     19  H   UNL     1      36.157 -22.334 -14.256  0.00  0.00    +0.150 HD
BRANCH  18  20
ATOM     20  S   UNL     1      36.810 -23.349 -12.370  0.00  0.00    +0.099 S 
ATOM     21  O   UNL     1      37.683 -22.194 -12.269  0.00  0.00    -0.141 OA
ATOM     22  O   UNL     1      36.005 -23.749 -11.231  0.00  0.00    -0.141 OA
BRANCH  20  23
ATOM     23  N   UNL     1      37.755 -24.708 -12.891  0.00  0.00    -0.146 NA
BRANCH  23  24
ATOM     24  C   UNL     1      39.234 -24.550 -12.829  0.00  0.00    +0.097 C 
ATOM     25  C   UNL     1      39.866 -25.160 -14.064  0.00  0.00    +0.021 C 
ENDBRANCH  23  24
BRANCH  23  26
ATOM     26  C   UNL     1      37.332 -26.024 -12.340  0.00  0.00    +0.097 C 
ATOM     27  C   UNL     1      37.113 -27.006 -13.473  0.00  0.00    +0.021 C 
ENDBRANCH  23  26
ENDBRANCH  20  23
ENDBRANCH  18  20
ENDBRANCH   5  18
BRANCH   1  28
ATOM     28  C   UNL     1      34.834 -22.373 -17.840  0.00  0.00    -0.077 C 
BRANCH  28  29
ATOM     29  C   UNL     1      36.263 -21.853 -17.975  0.00  0.00    -0.023 C 
ATOM     30  C   UNL     1      36.492 -21.210 -19.334  0.00  0.00    -0.002 C 
ENDBRANCH  28  29
ENDBRANCH   1  28
TORSDOF 8
ENDMDL
MODEL 9
REMARK VINA RESULT:      -7.8     10.243     14.224
REMARK  Name = 3086401
REMARK  8 active torsions:
REMARK  status: ('A' for Active; 'I' for Inactive)
REMARK    1  A    between atoms: N_1  and  C_28
REMARK    2  A    between atoms: C_5  and  N_18
REMARK    3  A    between atoms: C_11  and  O_16
REMARK    4  A    between atoms: N_18  and  S_20
REMARK    5  A    between atoms: S_20  and  N_23
REMARK    6  A    between atoms: N_23  and  C_24
REMARK    7  A    between atoms: N_23  and  C_26
REMARK    8  A    between atoms: C_28  and  C_29
REMARK                            x       y       z     vdW  Elec       q    Type
REMARK                         _______ _______ _______ _____ _____    ______ ____
ROOT
ATOM      1  N   UNL     1      33.306 -13.489 -24.902  0.00  0.00    +0.389 N 
ATOM      2  C   UNL     1      33.912 -14.814 -22.871  0.00  0.00    -0.013 C 
ATOM      3  C   UNL     1      34.108 -14.630 -24.396  0.00  0.00    -0.053 C 
ATOM      4  C   UNL     1      34.170 -13.516 -22.095  0.00  0.00    +0.014 C 
ATOM      5  C   UNL     1      33.412 -12.336 -22.691  0.00  0.00    +0.056 C 
ATOM      6  C   UNL     1      33.638 -12.237 -24.198  0.00  0.00    -0.059 C 
ATOM      7  C   UNL     1      34.838 -15.922 -22.341  0.00  0.00    +0.027 C 
ATOM      8  C   UNL     1      33.720 -15.951 -25.101  0.00  0.00    +0.005 C 
ATOM      9  C   UNL     1      34.772 -17.192 -23.146  0.00  0.00    +0.007 C 
ATOM     10  C   UNL     1      34.279 -17.198 -24.459  0.00  0.00    -0.025 C 
ATOM     11  C   UNL     1      35.267 -18.381 -22.588  0.00  0.00    +0.129 C 
ATOM     12  C   UNL     1      34.254 -18.403 -25.179  0.00  0.00    -0.004 C 
ATOM     13  C   UNL     1      35.247 -19.569 -23.317  0.00  0.00    +0.036 C 
ATOM     14  C   UNL     1      34.738 -19.581 -24.611  0.00  0.00    +0.003 C 
ATOM     15  H   UNL     1      32.333 -13.735 -24.719  0.00  0.00    -0.080 HD
ENDROOT
BRANCH  11  16
ATOM     16  O   UNL     1      35.783 -18.402 -21.325  0.00  0.00    -0.506 OA
ATOM     17  H   UNL     1      36.147 -17.622 -20.955  0.00  0.00    +0.292 HD
ENDBRANCH  11  16
BRANCH   5  18
ATOM     18  N   UNL     1      31.958 -12.463 -22.406  0.00  0.00    -0.173 NA
ATOM     19  H   UNL     1      31.458 -12.194 -23.254  0.00  0.00    +0.150 HD
BRANCH  18  20
ATOM     20  S   UNL     1      31.311 -11.540 -21.118  0.00  0.00    +0.099 S 
ATOM     21  O   UNL     1      29.876 -11.447 -21.314  0.00  0.00    -0.141 OA
ATOM     22  O   UNL     1      31.837 -12.058 -19.868  0.00  0.00    -0.141 OA
BRANCH  20  23
ATOM     23  N   UNL     1      32.009  -9.981 -21.415  0.00  0.00    -0.146 NA
BRANCH  23  24
ATOM     24  C   UNL     1      31.368  -9.158 -22.478  0.00  0.00    +0.097 C 
ATOM     25  C   UNL     1      32.291  -9.062 -23.677  0.00  0.00    +0.021 C 
ENDBRANCH  23  24
BRANCH  23  26
ATOM     26  C   UNL     1      32.286  -9.166 -20.200  0.00  0.00    +0.097 C 
ATOM     27  C   UNL     1      32.318  -7.697 -20.566  0.00  0.00    +0.021 C 
ENDBRANCH  23  26
ENDBRANCH  20  23
ENDBRANCH  18  20
ENDBRANCH   5  18
BRANCH   1  28
ATOM     28  C   UNL     1      33.468 -13.283 -26.345  0.00  0.00    -0.077 C 
BRANCH  28  29
ATOM     29  C   UNL     1      33.826 -11.828 -26.636  0.00  0.00    -0.023 C 
ATOM     30  C   UNL     1      35.180 -11.717 -27.318  0.00  0.00    -0.002 C 
ENDBRANCH  28  29
ENDBRANCH   1  28
TORSDOF 8
ENDMDL
