MODEL 1
REMARK VINA RESULT:      -4.8      0.000      0.000
REMARK  Name = 3080775
REMARK  6 active torsions:
REMARK  status: ('A' for Active; 'I' for Inactive)
REMARK    1  A    between atoms: C_1  and  N_2
REMARK    2  A    between atoms: C_1  and  C_7
REMARK    3  A    between atoms: C_1  and  C_10
REMARK    4  A    between atoms: C_7  and  O_8
REMARK    5  A    between atoms: C_10  and  S_11
REMARK    6  A    between atoms: S_11  and  S_12
REMARK                            x       y       z     vdW  Elec       q    Type
REMARK                         _______ _______ _______ _____ _____    ______ ____
ROOT
ATOM      1  C   UNK     1      38.615 -25.121 -14.513  0.00  0.00    +0.047 C 
ENDROOT
BRANCH   1   2
ATOM      2  N   UNK     1      37.852 -26.024 -15.378  0.00  0.00    +0.389 N 
ATOM      3  H   UNK     1      38.029 -25.789 -16.355  0.00  0.00    -0.088 HD
ATOM      4  H   UNK     1      36.856 -25.923 -15.180  0.00  0.00    -0.088 HD
ATOM      5  H   UNK     1      38.138 -26.986 -15.202  0.00  0.00    -0.088 HD
ENDBRANCH   1   2
BRANCH   1   7
ATOM      6  O   UNK     1      40.991 -24.750 -14.252  0.00  0.00    -0.253 OA
ATOM      7  C   UNK     1      40.076 -25.240 -14.905  0.00  0.00    +0.294 C 
BRANCH   7   8
ATOM      8  O   UNK     1      40.279 -25.911 -16.066  0.00  0.00    -0.482 OA
ATOM      9  H   UNK     1      41.082 -26.371 -16.208  0.00  0.00    +0.295 HD
ENDBRANCH   7   8
ENDBRANCH   1   7
BRANCH   1  10
ATOM     10  C   UNK     1      38.378 -25.478 -13.045  0.00  0.00    +0.058 C 
BRANCH  10  11
ATOM     11  S   UNK     1      37.892 -24.025 -12.061  0.00  0.00    -0.084 S 
BRANCH  11  12
ATOM     12  S   UNK     1      35.944 -24.481 -11.595  0.00  0.00    -0.081 S 
ATOM     13  C   UNK     1      35.126 -24.284 -13.195  0.00  0.00    +0.081 C 
ENDBRANCH  11  12
ENDBRANCH  10  11
ENDBRANCH   1  10
TORSDOF 6
ENDMDL
MODEL 2
REMARK VINA RESULT:      -4.8      1.814      2.014
REMARK  Name = 3080775
REMARK  6 active torsions:
REMARK  status: ('A' for Active; 'I' for Inactive)
REMARK    1  A    between atoms: C_1  and  N_2
REMARK    2  A    between atoms: C_1  and  C_7
REMARK    3  A    between atoms: C_1  and  C_10
REMARK    4  A    between atoms: C_7  and  O_8
REMARK    5  A    between atoms: C_10  and  S_11
REMARK    6  A    between atoms: S_11  and  S_12
REMARK                            x       y       z     vdW  Elec       q    Type
REMARK                         _______ _______ _______ _____ _____    ______ ____
ROOT
ATOM      1  C   UNK     1      38.625 -25.443 -14.480  0.00  0.00    +0.047 C 
ENDROOT
BRANCH   1   2
ATOM      2  N   UNK     1      38.292 -26.867 -14.394  0.00  0.00    +0.389 N 
ATOM      3  H   UNK     1      37.403 -27.037 -14.865  0.00  0.00    -0.088 HD
ATOM      4  H   UNK     1      38.215 -27.140 -13.414  0.00  0.00    -0.088 HD
ATOM      5  H   UNK     1      39.024 -27.415 -14.844  0.00  0.00    -0.088 HD
ENDBRANCH   1   2
BRANCH   1   7
ATOM      6  O   UNK     1      40.923 -24.735 -14.219  0.00  0.00    -0.253 OA
ATOM      7  C   UNK     1      40.085 -25.339 -14.879  0.00  0.00    +0.294 C 
BRANCH   7   8
ATOM      8  O   UNK     1      40.376 -25.946 -16.057  0.00  0.00    -0.482 OA
ATOM      9  H   UNK     1      41.268 -26.097 -16.299  0.00  0.00    +0.295 HD
ENDBRANCH   7   8
ENDBRANCH   1   7
BRANCH   1  10
ATOM     10  C   UNK     1      38.340 -24.757 -13.143  0.00  0.00    +0.058 C 
BRANCH  10  11
ATOM     11  S   UNK     1      37.080 -23.452 -13.303  0.00  0.00    -0.084 S 
BRANCH  11  12
ATOM     12  S   UNK     1      36.509 -23.676 -15.263  0.00  0.00    -0.081 S 
ATOM     13  C   UNK     1      37.311 -22.256 -16.046  0.00  0.00    +0.081 C 
ENDBRANCH  11  12
ENDBRANCH  10  11
ENDBRANCH   1  10
TORSDOF 6
ENDMDL
MODEL 3
REMARK VINA RESULT:      -4.7      1.614      1.747
REMARK  Name = 3080775
REMARK  6 active torsions:
REMARK  status: ('A' for Active; 'I' for Inactive)
REMARK    1  A    between atoms: C_1  and  N_2
REMARK    2  A    between atoms: C_1  and  C_7
REMARK    3  A    between atoms: C_1  and  C_10
REMARK    4  A    between atoms: C_7  and  O_8
REMARK    5  A    between atoms: C_10  and  S_11
REMARK    6  A    between atoms: S_11  and  S_12
REMARK                            x       y       z     vdW  Elec       q    Type
REMARK                         _______ _______ _______ _____ _____    ______ ____
ROOT
ATOM      1  C   UNK     1      38.671 -25.610 -14.542  0.00  0.00    +0.047 C 
ENDROOT
BRANCH   1   2
ATOM      2  N   UNK     1      38.668 -26.142 -13.178  0.00  0.00    +0.389 N 
ATOM      3  H   UNK     1      38.383 -27.122 -13.195  0.00  0.00    -0.088 HD
ATOM      4  H   UNK     1      38.013 -25.608 -12.606  0.00  0.00    -0.088 HD
ATOM      5  H   UNK     1      39.605 -26.068 -12.782  0.00  0.00    -0.088 HD
ENDBRANCH   1   2
BRANCH   1   7
ATOM      6  O   UNK     1      40.894 -24.695 -14.275  0.00  0.00    -0.253 OA
ATOM      7  C   UNK     1      40.117 -25.374 -14.937  0.00  0.00    +0.294 C 
BRANCH   7   8
ATOM      8  O   UNK     1      40.465 -25.954 -16.113  0.00  0.00    -0.482 OA
ATOM      9  H   UNK     1      40.058 -25.679 -16.910  0.00  0.00    +0.295 HD
ENDBRANCH   7   8
ENDBRANCH   1   7
BRANCH   1  10
ATOM     10  C   UNK     1      37.836 -24.330 -14.607  0.00  0.00    +0.058 C 
BRANCH  10  11
ATOM     11  S   UNK     1      36.049 -24.682 -14.596  0.00  0.00    -0.084 S 
BRANCH  11  12
ATOM     12  S   UNK     1      35.529 -24.087 -12.700  0.00  0.00    -0.081 S 
ATOM     13  C   UNK     1      36.981 -23.130 -12.202  0.00  0.00    +0.081 C 
ENDBRANCH  11  12
ENDBRANCH  10  11
ENDBRANCH   1  10
TORSDOF 6
ENDMDL
MODEL 4
REMARK VINA RESULT:      -4.6      4.223      4.741
REMARK  Name = 3080775
REMARK  6 active torsions:
REMARK  status: ('A' for Active; 'I' for Inactive)
REMARK    1  A    between atoms: C_1  and  N_2
REMARK    2  A    between atoms: C_1  and  C_7
REMARK    3  A    between atoms: C_1  and  C_10
REMARK    4  A    between atoms: C_7  and  O_8
REMARK    5  A    between atoms: C_10  and  S_11
REMARK    6  A    between atoms: S_11  and  S_12
REMARK                            x       y       z     vdW  Elec       q    Type
REMARK                         _______ _______ _______ _____ _____    ______ ____
ROOT
ATOM      1  C   UNK     1      36.616 -23.304 -11.856  0.00  0.00    +0.047 C 
ENDROOT
BRANCH   1   2
ATOM      2  N   UNK     1      38.033 -23.517 -11.552  0.00  0.00    +0.389 N 
ATOM      3  H   UNK     1      38.143 -23.689 -10.552  0.00  0.00    -0.088 HD
ATOM      4  H   UNK     1      38.565 -22.688 -11.814  0.00  0.00    -0.088 HD
ATOM      5  H   UNK     1      38.376 -24.322 -12.075  0.00  0.00    -0.088 HD
ENDBRANCH   1   2
BRANCH   1   7
ATOM      6  O   UNK     1      35.983 -24.290  -9.741  0.00  0.00    -0.253 OA
ATOM      7  C   UNK     1      35.811 -24.219 -10.952  0.00  0.00    +0.294 C 
BRANCH   7   8
ATOM      8  O   UNK     1      34.904 -24.982 -11.612  0.00  0.00    -0.482 OA
ATOM      9  H   UNK     1      34.652 -24.759 -12.486  0.00  0.00    +0.295 HD
ENDBRANCH   7   8
ENDBRANCH   1   7
BRANCH   1  10
ATOM     10  C   UNK     1      36.353 -23.576 -13.339  0.00  0.00    +0.058 C 
BRANCH  10  11
ATOM     11  S   UNK     1      37.784 -24.355 -14.152  0.00  0.00    -0.084 S 
BRANCH  11  12
ATOM     12  S   UNK     1      37.408 -26.347 -13.816  0.00  0.00    -0.081 S 
ATOM     13  C   UNK     1      36.713 -26.864 -15.404  0.00  0.00    +0.081 C 
ENDBRANCH  11  12
ENDBRANCH  10  11
ENDBRANCH   1  10
TORSDOF 6
ENDMDL
MODEL 5
REMARK VINA RESULT:      -4.6      4.090      4.979
REMARK  Name = 3080775
REMARK  6 active torsions:
REMARK  status: ('A' for Active; 'I' for Inactive)
REMARK    1  A    between atoms: C_1  and  N_2
REMARK    2  A    between atoms: C_1  and  C_7
REMARK    3  A    between atoms: C_1  and  C_10
REMARK    4  A    between atoms: C_7  and  O_8
REMARK    5  A    between atoms: C_10  and  S_11
REMARK    6  A    between atoms: S_11  and  S_12
REMARK                            x       y       z     vdW  Elec       q    Type
REMARK                         _______ _______ _______ _____ _____    ______ ____
ROOT
ATOM      1  C   UNK     1      36.858 -24.625 -12.228  0.00  0.00    +0.047 C 
ENDROOT
BRANCH   1   2
ATOM      2  N   UNK     1      37.904 -23.961 -11.448  0.00  0.00    +0.389 N 
ATOM      3  H   UNK     1      37.662 -22.979 -11.320  0.00  0.00    -0.088 HD
ATOM      4  H   UNK     1      38.793 -24.030 -11.943  0.00  0.00    -0.088 HD
ATOM      5  H   UNK     1      37.987 -24.412 -10.536  0.00  0.00    -0.088 HD
ENDBRANCH   1   2
BRANCH   1   7
ATOM      6  O   UNK     1      35.291 -25.134 -10.457  0.00  0.00    -0.253 OA
ATOM      7  C   UNK     1      35.556 -24.483 -11.461  0.00  0.00    +0.294 C 
BRANCH   7   8
ATOM      8  O   UNK     1      34.692 -23.592 -12.009  0.00  0.00    -0.482 OA
ATOM      9  H   UNK     1      34.975 -22.719 -12.194  0.00  0.00    +0.295 HD
ENDBRANCH   7   8
ENDBRANCH   1   7
BRANCH   1  10
ATOM     10  C   UNK     1      37.232 -26.089 -12.467  0.00  0.00    +0.058 C 
BRANCH  10  11
ATOM     11  S   UNK     1      37.406 -26.466 -14.240  0.00  0.00    -0.084 S 
BRANCH  11  12
ATOM     12  S   UNK     1      38.749 -25.028 -14.832  0.00  0.00    -0.081 S 
ATOM     13  C   UNK     1      40.318 -25.741 -14.283  0.00  0.00    +0.081 C 
ENDBRANCH  11  12
ENDBRANCH  10  11
ENDBRANCH   1  10
TORSDOF 6
ENDMDL
MODEL 6
REMARK VINA RESULT:      -4.6      2.672      2.750
REMARK  Name = 3080775
REMARK  6 active torsions:
REMARK  status: ('A' for Active; 'I' for Inactive)
REMARK    1  A    between atoms: C_1  and  N_2
REMARK    2  A    between atoms: C_1  and  C_7
REMARK    3  A    between atoms: C_1  and  C_10
REMARK    4  A    between atoms: C_7  and  O_8
REMARK    5  A    between atoms: C_10  and  S_11
REMARK    6  A    between atoms: S_11  and  S_12
REMARK                            x       y       z     vdW  Elec       q    Type
REMARK                         _______ _______ _______ _____ _____    ______ ____
ROOT
ATOM      1  C   UNK     1      37.505 -26.722 -14.113  0.00  0.00    +0.047 C 
ENDROOT
BRANCH   1   2
ATOM      2  N   UNK     1      38.888 -26.364 -14.436  0.00  0.00    +0.389 N 
ATOM      3  H   UNK     1      39.056 -25.392 -14.179  0.00  0.00    -0.088 HD
ATOM      4  H   UNK     1      39.045 -26.484 -15.437  0.00  0.00    -0.088 HD
ATOM      5  H   UNK     1      39.525 -26.968 -13.916  0.00  0.00    -0.088 HD
ENDBRANCH   1   2
BRANCH   1   7
ATOM      6  O   UNK     1      35.903 -25.450 -15.404  0.00  0.00    -0.253 OA
ATOM      7  C   UNK     1      36.656 -26.414 -15.333  0.00  0.00    +0.294 C 
BRANCH   7   8
ATOM      8  O   UNK     1      36.780 -27.326 -16.330  0.00  0.00    -0.482 OA
ATOM      9  H   UNK     1      37.015 -28.210 -16.130  0.00  0.00    +0.295 HD
ENDBRANCH   7   8
ENDBRANCH   1   7
BRANCH   1  10
ATOM     10  C   UNK     1      37.040 -25.952 -12.875  0.00  0.00    +0.058 C 
BRANCH  10  11
ATOM     11  S   UNK     1      38.217 -24.644 -12.406  0.00  0.00    -0.084 S 
BRANCH  11  12
ATOM     12  S   UNK     1      36.945 -23.158 -11.779  0.00  0.00    -0.081 S 
ATOM     13  C   UNK     1      35.326 -23.882 -12.138  0.00  0.00    +0.081 C 
ENDBRANCH  11  12
ENDBRANCH  10  11
ENDBRANCH   1  10
TORSDOF 6
ENDMDL
MODEL 7
REMARK VINA RESULT:      -4.6      9.699     11.093
REMARK  Name = 3080775
REMARK  6 active torsions:
REMARK  status: ('A' for Active; 'I' for Inactive)
REMARK    1  A    between atoms: C_1  and  N_2
REMARK    2  A    between atoms: C_1  and  C_7
REMARK    3  A    between atoms: C_1  and  C_10
REMARK    4  A    between atoms: C_7  and  O_8
REMARK    5  A    between atoms: C_10  and  S_11
REMARK    6  A    between atoms: S_11  and  S_12
REMARK                            x       y       z     vdW  Elec       q    Type
REMARK                         _______ _______ _______ _____ _____    ______ ____
ROOT
ATOM      1  C   UNK     1      27.765 -22.936 -16.221  0.00  0.00    +0.047 C 
ENDROOT
BRANCH   1   2
ATOM      2  N   UNK     1      28.318 -23.194 -17.552  0.00  0.00    +0.389 N 
ATOM      3  H   UNK     1      27.950 -22.508 -18.212  0.00  0.00    -0.088 HD
ATOM      4  H   UNK     1      28.054 -24.132 -17.854  0.00  0.00    -0.088 HD
ATOM      5  H   UNK     1      29.335 -23.120 -17.519  0.00  0.00    -0.088 HD
ENDBRANCH   1   2
BRANCH   1   7
ATOM      6  O   UNK     1      25.574 -22.050 -15.710  0.00  0.00    -0.253 OA
ATOM      7  C   UNK     1      26.593 -21.988 -16.389  0.00  0.00    +0.294 C 
BRANCH   7   8
ATOM      8  O   UNK     1      26.758 -21.083 -17.385  0.00  0.00    -0.482 OA
ATOM      9  H   UNK     1      26.622 -20.171 -17.218  0.00  0.00    +0.295 HD
ENDBRANCH   7   8
ENDBRANCH   1   7
BRANCH   1  10
ATOM     10  C   UNK     1      28.849 -22.361 -15.307  0.00  0.00    +0.058 C 
BRANCH  10  11
ATOM     11  S   UNK     1      30.477 -23.112 -15.626  0.00  0.00    -0.084 S 
BRANCH  11  12
ATOM     12  S   UNK     1      30.254 -24.955 -14.748  0.00  0.00    -0.081 S 
ATOM     13  C   UNK     1      31.762 -25.076 -13.756  0.00  0.00    +0.081 C 
ENDBRANCH  11  12
ENDBRANCH  10  11
ENDBRANCH   1  10
TORSDOF 6
ENDMDL
MODEL 8
REMARK VINA RESULT:      -4.6      2.279      2.818
REMARK  Name = 3080775
REMARK  6 active torsions:
REMARK  status: ('A' for Active; 'I' for Inactive)
REMARK    1  A    between atoms: C_1  and  N_2
REMARK    2  A    between atoms: C_1  and  C_7
REMARK    3  A    between atoms: C_1  and  C_10
REMARK    4  A    between atoms: C_7  and  O_8
REMARK    5  A    between atoms: C_10  and  S_11
REMARK    6  A    between atoms: S_11  and  S_12
REMARK                            x       y       z     vdW  Elec       q    Type
REMARK                         _______ _______ _______ _____ _____    ______ ____
ROOT
ATOM      1  C   UNK     1      37.109 -25.164 -14.688  0.00  0.00    +0.047 C 
ENDROOT
BRANCH   1   2
ATOM      2  N   UNK     1      37.957 -24.258 -15.466  0.00  0.00    +0.389 N 
ATOM      3  H   UNK     1      37.406 -23.833 -16.212  0.00  0.00    -0.088 HD
ATOM      4  H   UNK     1      38.731 -24.783 -15.873  0.00  0.00    -0.088 HD
ATOM      5  H   UNK     1      38.323 -23.527 -14.856  0.00  0.00    -0.088 HD
ENDBRANCH   1   2
BRANCH   1   7
ATOM      6  O   UNK     1      38.364 -27.226 -14.550  0.00  0.00    -0.253 OA
ATOM      7  C   UNK     1      37.469 -26.583 -15.086  0.00  0.00    +0.294 C 
BRANCH   7   8
ATOM      8  O   UNK     1      36.733 -27.065 -16.119  0.00  0.00    -0.482 OA
ATOM      9  H   UNK     1      35.852 -26.773 -16.243  0.00  0.00    +0.295 HD
ENDBRANCH   7   8
ENDBRANCH   1   7
BRANCH   1  10
ATOM     10  C   UNK     1      35.634 -24.848 -14.942  0.00  0.00    +0.058 C 
BRANCH  10  11
ATOM     11  S   UNK     1      34.822 -24.156 -13.466  0.00  0.00    -0.084 S 
BRANCH  11  12
ATOM     12  S   UNK     1      36.163 -24.655 -11.993  0.00  0.00    -0.081 S 
ATOM     13  C   UNK     1      36.961 -23.064 -11.666  0.00  0.00    +0.081 C 
ENDBRANCH  11  12
ENDBRANCH  10  11
ENDBRANCH   1  10
TORSDOF 6
ENDMDL
MODEL 9
REMARK VINA RESULT:      -4.5      3.694      4.901
REMARK  Name = 3080775
REMARK  6 active torsions:
REMARK  status: ('A' for Active; 'I' for Inactive)
REMARK    1  A    between atoms: C_1  and  N_2
REMARK    2  A    between atoms: C_1  and  C_7
REMARK    3  A    between atoms: C_1  and  C_10
REMARK    4  A    between atoms: C_7  and  O_8
REMARK    5  A    between atoms: C_10  and  S_11
REMARK    6  A    between atoms: S_11  and  S_12
REMARK                            x       y       z     vdW  Elec       q    Type
REMARK                         _______ _______ _______ _____ _____    ______ ____
ROOT
ATOM      1  C   UNK     1      35.685 -24.259 -12.717  0.00  0.00    +0.047 C 
ENDROOT
BRANCH   1   2
ATOM      2  N   UNK     1      34.379 -23.604 -12.818  0.00  0.00    +0.389 N 
ATOM      3  H   UNK     1      34.170 -23.413 -13.798  0.00  0.00    -0.088 HD
ATOM      4  H   UNK     1      34.397 -22.726 -12.298  0.00  0.00    -0.088 HD
ATOM      5  H   UNK     1      33.660 -24.215 -12.431  0.00  0.00    -0.088 HD
ENDBRANCH   1   2
BRANCH   1   7
ATOM      6  O   UNK     1      35.220 -25.133 -10.510  0.00  0.00    -0.253 OA
ATOM      7  C   UNK     1      35.965 -24.494 -11.244  0.00  0.00    +0.294 C 
BRANCH   7   8
ATOM      8  O   UNK     1      37.102 -23.901 -10.802  0.00  0.00    -0.482 OA
ATOM      9  H   UNK     1      37.913 -24.368 -10.824  0.00  0.00    +0.295 HD
ENDBRANCH   7   8
ENDBRANCH   1   7
BRANCH   1  10
ATOM     10  C   UNK     1      36.758 -23.394 -13.380  0.00  0.00    +0.058 C 
BRANCH  10  11
ATOM     11  S   UNK     1      37.624 -24.286 -14.711  0.00  0.00    -0.084 S 
BRANCH  11  12
ATOM     12  S   UNK     1      38.873 -25.511 -13.633  0.00  0.00    -0.081 S 
ATOM     13  C   UNK     1      40.298 -25.649 -14.737  0.00  0.00    +0.081 C 
ENDBRANCH  11  12
ENDBRANCH  10  11
ENDBRANCH   1  10
TORSDOF 6
ENDMDL
