MODEL 1
REMARK VINA RESULT:     -11.0      0.000      0.000
REMARK  Name = 10345214
REMARK  13 active torsions:
REMARK  status: ('A' for Active; 'I' for Inactive)
REMARK    1  A    between atoms: C_1  and  O_2
REMARK    2  A    between atoms: C_1  and  C_4
REMARK    3  A    between atoms: C_1  and  C_21
REMARK    4  A    between atoms: C_4  and  N_5
REMARK    5  A    between atoms: N_5  and  C_8
REMARK    6  A    between atoms: C_8  and  C_11
REMARK    7  A    between atoms: C_11  and  C_12
REMARK    8  A    between atoms: C_21  and  O_22
REMARK    9  A    between atoms: O_22  and  C_25
REMARK   10  A    between atoms: C_27  and  C_31
REMARK   11  A    between atoms: C_31  and  C_32
REMARK   12  A    between atoms: C_32  and  C_34
REMARK   13  A    between atoms: C_34  and  O_35
REMARK                            x       y       z     vdW  Elec       q    Type
REMARK                         _______ _______ _______ _____ _____    ______ ____
ROOT
ATOM      1  C   UNL     1      35.440 -22.011 -19.345  0.00  0.00    +0.133 C 
ENDROOT
BRANCH   1   2
ATOM      2  O   UNL     1      36.275 -21.454 -18.325  0.00  0.00    -0.383 OA
ATOM      3  H   UNL     1      36.085 -20.508 -18.232  0.00  0.00    +0.210 HD
ENDBRANCH   1   2
BRANCH   1   4
ATOM      4  C   UNL     1      35.567 -21.139 -20.596  0.00  0.00    -0.048 C 
BRANCH   4   5
ATOM      5  N   UNL     1      35.643 -19.725 -20.271  0.00  0.00    +0.388 N 
ATOM      6  H   UNL     1      35.333 -19.585 -19.310  0.00  0.00    -0.084 HD
ATOM      7  H   UNL     1      36.609 -19.413 -20.378  0.00  0.00    -0.084 HD
BRANCH   5   8
ATOM      8  C   UNL     1      34.790 -18.942 -21.174  0.00  0.00    -0.046 C 
ATOM      9  C   UNL     1      35.103 -19.355 -22.622  0.00  0.00    -0.022 C 
ATOM     10  C   UNL     1      33.324 -19.273 -20.861  0.00  0.00    -0.022 C 
BRANCH   8  11
ATOM     11  C   UNL     1      35.088 -17.437 -21.010  0.00  0.00    -0.019 C 
BRANCH  11  12
ATOM     12  C   UNL     1      34.126 -16.504 -21.729  0.00  0.00    +0.007 C 
ATOM     13  C   UNL     1      34.831 -15.609 -22.769  0.00  0.00    +0.026 C 
ATOM     14  C   UNL     1      33.389 -15.552 -20.763  0.00  0.00    +0.026 C 
ATOM     15  C   UNL     1      33.929 -14.415 -22.790  0.00  0.00    -0.026 C 
ATOM     16  C   UNL     1      33.113 -14.383 -21.655  0.00  0.00    -0.026 C 
ATOM     17  C   UNL     1      33.875 -13.406 -23.738  0.00  0.00    -0.005 C 
ATOM     18  C   UNL     1      32.226 -13.341 -21.443  0.00  0.00    -0.005 C 
ATOM     19  C   UNL     1      32.975 -12.358 -23.539  0.00  0.00    -0.000 C 
ATOM     20  C   UNL     1      32.156 -12.326 -22.399  0.00  0.00    -0.000 C 
ENDBRANCH  11  12
ENDBRANCH   8  11
ENDBRANCH   5   8
ENDBRANCH   4   5
ENDBRANCH   1   4
BRANCH   1  21
ATOM     21  C   UNL     1      34.012 -22.100 -18.811  0.00  0.00    +0.232 C 
BRANCH  21  22
ATOM     22  O   UNL     1      33.835 -23.365 -18.182  0.00  0.00    -0.471 OA
BRANCH  22  25
ATOM     23  F   UNL     1      35.543 -23.713 -16.051  0.00  0.00    -0.199 F 
ATOM     24  F   UNL     1      34.585 -23.685 -13.497  0.00  0.00    -0.202 F 
ATOM     25  C   UNL     1      33.357 -23.352 -16.898  0.00  0.00    +0.168 C 
ATOM     26  C   UNL     1      31.998 -23.162 -16.673  0.00  0.00    +0.035 C 
ATOM     27  C   UNL     1      31.510 -23.148 -15.366  0.00  0.00    -0.016 C 
ATOM     28  C   UNL     1      34.234 -23.528 -15.833  0.00  0.00    +0.201 C 
ATOM     29  C   UNL     1      32.384 -23.325 -14.293  0.00  0.00    +0.028 C 
ATOM     30  C   UNL     1      33.745 -23.515 -14.527  0.00  0.00    +0.170 C 
BRANCH  27  31
ATOM     31  C   UNL     1      30.054 -22.947 -15.116  0.00  0.00    +0.038 C 
BRANCH  31  32
ATOM     32  C   UNL     1      29.151 -23.858 -15.956  0.00  0.00    +0.114 C 
BRANCH  32  34
ATOM     33  O   UNL     1      28.174 -21.844 -16.861  0.00  0.00    -0.250 OA
ATOM     34  C   UNL     1      28.268 -23.064 -16.888  0.00  0.00    +0.314 C 
BRANCH  34  35
ATOM     35  O   UNL     1      27.565 -23.846 -17.743  0.00  0.00    -0.480 OA
ATOM     36  H   UNL     1      27.153 -23.466 -18.494  0.00  0.00    +0.295 HD
ENDBRANCH  34  35
ENDBRANCH  32  34
ENDBRANCH  31  32
ENDBRANCH  27  31
ENDBRANCH  22  25
ENDBRANCH  21  22
ENDBRANCH   1  21
TORSDOF 13
ENDMDL
MODEL 2
REMARK VINA RESULT:     -11.0      3.534      9.400
REMARK  Name = 10345214
REMARK  13 active torsions:
REMARK  status: ('A' for Active; 'I' for Inactive)
REMARK    1  A    between atoms: C_1  and  O_2
REMARK    2  A    between atoms: C_1  and  C_4
REMARK    3  A    between atoms: C_1  and  C_21
REMARK    4  A    between atoms: C_4  and  N_5
REMARK    5  A    between atoms: N_5  and  C_8
REMARK    6  A    between atoms: C_8  and  C_11
REMARK    7  A    between atoms: C_11  and  C_12
REMARK    8  A    between atoms: C_21  and  O_22
REMARK    9  A    between atoms: O_22  and  C_25
REMARK   10  A    between atoms: C_27  and  C_31
REMARK   11  A    between atoms: C_31  and  C_32
REMARK   12  A    between atoms: C_32  and  C_34
REMARK   13  A    between atoms: C_34  and  O_35
REMARK                            x       y       z     vdW  Elec       q    Type
REMARK                         _______ _______ _______ _____ _____    ______ ____
ROOT
ATOM      1  C   UNL     1      37.380 -22.236 -15.857  0.00  0.00    +0.133 C 
ENDROOT
BRANCH   1   2
ATOM      2  O   UNL     1      38.401 -23.222 -16.029  0.00  0.00    -0.383 OA
ATOM      3  H   UNL     1      38.088 -23.910 -16.636  0.00  0.00    +0.210 HD
ENDBRANCH   1   2
BRANCH   1   4
ATOM      4  C   UNL     1      36.084 -22.951 -15.470  0.00  0.00    -0.048 C 
BRANCH   4   5
ATOM      5  N   UNL     1      35.912 -23.031 -14.031  0.00  0.00    +0.388 N 
ATOM      6  H   UNL     1      36.815 -22.896 -13.577  0.00  0.00    -0.084 HD
ATOM      7  H   UNL     1      35.258 -22.305 -13.735  0.00  0.00    -0.084 HD
BRANCH   5   8
ATOM      8  C   UNL     1      35.371 -24.341 -13.648  0.00  0.00    -0.046 C 
ATOM      9  C   UNL     1      35.423 -25.268 -14.874  0.00  0.00    -0.022 C 
ATOM     10  C   UNL     1      36.255 -24.924 -12.537  0.00  0.00    -0.022 C 
BRANCH   8  11
ATOM     11  C   UNL     1      33.902 -24.195 -13.197  0.00  0.00    -0.019 C 
BRANCH  11  12
ATOM     12  C   UNL     1      32.865 -24.419 -14.287  0.00  0.00    +0.007 C 
ATOM     13  C   UNL     1      32.457 -23.110 -14.996  0.00  0.00    +0.026 C 
ATOM     14  C   UNL     1      31.562 -25.047 -13.747  0.00  0.00    +0.026 C 
ATOM     15  C   UNL     1      31.064 -23.436 -15.436  0.00  0.00    -0.026 C 
ATOM     16  C   UNL     1      30.558 -24.532 -14.730  0.00  0.00    -0.026 C 
ATOM     17  C   UNL     1      30.290 -22.770 -16.373  0.00  0.00    -0.005 C 
ATOM     18  C   UNL     1      29.267 -24.985 -14.944  0.00  0.00    -0.005 C 
ATOM     19  C   UNL     1      28.991 -23.227 -16.604  0.00  0.00    -0.000 C 
ATOM     20  C   UNL     1      28.484 -24.328 -15.894  0.00  0.00    -0.000 C 
ENDBRANCH  11  12
ENDBRANCH   8  11
ENDBRANCH   5   8
ENDBRANCH   4   5
ENDBRANCH   1   4
BRANCH   1  21
ATOM     21  C   UNL     1      37.263 -21.425 -17.146  0.00  0.00    +0.232 C 
BRANCH  21  22
ATOM     22  O   UNL     1      36.486 -22.164 -18.083  0.00  0.00    -0.471 OA
BRANCH  22  25
ATOM     23  F   UNL     1      33.774 -22.518 -18.399  0.00  0.00    -0.199 F 
ATOM     24  F   UNL     1      32.401 -21.068 -20.258  0.00  0.00    -0.202 F 
ATOM     25  C   UNL     1      35.794 -21.438 -19.016  0.00  0.00    +0.168 C 
ATOM     26  C   UNL     1      36.469 -20.517 -19.810  0.00  0.00    +0.035 C 
ATOM     27  C   UNL     1      35.766 -19.776 -20.759  0.00  0.00    -0.016 C 
ATOM     28  C   UNL     1      34.424 -21.628 -19.162  0.00  0.00    +0.201 C 
ATOM     29  C   UNL     1      34.391 -19.963 -20.911  0.00  0.00    +0.028 C 
ATOM     30  C   UNL     1      33.721 -20.889 -20.112  0.00  0.00    +0.170 C 
BRANCH  27  31
ATOM     31  C   UNL     1      36.483 -18.788 -21.615  0.00  0.00    +0.038 C 
BRANCH  31  32
ATOM     32  C   UNL     1      35.643 -18.258 -22.784  0.00  0.00    +0.114 C 
BRANCH  32  34
ATOM     33  O   UNL     1      34.732 -16.352 -21.613  0.00  0.00    -0.250 OA
ATOM     34  C   UNL     1      35.294 -16.801 -22.605  0.00  0.00    +0.314 C 
BRANCH  34  35
ATOM     35  O   UNL     1      35.641 -16.040 -23.671  0.00  0.00    -0.480 OA
ATOM     36  H   UNL     1      36.465 -15.595 -23.680  0.00  0.00    +0.295 HD
ENDBRANCH  34  35
ENDBRANCH  32  34
ENDBRANCH  31  32
ENDBRANCH  27  31
ENDBRANCH  22  25
ENDBRANCH  21  22
ENDBRANCH   1  21
TORSDOF 13
ENDMDL
MODEL 3
REMARK VINA RESULT:     -10.8      6.859     11.684
REMARK  Name = 10345214
REMARK  13 active torsions:
REMARK  status: ('A' for Active; 'I' for Inactive)
REMARK    1  A    between atoms: C_1  and  O_2
REMARK    2  A    between atoms: C_1  and  C_4
REMARK    3  A    between atoms: C_1  and  C_21
REMARK    4  A    between atoms: C_4  and  N_5
REMARK    5  A    between atoms: N_5  and  C_8
REMARK    6  A    between atoms: C_8  and  C_11
REMARK    7  A    between atoms: C_11  and  C_12
REMARK    8  A    between atoms: C_21  and  O_22
REMARK    9  A    between atoms: O_22  and  C_25
REMARK   10  A    between atoms: C_27  and  C_31
REMARK   11  A    between atoms: C_31  and  C_32
REMARK   12  A    between atoms: C_32  and  C_34
REMARK   13  A    between atoms: C_34  and  O_35
REMARK                            x       y       z     vdW  Elec       q    Type
REMARK                         _______ _______ _______ _____ _____    ______ ____
ROOT
ATOM      1  C   UNL     1      33.338 -13.965 -25.264  0.00  0.00    +0.133 C 
ENDROOT
BRANCH   1   2
ATOM      2  O   UNL     1      32.304 -14.514 -26.086  0.00  0.00    -0.383 OA
ATOM      3  H   UNL     1      32.691 -14.858 -26.906  0.00  0.00    +0.210 HD
ENDBRANCH   1   2
BRANCH   1   4
ATOM      4  C   UNL     1      32.988 -14.251 -23.802  0.00  0.00    -0.048 C 
BRANCH   4   5
ATOM      5  N   UNL     1      34.172 -14.347 -22.966  0.00  0.00    +0.388 N 
ATOM      6  H   UNL     1      34.957 -14.668 -23.531  0.00  0.00    -0.084 HD
ATOM      7  H   UNL     1      34.374 -13.427 -22.573  0.00  0.00    -0.084 HD
BRANCH   5   8
ATOM      8  C   UNL     1      33.950 -15.294 -21.865  0.00  0.00    -0.046 C 
ATOM      9  C   UNL     1      34.818 -14.867 -20.671  0.00  0.00    -0.022 C 
ATOM     10  C   UNL     1      32.470 -15.229 -21.463  0.00  0.00    -0.022 C 
BRANCH   8  11
ATOM     11  C   UNL     1      34.366 -16.716 -22.300  0.00  0.00    -0.019 C 
BRANCH  11  12
ATOM     12  C   UNL     1      34.504 -17.723 -21.169  0.00  0.00    +0.007 C 
ATOM     13  C   UNL     1      35.795 -18.563 -21.276  0.00  0.00    +0.026 C 
ATOM     14  C   UNL     1      33.333 -18.728 -21.122  0.00  0.00    +0.026 C 
ATOM     15  C   UNL     1      35.383 -19.824 -20.584  0.00  0.00    -0.026 C 
ATOM     16  C   UNL     1      33.991 -19.918 -20.497  0.00  0.00    -0.026 C 
ATOM     17  C   UNL     1      36.199 -20.837 -20.105  0.00  0.00    -0.005 C 
ATOM     18  C   UNL     1      33.383 -21.026 -19.930  0.00  0.00    -0.005 C 
ATOM     19  C   UNL     1      35.596 -21.953 -19.521  0.00  0.00    -0.000 C 
ATOM     20  C   UNL     1      34.197 -22.046 -19.434  0.00  0.00    -0.000 C 
ENDBRANCH  11  12
ENDBRANCH   8  11
ENDBRANCH   5   8
ENDBRANCH   4   5
ENDBRANCH   1   4
BRANCH   1  21
ATOM     21  C   UNL     1      33.468 -12.476 -25.575  0.00  0.00    +0.232 C 
BRANCH  21  22
ATOM     22  O   UNL     1      34.405 -11.898 -24.671  0.00  0.00    -0.471 OA
BRANCH  22  25
ATOM     23  F   UNL     1      35.754  -9.611 -25.396  0.00  0.00    -0.199 F 
ATOM     24  F   UNL     1      35.075  -7.205 -24.304  0.00  0.00    -0.202 F 
ATOM     25  C   UNL     1      34.067 -10.689 -24.124  0.00  0.00    +0.168 C 
ATOM     26  C   UNL     1      33.035 -10.619 -23.194  0.00  0.00    +0.035 C 
ATOM     27  C   UNL     1      32.689  -9.389 -22.637  0.00  0.00    -0.016 C 
ATOM     28  C   UNL     1      34.758  -9.543 -24.502  0.00  0.00    +0.201 C 
ATOM     29  C   UNL     1      33.379  -8.235 -23.011  0.00  0.00    +0.028 C 
ATOM     30  C   UNL     1      34.413  -8.312 -23.944  0.00  0.00    +0.170 C 
BRANCH  27  31
ATOM     31  C   UNL     1      31.585  -9.306 -21.639  0.00  0.00    +0.038 C 
BRANCH  31  32
ATOM     32  C   UNL     1      31.419 -10.574 -20.794  0.00  0.00    +0.114 C 
BRANCH  32  34
ATOM     33  O   UNL     1      31.218 -10.932 -18.414  0.00  0.00    -0.250 OA
ATOM     34  C   UNL     1      31.736 -10.321 -19.339  0.00  0.00    +0.314 C 
BRANCH  34  35
ATOM     35  O   UNL     1      32.636  -9.324 -19.161  0.00  0.00    -0.480 OA
ATOM     36  H   UNL     1      32.460  -8.638 -18.548  0.00  0.00    +0.295 HD
ENDBRANCH  34  35
ENDBRANCH  32  34
ENDBRANCH  31  32
ENDBRANCH  27  31
ENDBRANCH  22  25
ENDBRANCH  21  22
ENDBRANCH   1  21
TORSDOF 13
ENDMDL
MODEL 4
REMARK VINA RESULT:     -10.8      6.886     11.933
REMARK  Name = 10345214
REMARK  13 active torsions:
REMARK  status: ('A' for Active; 'I' for Inactive)
REMARK    1  A    between atoms: C_1  and  O_2
REMARK    2  A    between atoms: C_1  and  C_4
REMARK    3  A    between atoms: C_1  and  C_21
REMARK    4  A    between atoms: C_4  and  N_5
REMARK    5  A    between atoms: N_5  and  C_8
REMARK    6  A    between atoms: C_8  and  C_11
REMARK    7  A    between atoms: C_11  and  C_12
REMARK    8  A    between atoms: C_21  and  O_22
REMARK    9  A    between atoms: O_22  and  C_25
REMARK   10  A    between atoms: C_27  and  C_31
REMARK   11  A    between atoms: C_31  and  C_32
REMARK   12  A    between atoms: C_32  and  C_34
REMARK   13  A    between atoms: C_34  and  O_35
REMARK                            x       y       z     vdW  Elec       q    Type
REMARK                         _______ _______ _______ _____ _____    ______ ____
ROOT
ATOM      1  C   UNL     1      33.934 -12.284 -24.362  0.00  0.00    +0.133 C 
ENDROOT
BRANCH   1   2
ATOM      2  O   UNL     1      33.446 -12.405 -25.701  0.00  0.00    -0.383 OA
ATOM      3  H   UNL     1      33.875 -11.743 -26.264  0.00  0.00    +0.210 HD
ENDBRANCH   1   2
BRANCH   1   4
ATOM      4  C   UNL     1      33.472 -13.510 -23.572  0.00  0.00    -0.048 C 
BRANCH   4   5
ATOM      5  N   UNL     1      34.583 -14.212 -22.955  0.00  0.00    +0.388 N 
ATOM      6  H   UNL     1      35.129 -14.679 -23.679  0.00  0.00    -0.084 HD
ATOM      7  H   UNL     1      35.164 -13.538 -22.456  0.00  0.00    -0.084 HD
BRANCH   5   8
ATOM      8  C   UNL     1      34.092 -15.214 -21.999  0.00  0.00    -0.046 C 
ATOM      9  C   UNL     1      34.629 -14.860 -20.602  0.00  0.00    -0.022 C 
ATOM     10  C   UNL     1      32.559 -15.153 -21.981  0.00  0.00    -0.022 C 
BRANCH   8  11
ATOM     11  C   UNL     1      34.609 -16.615 -22.389  0.00  0.00    -0.019 C 
BRANCH  11  12
ATOM     12  C   UNL     1      34.672 -17.622 -21.252  0.00  0.00    +0.007 C 
ATOM     13  C   UNL     1      35.910 -18.540 -21.339  0.00  0.00    +0.026 C 
ATOM     14  C   UNL     1      33.441 -18.552 -21.213  0.00  0.00    +0.026 C 
ATOM     15  C   UNL     1      35.413 -19.769 -20.644  0.00  0.00    -0.026 C 
ATOM     16  C   UNL     1      34.017 -19.776 -20.572  0.00  0.00    -0.026 C 
ATOM     17  C   UNL     1      36.160 -20.827 -20.150  0.00  0.00    -0.005 C 
ATOM     18  C   UNL     1      33.336 -20.841 -20.007  0.00  0.00    -0.005 C 
ATOM     19  C   UNL     1      35.482 -21.900 -19.567  0.00  0.00    -0.000 C 
ATOM     20  C   UNL     1      34.080 -21.906 -19.496  0.00  0.00    -0.000 C 
ENDBRANCH  11  12
ENDBRANCH   8  11
ENDBRANCH   5   8
ENDBRANCH   4   5
ENDBRANCH   1   4
BRANCH   1  21
ATOM     21  C   UNL     1      33.434 -10.964 -23.779  0.00  0.00    +0.232 C 
BRANCH  21  22
ATOM     22  O   UNL     1      32.258 -11.216 -23.016  0.00  0.00    -0.471 OA
BRANCH  22  25
ATOM     23  F   UNL     1      31.628 -12.447 -20.635  0.00  0.00    -0.199 F 
ATOM     24  F   UNL     1      31.309 -10.971 -18.363  0.00  0.00    -0.202 F 
ATOM     25  C   UNL     1      32.097 -10.478 -21.873  0.00  0.00    +0.168 C 
ATOM     26  C   UNL     1      32.252  -9.097 -21.919  0.00  0.00    +0.035 C 
ATOM     27  C   UNL     1      32.089  -8.345 -20.756  0.00  0.00    -0.016 C 
ATOM     28  C   UNL     1      31.779 -11.116 -20.678  0.00  0.00    +0.201 C 
ATOM     29  C   UNL     1      31.769  -8.978 -19.555  0.00  0.00    +0.028 C 
ATOM     30  C   UNL     1      31.615 -10.363 -19.516  0.00  0.00    +0.170 C 
BRANCH  27  31
ATOM     31  C   UNL     1      32.252  -6.863 -20.798  0.00  0.00    +0.038 C 
BRANCH  31  32
ATOM     32  C   UNL     1      32.209  -6.276 -22.213  0.00  0.00    +0.114 C 
BRANCH  32  34
ATOM     33  O   UNL     1      30.623  -4.992 -23.506  0.00  0.00    -0.250 OA
ATOM     34  C   UNL     1      31.007  -5.385 -22.412  0.00  0.00    +0.314 C 
BRANCH  34  35
ATOM     35  O   UNL     1      30.408  -5.038 -21.246  0.00  0.00    -0.480 OA
ATOM     36  H   UNL     1      30.901  -5.034 -20.450  0.00  0.00    +0.295 HD
ENDBRANCH  34  35
ENDBRANCH  32  34
ENDBRANCH  31  32
ENDBRANCH  27  31
ENDBRANCH  22  25
ENDBRANCH  21  22
ENDBRANCH   1  21
TORSDOF 13
ENDMDL
MODEL 5
REMARK VINA RESULT:     -10.6      2.913      5.142
REMARK  Name = 10345214
REMARK  13 active torsions:
REMARK  status: ('A' for Active; 'I' for Inactive)
REMARK    1  A    between atoms: C_1  and  O_2
REMARK    2  A    between atoms: C_1  and  C_4
REMARK    3  A    between atoms: C_1  and  C_21
REMARK    4  A    between atoms: C_4  and  N_5
REMARK    5  A    between atoms: N_5  and  C_8
REMARK    6  A    between atoms: C_8  and  C_11
REMARK    7  A    between atoms: C_11  and  C_12
REMARK    8  A    between atoms: C_21  and  O_22
REMARK    9  A    between atoms: O_22  and  C_25
REMARK   10  A    between atoms: C_27  and  C_31
REMARK   11  A    between atoms: C_31  and  C_32
REMARK   12  A    between atoms: C_32  and  C_34
REMARK   13  A    between atoms: C_34  and  O_35
REMARK                            x       y       z     vdW  Elec       q    Type
REMARK                         _______ _______ _______ _____ _____    ______ ____
ROOT
ATOM      1  C   UNL     1      35.412 -21.573 -19.158  0.00  0.00    +0.133 C 
ENDROOT
BRANCH   1   2
ATOM      2  O   UNL     1      34.779 -22.821 -19.455  0.00  0.00    -0.383 OA
ATOM      3  H   UNL     1      33.829 -22.753 -19.277  0.00  0.00    +0.210 HD
ENDBRANCH   1   2
BRANCH   1   4
ATOM      4  C   UNL     1      35.746 -20.879 -20.481  0.00  0.00    -0.048 C 
BRANCH   4   5
ATOM      5  N   UNL     1      35.807 -19.435 -20.339  0.00  0.00    +0.388 N 
ATOM      6  H   UNL     1      35.533 -19.178 -19.391  0.00  0.00    -0.084 HD
ATOM      7  H   UNL     1      36.761 -19.125 -20.527  0.00  0.00    -0.084 HD
BRANCH   5   8
ATOM      8  C   UNL     1      34.901 -18.785 -21.296  0.00  0.00    -0.046 C 
ATOM      9  C   UNL     1      35.148 -19.388 -22.689  0.00  0.00    -0.022 C 
ATOM     10  C   UNL     1      33.456 -19.078 -20.868  0.00  0.00    -0.022 C 
BRANCH   8  11
ATOM     11  C   UNL     1      35.189 -17.270 -21.351  0.00  0.00    -0.019 C 
BRANCH  11  12
ATOM     12  C   UNL     1      33.966 -16.384 -21.527  0.00  0.00    +0.007 C 
ATOM     13  C   UNL     1      34.041 -15.512 -22.798  0.00  0.00    +0.026 C 
ATOM     14  C   UNL     1      33.760 -15.414 -20.344  0.00  0.00    +0.026 C 
ATOM     15  C   UNL     1      33.201 -14.339 -22.400  0.00  0.00    -0.026 C 
ATOM     16  C   UNL     1      33.041 -14.284 -21.012  0.00  0.00    -0.026 C 
ATOM     17  C   UNL     1      32.655 -13.366 -23.221  0.00  0.00    -0.005 C 
ATOM     18  C   UNL     1      32.334 -13.254 -20.415  0.00  0.00    -0.005 C 
ATOM     19  C   UNL     1      31.930 -12.330 -22.629  0.00  0.00    -0.000 C 
ATOM     20  C   UNL     1      31.770 -12.276 -21.235  0.00  0.00    -0.000 C 
ENDBRANCH  11  12
ENDBRANCH   8  11
ENDBRANCH   5   8
ENDBRANCH   4   5
ENDBRANCH   1   4
BRANCH   1  21
ATOM     21  C   UNL     1      36.638 -21.843 -18.290  0.00  0.00    +0.232 C 
BRANCH  21  22
ATOM     22  O   UNL     1      36.319 -21.539 -16.936  0.00  0.00    -0.471 OA
BRANCH  22  25
ATOM     23  F   UNL     1      33.897 -22.753 -16.446  0.00  0.00    -0.199 F 
ATOM     24  F   UNL     1      33.735 -24.863 -14.724  0.00  0.00    -0.202 F 
ATOM     25  C   UNL     1      36.234 -22.598 -16.071  0.00  0.00    +0.168 C 
ATOM     26  C   UNL     1      37.382 -23.061 -15.437  0.00  0.00    +0.035 C 
ATOM     27  C   UNL     1      37.297 -24.140 -14.557  0.00  0.00    -0.016 C 
ATOM     28  C   UNL     1      35.003 -23.200 -15.836  0.00  0.00    +0.201 C 
ATOM     29  C   UNL     1      36.065 -24.748 -14.316  0.00  0.00    +0.028 C 
ATOM     30  C   UNL     1      34.918 -24.279 -14.955  0.00  0.00    +0.170 C 
BRANCH  27  31
ATOM     31  C   UNL     1      38.523 -24.642 -13.872  0.00  0.00    +0.038 C 
BRANCH  31  32
ATOM     32  C   UNL     1      38.891 -26.084 -14.240  0.00  0.00    +0.114 C 
BRANCH  32  34
ATOM     33  O   UNL     1      41.243 -26.607 -14.071  0.00  0.00    -0.250 OA
ATOM     34  C   UNL     1      40.310 -26.186 -14.744  0.00  0.00    +0.314 C 
BRANCH  34  35
ATOM     35  O   UNL     1      40.453 -25.737 -16.015  0.00  0.00    -0.480 OA
ATOM     36  H   UNL     1      39.726 -25.763 -16.605  0.00  0.00    +0.295 HD
ENDBRANCH  34  35
ENDBRANCH  32  34
ENDBRANCH  31  32
ENDBRANCH  27  31
ENDBRANCH  22  25
ENDBRANCH  21  22
ENDBRANCH   1  21
TORSDOF 13
ENDMDL
MODEL 6
REMARK VINA RESULT:     -10.4      4.836      8.490
REMARK  Name = 10345214
REMARK  13 active torsions:
REMARK  status: ('A' for Active; 'I' for Inactive)
REMARK    1  A    between atoms: C_1  and  O_2
REMARK    2  A    between atoms: C_1  and  C_4
REMARK    3  A    between atoms: C_1  and  C_21
REMARK    4  A    between atoms: C_4  and  N_5
REMARK    5  A    between atoms: N_5  and  C_8
REMARK    6  A    between atoms: C_8  and  C_11
REMARK    7  A    between atoms: C_11  and  C_12
REMARK    8  A    between atoms: C_21  and  O_22
REMARK    9  A    between atoms: O_22  and  C_25
REMARK   10  A    between atoms: C_27  and  C_31
REMARK   11  A    between atoms: C_31  and  C_32
REMARK   12  A    between atoms: C_32  and  C_34
REMARK   13  A    between atoms: C_34  and  O_35
REMARK                            x       y       z     vdW  Elec       q    Type
REMARK                         _______ _______ _______ _____ _____    ______ ____
ROOT
ATOM      1  C   UNL     1      33.233 -13.996 -21.929  0.00  0.00    +0.133 C 
ENDROOT
BRANCH   1   2
ATOM      2  O   UNL     1      32.075 -14.821 -21.773  0.00  0.00    -0.383 OA
ATOM      3  H   UNL     1      31.295 -14.352 -22.105  0.00  0.00    +0.210 HD
ENDBRANCH   1   2
BRANCH   1   4
ATOM      4  C   UNL     1      33.289 -13.524 -23.384  0.00  0.00    -0.048 C 
BRANCH   4   5
ATOM      5  N   UNL     1      34.367 -12.577 -23.609  0.00  0.00    +0.388 N 
ATOM      6  H   UNL     1      34.737 -12.269 -22.710  0.00  0.00    -0.084 HD
ATOM      7  H   UNL     1      35.100 -13.034 -24.154  0.00  0.00    -0.084 HD
BRANCH   5   8
ATOM      8  C   UNL     1      33.880 -11.410 -24.356  0.00  0.00    -0.046 C 
ATOM      9  C   UNL     1      34.995 -10.353 -24.392  0.00  0.00    -0.022 C 
ATOM     10  C   UNL     1      33.559 -11.854 -25.790  0.00  0.00    -0.022 C 
BRANCH   8  11
ATOM     11  C   UNL     1      32.646 -10.808 -23.650  0.00  0.00    -0.019 C 
BRANCH  11  12
ATOM     12  C   UNL     1      32.743  -9.324 -23.333  0.00  0.00    +0.007 C 
ATOM     13  C   UNL     1      32.510  -9.020 -21.837  0.00  0.00    +0.026 C 
ATOM     14  C   UNL     1      31.712  -8.482 -24.115  0.00  0.00    +0.026 C 
ATOM     15  C   UNL     1      31.969  -7.626 -21.902  0.00  0.00    -0.026 C 
ATOM     16  C   UNL     1      31.518  -7.321 -23.190  0.00  0.00    -0.026 C 
ATOM     17  C   UNL     1      31.850  -6.711 -20.868  0.00  0.00    -0.005 C 
ATOM     18  C   UNL     1      30.937  -6.096 -23.472  0.00  0.00    -0.005 C 
ATOM     19  C   UNL     1      31.277  -5.469 -21.146  0.00  0.00    -0.000 C 
ATOM     20  C   UNL     1      30.824  -5.164 -22.440  0.00  0.00    -0.000 C 
ENDBRANCH  11  12
ENDBRANCH   8  11
ENDBRANCH   5   8
ENDBRANCH   4   5
ENDBRANCH   1   4
BRANCH   1  21
ATOM     21  C   UNL     1      34.462 -14.796 -21.505  0.00  0.00    +0.232 C 
BRANCH  21  22
ATOM     22  O   UNL     1      35.071 -15.353 -22.666  0.00  0.00    -0.471 OA
BRANCH  22  25
ATOM     23  F   UNL     1      34.713 -16.456 -25.162  0.00  0.00    -0.199 F 
ATOM     24  F   UNL     1      34.525 -19.161 -25.460  0.00  0.00    -0.202 F 
ATOM     25  C   UNL     1      34.976 -16.711 -22.819  0.00  0.00    +0.168 C 
ATOM     26  C   UNL     1      35.060 -17.536 -21.702  0.00  0.00    +0.035 C 
ATOM     27  C   UNL     1      34.964 -18.918 -21.857  0.00  0.00    -0.016 C 
ATOM     28  C   UNL     1      34.796 -17.251 -24.087  0.00  0.00    +0.201 C 
ATOM     29  C   UNL     1      34.782 -19.468 -23.126  0.00  0.00    +0.028 C 
ATOM     30  C   UNL     1      34.699 -18.634 -24.241  0.00  0.00    +0.170 C 
BRANCH  27  31
ATOM     31  C   UNL     1      35.051 -19.810 -20.665  0.00  0.00    +0.038 C 
BRANCH  31  32
ATOM     32  C   UNL     1      33.715 -20.454 -20.276  0.00  0.00    +0.114 C 
BRANCH  32  34
ATOM     33  O   UNL     1      34.985 -22.348 -19.479  0.00  0.00    -0.250 OA
ATOM     34  C   UNL     1      33.917 -21.752 -19.531  0.00  0.00    +0.314 C 
BRANCH  34  35
ATOM     35  O   UNL     1      32.782 -22.207 -18.946  0.00  0.00    -0.480 OA
ATOM     36  H   UNL     1      32.140 -22.658 -19.457  0.00  0.00    +0.295 HD
ENDBRANCH  34  35
ENDBRANCH  32  34
ENDBRANCH  31  32
ENDBRANCH  27  31
ENDBRANCH  22  25
ENDBRANCH  21  22
ENDBRANCH   1  21
TORSDOF 13
ENDMDL
MODEL 7
REMARK VINA RESULT:     -10.3      5.040      8.533
REMARK  Name = 10345214
REMARK  13 active torsions:
REMARK  status: ('A' for Active; 'I' for Inactive)
REMARK    1  A    between atoms: C_1  and  O_2
REMARK    2  A    between atoms: C_1  and  C_4
REMARK    3  A    between atoms: C_1  and  C_21
REMARK    4  A    between atoms: C_4  and  N_5
REMARK    5  A    between atoms: N_5  and  C_8
REMARK    6  A    between atoms: C_8  and  C_11
REMARK    7  A    between atoms: C_11  and  C_12
REMARK    8  A    between atoms: C_21  and  O_22
REMARK    9  A    between atoms: O_22  and  C_25
REMARK   10  A    between atoms: C_27  and  C_31
REMARK   11  A    between atoms: C_31  and  C_32
REMARK   12  A    between atoms: C_32  and  C_34
REMARK   13  A    between atoms: C_34  and  O_35
REMARK                            x       y       z     vdW  Elec       q    Type
REMARK                         _______ _______ _______ _____ _____    ______ ____
ROOT
ATOM      1  C   UNL     1      33.102 -13.962 -22.851  0.00  0.00    +0.133 C 
ENDROOT
BRANCH   1   2
ATOM      2  O   UNL     1      34.297 -13.334 -23.324  0.00  0.00    -0.383 OA
ATOM      3  H   UNL     1      34.143 -12.382 -23.428  0.00  0.00    +0.210 HD
ENDBRANCH   1   2
BRANCH   1   4
ATOM      4  C   UNL     1      32.111 -12.866 -22.454  0.00  0.00    -0.048 C 
BRANCH   4   5
ATOM      5  N   UNL     1      32.147 -12.588 -21.029  0.00  0.00    +0.388 N 
ATOM      6  H   UNL     1      31.591 -13.286 -20.536  0.00  0.00    -0.084 HD
ATOM      7  H   UNL     1      33.116 -12.621 -20.710  0.00  0.00    -0.084 HD
BRANCH   5   8
ATOM      8  C   UNL     1      31.602 -11.252 -20.751  0.00  0.00    -0.046 C 
ATOM      9  C   UNL     1      30.142 -11.211 -21.232  0.00  0.00    -0.022 C 
ATOM     10  C   UNL     1      31.642 -11.020 -19.235  0.00  0.00    -0.022 C 
BRANCH   8  11
ATOM     11  C   UNL     1      32.408 -10.183 -21.519  0.00  0.00    -0.019 C 
BRANCH  11  12
ATOM     12  C   UNL     1      31.617  -8.955 -21.941  0.00  0.00    +0.007 C 
ATOM     13  C   UNL     1      31.693  -8.692 -23.460  0.00  0.00    +0.026 C 
ATOM     14  C   UNL     1      32.108  -7.665 -21.250  0.00  0.00    +0.026 C 
ATOM     15  C   UNL     1      31.498  -7.209 -23.512  0.00  0.00    -0.026 C 
ATOM     16  C   UNL     1      31.733  -6.628 -22.262  0.00  0.00    -0.026 C 
ATOM     17  C   UNL     1      31.177  -6.432 -24.613  0.00  0.00    -0.005 C 
ATOM     18  C   UNL     1      31.653  -5.257 -22.086  0.00  0.00    -0.005 C 
ATOM     19  C   UNL     1      31.081  -5.050 -24.442  0.00  0.00    -0.000 C 
ATOM     20  C   UNL     1      31.317  -4.467 -23.186  0.00  0.00    -0.000 C 
ENDBRANCH  11  12
ENDBRANCH   8  11
ENDBRANCH   5   8
ENDBRANCH   4   5
ENDBRANCH   1   4
BRANCH   1  21
ATOM     21  C   UNL     1      33.466 -14.896 -21.699  0.00  0.00    +0.232 C 
BRANCH  21  22
ATOM     22  O   UNL     1      34.743 -15.470 -21.959  0.00  0.00    -0.471 OA
BRANCH  22  25
ATOM     23  F   UNL     1      34.699 -16.275 -24.590  0.00  0.00    -0.199 F 
ATOM     24  F   UNL     1      34.745 -18.929 -25.221  0.00  0.00    -0.202 F 
ATOM     25  C   UNL     1      34.766 -16.802 -22.279  0.00  0.00    +0.168 C 
ATOM     26  C   UNL     1      34.810 -17.751 -21.264  0.00  0.00    +0.035 C 
ATOM     27  C   UNL     1      34.835 -19.108 -21.588  0.00  0.00    -0.016 C 
ATOM     28  C   UNL     1      34.744 -17.191 -23.613  0.00  0.00    +0.201 C 
ATOM     29  C   UNL     1      34.812 -19.506 -22.925  0.00  0.00    +0.028 C 
ATOM     30  C   UNL     1      34.767 -18.548 -23.937  0.00  0.00    +0.170 C 
BRANCH  27  31
ATOM     31  C   UNL     1      34.881 -20.133 -20.506  0.00  0.00    +0.038 C 
BRANCH  31  32
ATOM     32  C   UNL     1      33.503 -20.680 -20.114  0.00  0.00    +0.114 C 
BRANCH  32  34
ATOM     33  O   UNL     1      32.700 -22.399 -18.620  0.00  0.00    -0.250 OA
ATOM     34  C   UNL     1      33.617 -21.938 -19.287  0.00  0.00    +0.314 C 
BRANCH  34  35
ATOM     35  O   UNL     1      34.853 -22.492 -19.337  0.00  0.00    -0.480 OA
ATOM     36  H   UNL     1      35.272 -22.627 -20.163  0.00  0.00    +0.295 HD
ENDBRANCH  34  35
ENDBRANCH  32  34
ENDBRANCH  31  32
ENDBRANCH  27  31
ENDBRANCH  22  25
ENDBRANCH  21  22
ENDBRANCH   1  21
TORSDOF 13
ENDMDL
MODEL 8
REMARK VINA RESULT:     -10.2      2.453      4.069
REMARK  Name = 10345214
REMARK  13 active torsions:
REMARK  status: ('A' for Active; 'I' for Inactive)
REMARK    1  A    between atoms: C_1  and  O_2
REMARK    2  A    between atoms: C_1  and  C_4
REMARK    3  A    between atoms: C_1  and  C_21
REMARK    4  A    between atoms: C_4  and  N_5
REMARK    5  A    between atoms: N_5  and  C_8
REMARK    6  A    between atoms: C_8  and  C_11
REMARK    7  A    between atoms: C_11  and  C_12
REMARK    8  A    between atoms: C_21  and  O_22
REMARK    9  A    between atoms: O_22  and  C_25
REMARK   10  A    between atoms: C_27  and  C_31
REMARK   11  A    between atoms: C_31  and  C_32
REMARK   12  A    between atoms: C_32  and  C_34
REMARK   13  A    between atoms: C_34  and  O_35
REMARK                            x       y       z     vdW  Elec       q    Type
REMARK                         _______ _______ _______ _____ _____    ______ ____
ROOT
ATOM      1  C   UNL     1      33.461 -20.898 -19.726  0.00  0.00    +0.133 C 
ENDROOT
BRANCH   1   2
ATOM      2  O   UNL     1      32.385 -21.218 -20.613  0.00  0.00    -0.383 OA
ATOM      3  H   UNL     1      32.740 -21.424 -21.492  0.00  0.00    +0.210 HD
ENDBRANCH   1   2
BRANCH   1   4
ATOM      4  C   UNL     1      34.556 -20.198 -20.536  0.00  0.00    -0.048 C 
BRANCH   4   5
ATOM      5  N   UNL     1      34.075 -18.982 -21.167  0.00  0.00    +0.388 N 
ATOM      6  H   UNL     1      33.449 -19.226 -21.934  0.00  0.00    -0.084 HD
ATOM      7  H   UNL     1      33.579 -18.423 -20.472  0.00  0.00    -0.084 HD
BRANCH   5   8
ATOM      8  C   UNL     1      35.199 -18.196 -21.693  0.00  0.00    -0.046 C 
ATOM      9  C   UNL     1      36.511 -18.874 -21.267  0.00  0.00    -0.022 C 
ATOM     10  C   UNL     1      35.108 -18.188 -23.225  0.00  0.00    -0.022 C 
BRANCH   8  11
ATOM     11  C   UNL     1      35.165 -16.768 -21.107  0.00  0.00    -0.019 C 
BRANCH  11  12
ATOM     12  C   UNL     1      34.021 -15.894 -21.598  0.00  0.00    +0.007 C 
ATOM     13  C   UNL     1      34.477 -14.844 -22.633  0.00  0.00    +0.026 C 
ATOM     14  C   UNL     1      33.338 -15.112 -20.456  0.00  0.00    +0.026 C 
ATOM     15  C   UNL     1      33.467 -13.761 -22.419  0.00  0.00    -0.026 C 
ATOM     16  C   UNL     1      32.822 -13.913 -21.187  0.00  0.00    -0.026 C 
ATOM     17  C   UNL     1      33.177 -12.691 -23.250  0.00  0.00    -0.005 C 
ATOM     18  C   UNL     1      31.875 -12.997 -20.759  0.00  0.00    -0.005 C 
ATOM     19  C   UNL     1      32.215 -11.770 -22.833  0.00  0.00    -0.000 C 
ATOM     20  C   UNL     1      31.568 -11.923 -21.596  0.00  0.00    -0.000 C 
ENDBRANCH  11  12
ENDBRANCH   8  11
ENDBRANCH   5   8
ENDBRANCH   4   5
ENDBRANCH   1   4
BRANCH   1  21
ATOM     21  C   UNL     1      33.936 -22.183 -19.052  0.00  0.00    +0.232 C 
BRANCH  21  22
ATOM     22  O   UNL     1      32.823 -22.806 -18.418  0.00  0.00    -0.471 OA
BRANCH  22  25
ATOM     23  F   UNL     1      30.613 -22.917 -16.781  0.00  0.00    -0.199 F 
ATOM     24  F   UNL     1      30.888 -23.499 -14.130  0.00  0.00    -0.202 F 
ATOM     25  C   UNL     1      32.958 -23.098 -17.086  0.00  0.00    +0.168 C 
ATOM     26  C   UNL     1      34.222 -23.338 -16.560  0.00  0.00    +0.035 C 
ATOM     27  C   UNL     1      34.361 -23.636 -15.204  0.00  0.00    -0.016 C 
ATOM     28  C   UNL     1      31.831 -23.151 -16.274  0.00  0.00    +0.201 C 
ATOM     29  C   UNL     1      33.235 -23.690 -14.383  0.00  0.00    +0.028 C 
ATOM     30  C   UNL     1      31.970 -23.447 -14.918  0.00  0.00    +0.170 C 
BRANCH  27  31
ATOM     31  C   UNL     1      35.714 -23.894 -14.632  0.00  0.00    +0.038 C 
BRANCH  31  32
ATOM     32  C   UNL     1      36.260 -25.292 -14.942  0.00  0.00    +0.114 C 
BRANCH  32  34
ATOM     33  O   UNL     1      37.933 -26.569 -13.756  0.00  0.00    -0.250 OA
ATOM     34  C   UNL     1      36.891 -25.927 -13.726  0.00  0.00    +0.314 C 
BRANCH  34  35
ATOM     35  O   UNL     1      36.167 -25.737 -12.596  0.00  0.00    -0.480 OA
ATOM     36  H   UNL     1      35.235 -25.656 -12.645  0.00  0.00    +0.295 HD
ENDBRANCH  34  35
ENDBRANCH  32  34
ENDBRANCH  31  32
ENDBRANCH  27  31
ENDBRANCH  22  25
ENDBRANCH  21  22
ENDBRANCH   1  21
TORSDOF 13
ENDMDL
MODEL 9
REMARK VINA RESULT:     -10.1      6.418     12.012
REMARK  Name = 10345214
REMARK  13 active torsions:
REMARK  status: ('A' for Active; 'I' for Inactive)
REMARK    1  A    between atoms: C_1  and  O_2
REMARK    2  A    between atoms: C_1  and  C_4
REMARK    3  A    between atoms: C_1  and  C_21
REMARK    4  A    between atoms: C_4  and  N_5
REMARK    5  A    between atoms: N_5  and  C_8
REMARK    6  A    between atoms: C_8  and  C_11
REMARK    7  A    between atoms: C_11  and  C_12
REMARK    8  A    between atoms: C_21  and  O_22
REMARK    9  A    between atoms: O_22  and  C_25
REMARK   10  A    between atoms: C_27  and  C_31
REMARK   11  A    between atoms: C_31  and  C_32
REMARK   12  A    between atoms: C_32  and  C_34
REMARK   13  A    between atoms: C_34  and  O_35
REMARK                            x       y       z     vdW  Elec       q    Type
REMARK                         _______ _______ _______ _____ _____    ______ ____
ROOT
ATOM      1  C   UNL     1      32.161 -13.695 -21.689  0.00  0.00    +0.133 C 
ENDROOT
BRANCH   1   2
ATOM      2  O   UNL     1      32.260 -12.747 -20.623  0.00  0.00    -0.383 OA
ATOM      3  H   UNL     1      31.699 -11.981 -20.817  0.00  0.00    +0.210 HD
ENDBRANCH   1   2
BRANCH   1   4
ATOM      4  C   UNL     1      32.726 -15.030 -21.196  0.00  0.00    -0.048 C 
BRANCH   4   5
ATOM      5  N   UNL     1      32.980 -15.952 -22.288  0.00  0.00    +0.388 N 
ATOM      6  H   UNL     1      32.318 -16.726 -22.235  0.00  0.00    -0.084 HD
ATOM      7  H   UNL     1      32.871 -15.455 -23.172  0.00  0.00    -0.084 HD
BRANCH   5   8
ATOM      8  C   UNL     1      34.348 -16.481 -22.207  0.00  0.00    -0.046 C 
ATOM      9  C   UNL     1      35.164 -15.903 -23.376  0.00  0.00    -0.022 C 
ATOM     10  C   UNL     1      34.967 -16.019 -20.881  0.00  0.00    -0.022 C 
BRANCH   8  11
ATOM     11  C   UNL     1      34.328 -18.020 -22.328  0.00  0.00    -0.019 C 
BRANCH  11  12
ATOM     12  C   UNL     1      34.325 -18.772 -21.007  0.00  0.00    +0.007 C 
ATOM     13  C   UNL     1      35.508 -19.755 -20.879  0.00  0.00    +0.026 C 
ATOM     14  C   UNL     1      33.042 -19.607 -20.803  0.00  0.00    +0.026 C 
ATOM     15  C   UNL     1      34.937 -20.786 -19.957  0.00  0.00    -0.026 C 
ATOM     16  C   UNL     1      33.541 -20.702 -19.914  0.00  0.00    -0.026 C 
ATOM     17  C   UNL     1      35.617 -21.758 -19.242  0.00  0.00    -0.005 C 
ATOM     18  C   UNL     1      32.796 -21.589 -19.155  0.00  0.00    -0.005 C 
ATOM     19  C   UNL     1      34.875 -22.649 -18.465  0.00  0.00    -0.000 C 
ATOM     20  C   UNL     1      33.474 -22.565 -18.422  0.00  0.00    -0.000 C 
ENDBRANCH  11  12
ENDBRANCH   8  11
ENDBRANCH   5   8
ENDBRANCH   4   5
ENDBRANCH   1   4
BRANCH   1  21
ATOM     21  C   UNL     1      32.898 -13.139 -22.905  0.00  0.00    +0.232 C 
BRANCH  21  22
ATOM     22  O   UNL     1      32.247 -11.947 -23.331  0.00  0.00    -0.471 OA
BRANCH  22  25
ATOM     23  F   UNL     1      34.341 -12.122 -25.109  0.00  0.00    -0.199 F 
ATOM     24  F   UNL     1      35.931  -9.956 -25.585  0.00  0.00    -0.202 F 
ATOM     25  C   UNL     1      33.048 -10.861 -23.572  0.00  0.00    +0.168 C 
ATOM     26  C   UNL     1      32.799  -9.664 -22.910  0.00  0.00    +0.035 C 
ATOM     27  C   UNL     1      33.612  -8.557 -23.155  0.00  0.00    -0.016 C 
ATOM     28  C   UNL     1      34.101 -10.967 -24.474  0.00  0.00    +0.201 C 
ATOM     29  C   UNL     1      34.671  -8.656 -24.058  0.00  0.00    +0.028 C 
ATOM     30  C   UNL     1      34.915  -9.861 -24.718  0.00  0.00    +0.170 C 
BRANCH  27  31
ATOM     31  C   UNL     1      33.353  -7.270 -22.448  0.00  0.00    +0.038 C 
BRANCH  31  32
ATOM     32  C   UNL     1      32.166  -7.325 -21.480  0.00  0.00    +0.114 C 
BRANCH  32  34
ATOM     33  O   UNL     1      32.923  -6.540 -19.325  0.00  0.00    -0.250 OA
ATOM     34  C   UNL     1      32.620  -7.480 -20.048  0.00  0.00    +0.314 C 
BRANCH  34  35
ATOM     35  O   UNL     1      32.686  -8.774 -19.653  0.00  0.00    -0.480 OA
ATOM     36  H   UNL     1      32.952  -8.984 -18.780  0.00  0.00    +0.295 HD
ENDBRANCH  34  35
ENDBRANCH  32  34
ENDBRANCH  31  32
ENDBRANCH  27  31
ENDBRANCH  22  25
ENDBRANCH  21  22
ENDBRANCH   1  21
TORSDOF 13
ENDMDL
