MODEL 1
REMARK VINA RESULT:     -10.3      0.000      0.000
REMARK  Name = 11957417
REMARK  7 active torsions:
REMARK  status: ('A' for Active; 'I' for Inactive)
REMARK    1  A    between atoms: C_2  and  N_6
REMARK    2  A    between atoms: C_3  and  O_24
REMARK    3  A    between atoms: C_5  and  C_21
REMARK    4  A    between atoms: C_13  and  O_15
REMARK    5  A    between atoms: C_14  and  O_17
REMARK    6  A    between atoms: O_24  and  C_25
REMARK    7  A    between atoms: C_25  and  C_28
REMARK                            x       y       z     vdW  Elec       q    Type
REMARK                         _______ _______ _______ _____ _____    ______ ____
ROOT
ATOM      1  S   UNL     1      32.044 -12.424 -22.098  0.00  0.00    -0.065 S 
ATOM      2  C   UNL     1      32.884 -12.128 -23.550  0.00  0.00    +0.083 C 
ATOM      3  C   UNL     1      32.755 -10.015 -22.633  0.00  0.00    +0.151 C 
ATOM      4  C   UNL     1      33.209 -10.812 -23.723  0.00  0.00    +0.059 C 
ATOM      5  C   UNL     1      32.105 -10.765 -21.678  0.00  0.00    +0.118 C 
ENDROOT
BRANCH   2   6
ATOM      6  N   UNL     1      33.146 -13.200 -24.379  0.00  0.00    -0.275 N 
ATOM      7  N   UNL     1      33.225 -14.399 -26.248  0.00  0.00    -0.250 NA
ATOM      8  C   UNL     1      33.727 -14.390 -24.025  0.00  0.00    +0.140 C 
ATOM      9  C   UNL     1      33.766 -15.122 -25.209  0.00  0.00    +0.081 C 
ATOM     10  C   UNL     1      34.207 -14.876 -22.808  0.00  0.00    +0.039 C 
ATOM     11  C   UNL     1      32.865 -13.254 -25.715  0.00  0.00    +0.220 C 
ATOM     12  C   UNL     1      34.312 -16.416 -25.197  0.00  0.00    +0.056 C 
ATOM     13  C   UNL     1      34.748 -16.166 -22.815  0.00  0.00    +0.170 C 
ATOM     14  C   UNL     1      34.801 -16.924 -23.987  0.00  0.00    +0.173 C 
BRANCH  13  15
ATOM     15  O   UNL     1      35.229 -16.681 -21.645  0.00  0.00    -0.469 OA
ATOM     16  C   UNL     1      34.668 -16.173 -20.437  0.00  0.00    +0.253 C 
ENDBRANCH  13  15
BRANCH  14  17
ATOM     17  O   UNL     1      35.333 -18.181 -23.967  0.00  0.00    -0.468 OA
ATOM     18  C   UNL     1      34.553 -19.221 -24.550  0.00  0.00    +0.253 C 
ENDBRANCH  14  17
ENDBRANCH   2   6
BRANCH   5  21
ATOM     19  O   UNL     1      30.475 -10.846 -19.951  0.00  0.00    -0.270 OA
ATOM     20  N   UNL     1      32.109  -9.282 -19.757  0.00  0.00    -0.325 N 
ATOM     21  C   UNL     1      31.512 -10.345 -20.450  0.00  0.00    +0.252 C 
ATOM     22  H   UNL     1      31.721  -8.969 -18.907  0.00  0.00    +0.145 HD
ATOM     23  H   UNL     1      32.914  -8.849 -20.120  0.00  0.00    +0.145 HD
ENDBRANCH   5  21
BRANCH   3  24
ATOM     24  O   UNL     1      32.930  -8.686 -22.524  0.00  0.00    -0.474 OA
BRANCH  24  25
ATOM     25  C   UNL     1      33.495  -7.994 -23.645  0.00  0.00    +0.189 C 
ATOM     26  C   UNL     1      34.958  -7.675 -23.361  0.00  0.00    +0.052 C 
BRANCH  25  28
ATOM     27 CL   UNL     1      34.444  -6.129 -25.910  0.00  0.00    -0.082 Cl
ATOM     28  C   UNL     1      32.686  -6.749 -23.922  0.00  0.00    +0.028 C 
ATOM     29  C   UNL     1      33.053  -5.863 -24.925  0.00  0.00    +0.057 C 
ATOM     30  C   UNL     1      31.564  -6.519 -23.138  0.00  0.00    +0.000 C 
ATOM     31  C   UNL     1      32.280  -4.723 -25.149  0.00  0.00    +0.011 C 
ATOM     32  C   UNL     1      30.792  -5.379 -23.362  0.00  0.00    -0.000 C 
ATOM     33  C   UNL     1      31.151  -4.482 -24.368  0.00  0.00    +0.001 C 
ENDBRANCH  25  28
ENDBRANCH  24  25
ENDBRANCH   3  24
TORSDOF 7
ENDMDL
MODEL 2
REMARK VINA RESULT:     -10.2      3.603      9.626
REMARK  Name = 11957417
REMARK  7 active torsions:
REMARK  status: ('A' for Active; 'I' for Inactive)
REMARK    1  A    between atoms: C_2  and  N_6
REMARK    2  A    between atoms: C_3  and  O_24
REMARK    3  A    between atoms: C_5  and  C_21
REMARK    4  A    between atoms: C_13  and  O_15
REMARK    5  A    between atoms: C_14  and  O_17
REMARK    6  A    between atoms: O_24  and  C_25
REMARK    7  A    between atoms: C_25  and  C_28
REMARK                            x       y       z     vdW  Elec       q    Type
REMARK                         _______ _______ _______ _____ _____    ______ ____
ROOT
ATOM      1  S   UNL     1      33.459 -14.774 -25.481  0.00  0.00    -0.065 S 
ATOM      2  C   UNL     1      34.042 -13.820 -24.196  0.00  0.00    +0.083 C 
ATOM      3  C   UNL     1      34.597 -15.948 -23.500  0.00  0.00    +0.151 C 
ATOM      4  C   UNL     1      34.626 -14.555 -23.203  0.00  0.00    +0.059 C 
ATOM      5  C   UNL     1      33.991 -16.208 -24.710  0.00  0.00    +0.118 C 
ENDROOT
BRANCH   2   6
ATOM      6  N   UNL     1      33.875 -12.452 -24.275  0.00  0.00    -0.275 N 
ATOM      7  N   UNL     1      34.105 -10.381 -25.044  0.00  0.00    -0.250 NA
ATOM      8  C   UNL     1      33.127 -11.666 -23.437  0.00  0.00    +0.140 C 
ATOM      9  C   UNL     1      33.285 -10.377 -23.939  0.00  0.00    +0.081 C 
ATOM     10  C   UNL     1      32.348 -11.962 -22.318  0.00  0.00    +0.039 C 
ATOM     11  C   UNL     1      34.439 -11.639 -25.217  0.00  0.00    +0.220 C 
ATOM     12  C   UNL     1      32.637  -9.308 -23.299  0.00  0.00    +0.056 C 
ATOM     13  C   UNL     1      31.709 -10.885 -21.693  0.00  0.00    +0.170 C 
ATOM     14  C   UNL     1      31.849  -9.581 -22.173  0.00  0.00    +0.173 C 
BRANCH  13  15
ATOM     15  O   UNL     1      30.937 -11.130 -20.594  0.00  0.00    -0.469 OA
ATOM     16  C   UNL     1      31.591 -11.111 -19.328  0.00  0.00    +0.253 C 
ENDBRANCH  13  15
BRANCH  14  17
ATOM     17  O   UNL     1      31.216  -8.548 -21.546  0.00  0.00    -0.468 OA
ATOM     18  C   UNL     1      32.042  -7.542 -20.966  0.00  0.00    +0.253 C 
ENDBRANCH  14  17
ENDBRANCH   2   6
BRANCH   5  21
ATOM     19  O   UNL     1      32.860 -17.676 -26.197  0.00  0.00    -0.270 OA
ATOM     20  N   UNL     1      34.600 -18.536 -25.021  0.00  0.00    -0.325 N 
ATOM     21  C   UNL     1      33.767 -17.460 -25.358  0.00  0.00    +0.252 C 
ATOM     22  H   UNL     1      34.470 -19.412 -25.451  0.00  0.00    +0.145 HD
ATOM     23  H   UNL     1      35.315 -18.416 -24.356  0.00  0.00    +0.145 HD
ENDBRANCH   5  21
BRANCH   3  24
ATOM     24  O   UNL     1      35.097 -16.917 -22.712  0.00  0.00    -0.474 OA
BRANCH  24  25
ATOM     25  C   UNL     1      34.236 -17.469 -21.708  0.00  0.00    +0.189 C 
ATOM     26  C   UNL     1      33.938 -16.408 -20.654  0.00  0.00    +0.052 C 
BRANCH  25  28
ATOM     27 CL   UNL     1      32.402 -19.723 -20.676  0.00  0.00    -0.082 Cl
ATOM     28  C   UNL     1      34.888 -18.694 -21.111  0.00  0.00    +0.028 C 
ATOM     29  C   UNL     1      34.127 -19.747 -20.625  0.00  0.00    +0.057 C 
ATOM     30  C   UNL     1      36.274 -18.729 -21.061  0.00  0.00    +0.000 C 
ATOM     31  C   UNL     1      34.766 -20.861 -20.080  0.00  0.00    +0.011 C 
ATOM     32  C   UNL     1      36.913 -19.843 -20.515  0.00  0.00    -0.000 C 
ATOM     33  C   UNL     1      36.158 -20.908 -20.025  0.00  0.00    +0.001 C 
ENDBRANCH  25  28
ENDBRANCH  24  25
ENDBRANCH   3  24
TORSDOF 7
ENDMDL
MODEL 3
REMARK VINA RESULT:     -10.1      3.700      9.852
REMARK  Name = 11957417
REMARK  7 active torsions:
REMARK  status: ('A' for Active; 'I' for Inactive)
REMARK    1  A    between atoms: C_2  and  N_6
REMARK    2  A    between atoms: C_3  and  O_24
REMARK    3  A    between atoms: C_5  and  C_21
REMARK    4  A    between atoms: C_13  and  O_15
REMARK    5  A    between atoms: C_14  and  O_17
REMARK    6  A    between atoms: O_24  and  C_25
REMARK    7  A    between atoms: C_25  and  C_28
REMARK                            x       y       z     vdW  Elec       q    Type
REMARK                         _______ _______ _______ _____ _____    ______ ____
ROOT
ATOM      1  S   UNL     1      33.014 -14.090 -24.485  0.00  0.00    -0.065 S 
ATOM      2  C   UNL     1      33.074 -13.566 -22.865  0.00  0.00    +0.083 C 
ATOM      3  C   UNL     1      34.110 -15.624 -22.740  0.00  0.00    +0.151 C 
ATOM      4  C   UNL     1      33.679 -14.465 -22.032  0.00  0.00    +0.059 C 
ATOM      5  C   UNL     1      33.811 -15.551 -24.083  0.00  0.00    +0.118 C 
ENDROOT
BRANCH   2   6
ATOM      6  N   UNL     1      32.527 -12.337 -22.559  0.00  0.00    -0.275 N 
ATOM      7  N   UNL     1      31.163 -10.853 -21.624  0.00  0.00    -0.250 NA
ATOM      8  C   UNL     1      32.942 -11.115 -23.024  0.00  0.00    +0.140 C 
ATOM      9  C   UNL     1      32.075 -10.205 -22.425  0.00  0.00    +0.081 C 
ATOM     10  C   UNL     1      33.969 -10.739 -23.890  0.00  0.00    +0.039 C 
ATOM     11  C   UNL     1      31.464 -12.128 -21.727  0.00  0.00    +0.220 C 
ATOM     12  C   UNL     1      32.226  -8.835 -22.695  0.00  0.00    +0.056 C 
ATOM     13  C   UNL     1      34.105  -9.370 -24.147  0.00  0.00    +0.170 C 
ATOM     14  C   UNL     1      33.251  -8.433 -23.561  0.00  0.00    +0.173 C 
BRANCH  13  15
ATOM     15  O   UNL     1      35.097  -8.957 -24.989  0.00  0.00    -0.469 OA
ATOM     16  C   UNL     1      35.683  -9.948 -25.831  0.00  0.00    +0.253 C 
ENDBRANCH  13  15
BRANCH  14  17
ATOM     17  O   UNL     1      33.404  -7.104 -23.829  0.00  0.00    -0.468 OA
ATOM     18  C   UNL     1      32.350  -6.237 -23.420  0.00  0.00    +0.253 C 
ENDBRANCH  14  17
ENDBRANCH   2   6
BRANCH   5  21
ATOM     19  O   UNL     1      33.360 -16.655 -26.139  0.00  0.00    -0.270 OA
ATOM     20  N   UNL     1      35.193 -17.332 -24.984  0.00  0.00    -0.325 N 
ATOM     21  C   UNL     1      34.074 -16.499 -25.119  0.00  0.00    +0.252 C 
ATOM     22  H   UNL     1      35.399 -17.995 -25.681  0.00  0.00    +0.145 HD
ATOM     23  H   UNL     1      35.772 -17.254 -24.192  0.00  0.00    +0.145 HD
ENDBRANCH   5  21
BRANCH   3  24
ATOM     24  O   UNL     1      34.739 -16.677 -22.187  0.00  0.00    -0.474 OA
BRANCH  24  25
ATOM     25  C   UNL     1      33.929 -17.755 -21.701  0.00  0.00    +0.189 C 
ATOM     26  C   UNL     1      32.929 -17.221 -20.681  0.00  0.00    +0.052 C 
BRANCH  25  28
ATOM     27 CL   UNL     1      32.593 -20.305 -20.594  0.00  0.00    -0.082 Cl
ATOM     28  C   UNL     1      34.821 -18.824 -21.115  0.00  0.00    +0.028 C 
ATOM     29  C   UNL     1      34.291 -19.997 -20.597  0.00  0.00    +0.057 C 
ATOM     30  C   UNL     1      36.190 -18.591 -21.108  0.00  0.00    +0.000 C 
ATOM     31  C   UNL     1      35.148 -20.959 -20.063  0.00  0.00    +0.011 C 
ATOM     32  C   UNL     1      37.046 -19.554 -20.574  0.00  0.00    -0.000 C 
ATOM     33  C   UNL     1      36.525 -20.738 -20.051  0.00  0.00    +0.001 C 
ENDBRANCH  25  28
ENDBRANCH  24  25
ENDBRANCH   3  24
TORSDOF 7
ENDMDL
MODEL 4
REMARK VINA RESULT:      -9.8      7.228     12.740
REMARK  Name = 11957417
REMARK  7 active torsions:
REMARK  status: ('A' for Active; 'I' for Inactive)
REMARK    1  A    between atoms: C_2  and  N_6
REMARK    2  A    between atoms: C_3  and  O_24
REMARK    3  A    between atoms: C_5  and  C_21
REMARK    4  A    between atoms: C_13  and  O_15
REMARK    5  A    between atoms: C_14  and  O_17
REMARK    6  A    between atoms: O_24  and  C_25
REMARK    7  A    between atoms: C_25  and  C_28
REMARK                            x       y       z     vdW  Elec       q    Type
REMARK                         _______ _______ _______ _____ _____    ______ ____
ROOT
ATOM      1  S   UNL     1      33.329 -20.708 -20.474  0.00  0.00    -0.065 S 
ATOM      2  C   UNL     1      34.895 -20.218 -20.933  0.00  0.00    +0.083 C 
ATOM      3  C   UNL     1      35.337 -21.654 -19.182  0.00  0.00    +0.151 C 
ATOM      4  C   UNL     1      35.879 -20.787 -20.175  0.00  0.00    +0.059 C 
ATOM      5  C   UNL     1      33.962 -21.703 -19.233  0.00  0.00    +0.118 C 
ENDROOT
BRANCH   2   6
ATOM      6  N   UNL     1      35.017 -19.331 -21.982  0.00  0.00    -0.275 N 
ATOM      7  N   UNL     1      35.405 -18.608 -24.048  0.00  0.00    -0.250 NA
ATOM      8  C   UNL     1      34.810 -17.976 -21.941  0.00  0.00    +0.140 C 
ATOM      9  C   UNL     1      35.058 -17.548 -23.243  0.00  0.00    +0.081 C 
ATOM     10  C   UNL     1      34.439 -17.113 -20.909  0.00  0.00    +0.039 C 
ATOM     11  C   UNL     1      35.370 -19.660 -23.261  0.00  0.00    +0.220 C 
ATOM     12  C   UNL     1      34.934 -16.183 -23.551  0.00  0.00    +0.056 C 
ATOM     13  C   UNL     1      34.319 -15.758 -21.234  0.00  0.00    +0.170 C 
ATOM     14  C   UNL     1      34.562 -15.298 -22.530  0.00  0.00    +0.173 C 
BRANCH  13  15
ATOM     15  O   UNL     1      33.958 -14.879 -20.253  0.00  0.00    -0.469 OA
ATOM     16  C   UNL     1      32.574 -14.554 -20.155  0.00  0.00    +0.253 C 
ENDBRANCH  13  15
BRANCH  14  17
ATOM     17  O   UNL     1      34.439 -13.971 -22.821  0.00  0.00    -0.468 OA
ATOM     18  C   UNL     1      33.536 -13.620 -23.867  0.00  0.00    +0.253 C 
ENDBRANCH  14  17
ENDBRANCH   2   6
BRANCH   5  21
ATOM     19  O   UNL     1      31.990 -21.988 -17.937  0.00  0.00    -0.270 OA
ATOM     20  N   UNL     1      33.379 -23.774 -18.110  0.00  0.00    -0.325 N 
ATOM     21  C   UNL     1      33.055 -22.446 -18.418  0.00  0.00    +0.252 C 
ATOM     22  H   UNL     1      32.773 -24.311 -17.549  0.00  0.00    +0.145 HD
ATOM     23  H   UNL     1      34.212 -24.170 -18.453  0.00  0.00    +0.145 HD
ENDBRANCH   5  21
BRANCH   3  24
ATOM     24  O   UNL     1      36.061 -22.354 -18.290  0.00  0.00    -0.474 OA
BRANCH  24  25
ATOM     25  C   UNL     1      36.299 -21.755 -17.009  0.00  0.00    +0.189 C 
ATOM     26  C   UNL     1      37.405 -20.713 -17.133  0.00  0.00    +0.052 C 
BRANCH  25  28
ATOM     27 CL   UNL     1      34.042 -22.836 -15.208  0.00  0.00    -0.082 Cl
ATOM     28  C   UNL     1      36.646 -22.835 -16.011  0.00  0.00    +0.028 C 
ATOM     29  C   UNL     1      35.683 -23.368 -15.167  0.00  0.00    +0.057 C 
ATOM     30  C   UNL     1      37.962 -23.273 -15.964  0.00  0.00    +0.000 C 
ATOM     31  C   UNL     1      36.043 -24.362 -14.258  0.00  0.00    +0.011 C 
ATOM     32  C   UNL     1      38.322 -24.267 -15.054  0.00  0.00    -0.000 C 
ATOM     33  C   UNL     1      37.361 -24.812 -14.201  0.00  0.00    +0.001 C 
ENDBRANCH  25  28
ENDBRANCH  24  25
ENDBRANCH   3  24
TORSDOF 7
ENDMDL
MODEL 5
REMARK VINA RESULT:      -9.6      1.978      2.792
REMARK  Name = 11957417
REMARK  7 active torsions:
REMARK  status: ('A' for Active; 'I' for Inactive)
REMARK    1  A    between atoms: C_2  and  N_6
REMARK    2  A    between atoms: C_3  and  O_24
REMARK    3  A    between atoms: C_5  and  C_21
REMARK    4  A    between atoms: C_13  and  O_15
REMARK    5  A    between atoms: C_14  and  O_17
REMARK    6  A    between atoms: O_24  and  C_25
REMARK    7  A    between atoms: C_25  and  C_28
REMARK                            x       y       z     vdW  Elec       q    Type
REMARK                         _______ _______ _______ _____ _____    ______ ____
ROOT
ATOM      1  S   UNL     1      34.520 -10.800 -25.301  0.00  0.00    -0.065 S 
ATOM      2  C   UNL     1      33.667 -12.034 -24.494  0.00  0.00    +0.083 C 
ATOM      3  C   UNL     1      33.346 -10.234 -23.087  0.00  0.00    +0.151 C 
ATOM      4  C   UNL     1      33.086 -11.613 -23.330  0.00  0.00    +0.059 C 
ATOM      5  C   UNL     1      34.115  -9.669 -24.081  0.00  0.00    +0.118 C 
ENDROOT
BRANCH   2   6
ATOM      6  N   UNL     1      33.644 -13.290 -25.066  0.00  0.00    -0.275 N 
ATOM      7  N   UNL     1      33.337 -14.853 -26.615  0.00  0.00    -0.250 NA
ATOM      8  C   UNL     1      34.001 -14.471 -24.469  0.00  0.00    +0.140 C 
ATOM      9  C   UNL     1      33.801 -15.432 -25.457  0.00  0.00    +0.081 C 
ATOM     10  C   UNL     1      34.466 -14.774 -23.188  0.00  0.00    +0.039 C 
ATOM     11  C   UNL     1      33.255 -13.569 -26.346  0.00  0.00    +0.220 C 
ATOM     12  C   UNL     1      34.077 -16.779 -25.168  0.00  0.00    +0.056 C 
ATOM     13  C   UNL     1      34.736 -16.120 -22.919  0.00  0.00    +0.170 C 
ATOM     14  C   UNL     1      34.546 -17.106 -23.889  0.00  0.00    +0.173 C 
BRANCH  13  15
ATOM     15  O   UNL     1      35.194 -16.461 -21.678  0.00  0.00    -0.469 OA
ATOM     16  C   UNL     1      34.617 -15.779 -20.568  0.00  0.00    +0.253 C 
ENDBRANCH  13  15
BRANCH  14  17
ATOM     17  O   UNL     1      34.816 -18.413 -23.601  0.00  0.00    -0.468 OA
ATOM     18  C   UNL     1      34.574 -19.364 -24.633  0.00  0.00    +0.253 C 
ENDBRANCH  14  17
ENDBRANCH   2   6
BRANCH   5  21
ATOM     19  O   UNL     1      34.664  -7.695 -25.287  0.00  0.00    -0.270 OA
ATOM     20  N   UNL     1      35.016  -7.667 -23.045  0.00  0.00    -0.325 N 
ATOM     21  C   UNL     1      34.586  -8.326 -24.205  0.00  0.00    +0.252 C 
ATOM     22  H   UNL     1      35.347  -6.742 -23.099  0.00  0.00    +0.145 HD
ATOM     23  H   UNL     1      34.987  -8.130 -22.176  0.00  0.00    +0.145 HD
ENDBRANCH   5  21
BRANCH   3  24
ATOM     24  O   UNL     1      32.904  -9.540 -22.023  0.00  0.00    -0.474 OA
BRANCH  24  25
ATOM     25  C   UNL     1      31.537  -9.106 -22.032  0.00  0.00    +0.189 C 
ATOM     26  C   UNL     1      30.699 -10.085 -22.847  0.00  0.00    +0.052 C 
BRANCH  25  28
ATOM     27 CL   UNL     1      32.350  -6.782 -20.176  0.00  0.00    -0.082 Cl
ATOM     28  C   UNL     1      31.464  -7.702 -22.584  0.00  0.00    +0.028 C 
ATOM     29  C   UNL     1      31.814  -6.607 -21.806  0.00  0.00    +0.057 C 
ATOM     30  C   UNL     1      31.033  -7.542 -23.893  0.00  0.00    +0.000 C 
ATOM     31  C   UNL     1      31.731  -5.325 -22.351  0.00  0.00    +0.011 C 
ATOM     32  C   UNL     1      30.951  -6.261 -24.437  0.00  0.00    -0.000 C 
ATOM     33  C   UNL     1      31.300  -5.152 -23.665  0.00  0.00    +0.001 C 
ENDBRANCH  25  28
ENDBRANCH  24  25
ENDBRANCH   3  24
TORSDOF 7
ENDMDL
MODEL 6
REMARK VINA RESULT:      -9.4      3.658      9.894
REMARK  Name = 11957417
REMARK  7 active torsions:
REMARK  status: ('A' for Active; 'I' for Inactive)
REMARK    1  A    between atoms: C_2  and  N_6
REMARK    2  A    between atoms: C_3  and  O_24
REMARK    3  A    between atoms: C_5  and  C_21
REMARK    4  A    between atoms: C_13  and  O_15
REMARK    5  A    between atoms: C_14  and  O_17
REMARK    6  A    between atoms: O_24  and  C_25
REMARK    7  A    between atoms: C_25  and  C_28
REMARK                            x       y       z     vdW  Elec       q    Type
REMARK                         _______ _______ _______ _____ _____    ______ ____
ROOT
ATOM      1  S   UNL     1      33.162 -13.851 -23.982  0.00  0.00    -0.065 S 
ATOM      2  C   UNL     1      32.901 -14.039 -22.309  0.00  0.00    +0.083 C 
ATOM      3  C   UNL     1      33.645 -16.137 -22.915  0.00  0.00    +0.151 C 
ATOM      4  C   UNL     1      33.193 -15.295 -21.858  0.00  0.00    +0.059 C 
ATOM      5  C   UNL     1      33.676 -15.478 -24.124  0.00  0.00    +0.118 C 
ENDROOT
BRANCH   2   6
ATOM      6  N   UNL     1      32.439 -12.951 -21.597  0.00  0.00    -0.275 N 
ATOM      7  N   UNL     1      31.492 -11.813 -19.940  0.00  0.00    -0.250 NA
ATOM      8  C   UNL     1      32.509 -11.634 -21.971  0.00  0.00    +0.140 C 
ATOM      9  C   UNL     1      31.912 -10.943 -20.920  0.00  0.00    +0.081 C 
ATOM     10  C   UNL     1      33.028 -11.006 -23.104  0.00  0.00    +0.039 C 
ATOM     11  C   UNL     1      31.824 -13.006 -20.378  0.00  0.00    +0.220 C 
ATOM     12  C   UNL     1      31.817  -9.543 -20.986  0.00  0.00    +0.056 C 
ATOM     13  C   UNL     1      32.925  -9.611 -23.153  0.00  0.00    +0.170 C 
ATOM     14  C   UNL     1      32.331  -8.891 -22.114  0.00  0.00    +0.173 C 
BRANCH  13  15
ATOM     15  O   UNL     1      33.420  -8.956 -24.244  0.00  0.00    -0.469 OA
ATOM     16  C   UNL     1      34.794  -8.579 -24.203  0.00  0.00    +0.253 C 
ENDBRANCH  13  15
BRANCH  14  17
ATOM     17  O   UNL     1      32.243  -7.531 -22.186  0.00  0.00    -0.468 OA
ATOM     18  C   UNL     1      31.895  -6.842 -20.988  0.00  0.00    +0.253 C 
ENDBRANCH  14  17
ENDBRANCH   2   6
BRANCH   5  21
ATOM     19  O   UNL     1      33.529 -15.627 -26.492  0.00  0.00    -0.270 OA
ATOM     20  N   UNL     1      35.102 -16.906 -25.472  0.00  0.00    -0.325 N 
ATOM     21  C   UNL     1      34.065 -15.966 -25.409  0.00  0.00    +0.252 C 
ATOM     22  H   UNL     1      35.392 -17.262 -26.343  0.00  0.00    +0.145 HD
ATOM     23  H   UNL     1      35.541 -17.212 -24.645  0.00  0.00    +0.145 HD
ENDBRANCH   5  21
BRANCH   3  24
ATOM     24  O   UNL     1      34.007 -17.425 -22.776  0.00  0.00    -0.474 OA
BRANCH  24  25
ATOM     25  C   UNL     1      34.986 -17.737 -21.776  0.00  0.00    +0.189 C 
ATOM     26  C   UNL     1      36.353 -17.889 -22.434  0.00  0.00    +0.052 C 
BRANCH  25  28
ATOM     27 CL   UNL     1      37.202 -19.540 -20.617  0.00  0.00    -0.082 Cl
ATOM     28  C   UNL     1      34.568 -18.989 -21.041  0.00  0.00    +0.028 C 
ATOM     29  C   UNL     1      35.509 -19.848 -20.494  0.00  0.00    +0.057 C 
ATOM     30  C   UNL     1      33.209 -19.252 -20.935  0.00  0.00    +0.000 C 
ATOM     31  C   UNL     1      35.083 -20.995 -19.825  0.00  0.00    +0.011 C 
ATOM     32  C   UNL     1      32.783 -20.399 -20.265  0.00  0.00    -0.000 C 
ATOM     33  C   UNL     1      33.721 -21.271 -19.710  0.00  0.00    +0.001 C 
ENDBRANCH  25  28
ENDBRANCH  24  25
ENDBRANCH   3  24
TORSDOF 7
ENDMDL
MODEL 7
REMARK VINA RESULT:      -9.2      2.254      3.406
REMARK  Name = 11957417
REMARK  7 active torsions:
REMARK  status: ('A' for Active; 'I' for Inactive)
REMARK    1  A    between atoms: C_2  and  N_6
REMARK    2  A    between atoms: C_3  and  O_24
REMARK    3  A    between atoms: C_5  and  C_21
REMARK    4  A    between atoms: C_13  and  O_15
REMARK    5  A    between atoms: C_14  and  O_17
REMARK    6  A    between atoms: O_24  and  C_25
REMARK    7  A    between atoms: C_25  and  C_28
REMARK                            x       y       z     vdW  Elec       q    Type
REMARK                         _______ _______ _______ _____ _____    ______ ____
ROOT
ATOM      1  S   UNL     1      32.300  -9.384 -20.470  0.00  0.00    -0.065 S 
ATOM      2  C   UNL     1      32.070 -10.262 -21.912  0.00  0.00    +0.083 C 
ATOM      3  C   UNL     1      31.755  -8.090 -22.621  0.00  0.00    +0.151 C 
ATOM      4  C   UNL     1      31.787  -9.466 -22.986  0.00  0.00    +0.059 C 
ATOM      5  C   UNL     1      32.017  -7.903 -21.282  0.00  0.00    +0.118 C 
ENDROOT
BRANCH   2   6
ATOM      6  N   UNL     1      32.186 -11.636 -21.862  0.00  0.00    -0.275 N 
ATOM      7  N   UNL     1      32.070 -13.694 -21.030  0.00  0.00    -0.250 NA
ATOM      8  C   UNL     1      32.647 -12.460 -22.857  0.00  0.00    +0.140 C 
ATOM      9  C   UNL     1      32.564 -13.739 -22.314  0.00  0.00    +0.081 C 
ATOM     10  C   UNL     1      33.115 -12.203 -24.146  0.00  0.00    +0.039 C 
ATOM     11  C   UNL     1      31.854 -12.420 -20.792  0.00  0.00    +0.220 C 
ATOM     12  C   UNL     1      32.969 -14.839 -23.088  0.00  0.00    +0.056 C 
ATOM     13  C   UNL     1      33.513 -13.311 -24.903  0.00  0.00    +0.170 C 
ATOM     14  C   UNL     1      33.442 -14.606 -24.385  0.00  0.00    +0.173 C 
BRANCH  13  15
ATOM     15  O   UNL     1      33.978 -13.105 -26.170  0.00  0.00    -0.469 OA
ATOM     16  C   UNL     1      33.019 -13.147 -27.224  0.00  0.00    +0.253 C 
ENDBRANCH  13  15
BRANCH  14  17
ATOM     17  O   UNL     1      33.837 -15.669 -25.144  0.00  0.00    -0.468 OA
ATOM     18  C   UNL     1      34.598 -16.681 -24.489  0.00  0.00    +0.253 C 
ENDBRANCH  14  17
ENDBRANCH   2   6
BRANCH   5  21
ATOM     19  O   UNL     1      32.716  -6.540 -19.464  0.00  0.00    -0.270 OA
ATOM     20  N   UNL     1      31.356  -5.584 -21.009  0.00  0.00    -0.325 N 
ATOM     21  C   UNL     1      32.077  -6.688 -20.534  0.00  0.00    +0.252 C 
ATOM     22  H   UNL     1      31.377  -4.733 -20.515  0.00  0.00    +0.145 HD
ATOM     23  H   UNL     1      30.828  -5.659 -21.836  0.00  0.00    +0.145 HD
ENDBRANCH   5  21
BRANCH   3  24
ATOM     24  O   UNL     1      31.503  -7.073 -23.465  0.00  0.00    -0.474 OA
BRANCH  24  25
ATOM     25  C   UNL     1      32.508  -6.749 -24.435  0.00  0.00    +0.189 C 
ATOM     26  C   UNL     1      33.885  -6.819 -23.783  0.00  0.00    +0.052 C 
BRANCH  25  28
ATOM     27 CL   UNL     1      34.478  -5.621 -26.522  0.00  0.00    -0.082 Cl
ATOM     28  C   UNL     1      32.222  -5.383 -25.012  0.00  0.00    +0.028 C 
ATOM     29  C   UNL     1      33.064  -4.811 -25.955  0.00  0.00    +0.057 C 
ATOM     30  C   UNL     1      31.089  -4.716 -24.565  0.00  0.00    +0.000 C 
ATOM     31  C   UNL     1      32.767  -3.547 -26.463  0.00  0.00    +0.011 C 
ATOM     32  C   UNL     1      30.792  -3.452 -25.074  0.00  0.00    -0.000 C 
ATOM     33  C   UNL     1      31.632  -2.867 -26.023  0.00  0.00    +0.001 C 
ENDBRANCH  25  28
ENDBRANCH  24  25
ENDBRANCH   3  24
TORSDOF 7
ENDMDL
MODEL 8
REMARK VINA RESULT:      -9.0      2.985      9.057
REMARK  Name = 11957417
REMARK  7 active torsions:
REMARK  status: ('A' for Active; 'I' for Inactive)
REMARK    1  A    between atoms: C_2  and  N_6
REMARK    2  A    between atoms: C_3  and  O_24
REMARK    3  A    between atoms: C_5  and  C_21
REMARK    4  A    between atoms: C_13  and  O_15
REMARK    5  A    between atoms: C_14  and  O_17
REMARK    6  A    between atoms: O_24  and  C_25
REMARK    7  A    between atoms: C_25  and  C_28
REMARK                            x       y       z     vdW  Elec       q    Type
REMARK                         _______ _______ _______ _____ _____    ______ ____
ROOT
ATOM      1  S   UNL     1      33.438 -12.054 -26.050  0.00  0.00    -0.065 S 
ATOM      2  C   UNL     1      33.811 -11.757 -24.415  0.00  0.00    +0.083 C 
ATOM      3  C   UNL     1      33.597 -14.054 -24.446  0.00  0.00    +0.151 C 
ATOM      4  C   UNL     1      33.868 -12.896 -23.661  0.00  0.00    +0.059 C 
ATOM      5  C   UNL     1      33.346 -13.740 -25.764  0.00  0.00    +0.118 C 
ENDROOT
BRANCH   2   6
ATOM      6  N   UNL     1      34.011 -10.450 -24.021  0.00  0.00    -0.275 N 
ATOM      7  N   UNL     1      34.867  -8.399 -24.011  0.00  0.00    -0.250 NA
ATOM      8  C   UNL     1      33.376  -9.793 -22.998  0.00  0.00    +0.140 C 
ATOM      9  C   UNL     1      33.927  -8.515 -23.012  0.00  0.00    +0.081 C 
ATOM     10  C   UNL     1      32.397 -10.196 -22.088  0.00  0.00    +0.039 C 
ATOM     11  C   UNL     1      34.891  -9.576 -24.594  0.00  0.00    +0.220 C 
ATOM     12  C   UNL     1      33.487  -7.569 -22.071  0.00  0.00    +0.056 C 
ATOM     13  C   UNL     1      31.971  -9.240 -21.159  0.00  0.00    +0.170 C 
ATOM     14  C   UNL     1      32.505  -7.950 -21.149  0.00  0.00    +0.173 C 
BRANCH  13  15
ATOM     15  O   UNL     1      31.014  -9.591 -20.251  0.00  0.00    -0.469 OA
ATOM     16  C   UNL     1      31.284 -10.729 -19.436  0.00  0.00    +0.253 C 
ENDBRANCH  13  15
BRANCH  14  17
ATOM     17  O   UNL     1      32.073  -7.036 -20.232  0.00  0.00    -0.468 OA
ATOM     18  C   UNL     1      31.385  -5.894 -20.733  0.00  0.00    +0.253 C 
ENDBRANCH  14  17
ENDBRANCH   2   6
BRANCH   5  21
ATOM     19  O   UNL     1      33.480 -14.469 -28.022  0.00  0.00    -0.270 OA
ATOM     20  N   UNL     1      32.160 -15.675 -26.623  0.00  0.00    -0.325 N 
ATOM     21  C   UNL     1      33.037 -14.607 -26.855  0.00  0.00    +0.252 C 
ATOM     22  H   UNL     1      31.927 -16.289 -27.357  0.00  0.00    +0.145 HD
ATOM     23  H   UNL     1      31.777 -15.811 -25.727  0.00  0.00    +0.145 HD
ENDBRANCH   5  21
BRANCH   3  24
ATOM     24  O   UNL     1      33.583 -15.316 -23.981  0.00  0.00    -0.474 OA
BRANCH  24  25
ATOM     25  C   UNL     1      34.825 -16.034 -23.967  0.00  0.00    +0.189 C 
ATOM     26  C   UNL     1      35.133 -16.542 -25.371  0.00  0.00    +0.052 C 
BRANCH  25  28
ATOM     27 CL   UNL     1      34.624 -15.290 -20.982  0.00  0.00    -0.082 Cl
ATOM     28  C   UNL     1      34.740 -17.158 -22.962  0.00  0.00    +0.028 C 
ATOM     29  C   UNL     1      34.648 -16.899 -21.603  0.00  0.00    +0.057 C 
ATOM     30  C   UNL     1      34.759 -18.460 -23.445  0.00  0.00    +0.000 C 
ATOM     31  C   UNL     1      34.573 -17.965 -20.705  0.00  0.00    +0.011 C 
ATOM     32  C   UNL     1      34.685 -19.525 -22.547  0.00  0.00    -0.000 C 
ATOM     33  C   UNL     1      34.592 -19.277 -21.177  0.00  0.00    +0.001 C 
ENDBRANCH  25  28
ENDBRANCH  24  25
ENDBRANCH   3  24
TORSDOF 7
ENDMDL
MODEL 9
REMARK VINA RESULT:      -9.0      6.870     12.245
REMARK  Name = 11957417
REMARK  7 active torsions:
REMARK  status: ('A' for Active; 'I' for Inactive)
REMARK    1  A    between atoms: C_2  and  N_6
REMARK    2  A    between atoms: C_3  and  O_24
REMARK    3  A    between atoms: C_5  and  C_21
REMARK    4  A    between atoms: C_13  and  O_15
REMARK    5  A    between atoms: C_14  and  O_17
REMARK    6  A    between atoms: O_24  and  C_25
REMARK    7  A    between atoms: C_25  and  C_28
REMARK                            x       y       z     vdW  Elec       q    Type
REMARK                         _______ _______ _______ _____ _____    ______ ____
ROOT
ATOM      1  S   UNL     1      36.446 -19.903 -20.827  0.00  0.00    -0.065 S 
ATOM      2  C   UNL     1      34.902 -19.597 -21.478  0.00  0.00    +0.083 C 
ATOM      3  C   UNL     1      34.393 -20.858 -19.614  0.00  0.00    +0.151 C 
ATOM      4  C   UNL     1      33.890 -20.154 -20.747  0.00  0.00    +0.059 C 
ATOM      5  C   UNL     1      35.767 -20.801 -19.537  0.00  0.00    +0.118 C 
ENDROOT
BRANCH   2   6
ATOM      6  N   UNL     1      34.821 -18.847 -22.633  0.00  0.00    -0.275 N 
ATOM      7  N   UNL     1      34.810 -18.392 -24.808  0.00  0.00    -0.250 NA
ATOM      8  C   UNL     1      34.621 -17.493 -22.723  0.00  0.00    +0.140 C 
ATOM      9  C   UNL     1      34.617 -17.234 -24.091  0.00  0.00    +0.081 C 
ATOM     10  C   UNL     1      34.448 -16.504 -21.754  0.00  0.00    +0.039 C 
ATOM     11  C   UNL     1      34.927 -19.338 -23.904  0.00  0.00    +0.220 C 
ATOM     12  C   UNL     1      34.433 -15.914 -24.537  0.00  0.00    +0.056 C 
ATOM     13  C   UNL     1      34.265 -15.196 -22.217  0.00  0.00    +0.170 C 
ATOM     14  C   UNL     1      34.257 -14.904 -23.583  0.00  0.00    +0.173 C 
BRANCH  13  15
ATOM     15  O   UNL     1      34.092 -14.196 -21.303  0.00  0.00    -0.469 OA
ATOM     16  C   UNL     1      32.827 -14.131 -20.650  0.00  0.00    +0.253 C 
ENDBRANCH  13  15
BRANCH  14  17
ATOM     17  O   UNL     1      34.077 -13.620 -24.008  0.00  0.00    -0.468 OA
ATOM     18  C   UNL     1      33.224 -13.427 -25.133  0.00  0.00    +0.253 C 
ENDBRANCH  14  17
ENDBRANCH   2   6
BRANCH   5  21
ATOM     19  O   UNL     1      37.134 -22.523 -18.635  0.00  0.00    -0.270 OA
ATOM     20  N   UNL     1      36.957 -20.608 -17.430  0.00  0.00    -0.325 N 
ATOM     21  C   UNL     1      36.641 -21.372 -18.562  0.00  0.00    +0.252 C 
ATOM     22  H   UNL     1      37.556 -20.975 -16.741  0.00  0.00    +0.145 HD
ATOM     23  H   UNL     1      36.579 -19.705 -17.325  0.00  0.00    +0.145 HD
ENDBRANCH   5  21
BRANCH   3  24
ATOM     24  O   UNL     1      33.636 -21.507 -18.711  0.00  0.00    -0.474 OA
BRANCH  24  25
ATOM     25  C   UNL     1      34.104 -22.778 -18.242  0.00  0.00    +0.189 C 
ATOM     26  C   UNL     1      33.903 -23.826 -19.331  0.00  0.00    +0.052 C 
BRANCH  25  28
ATOM     27 CL   UNL     1      35.794 -23.574 -15.789  0.00  0.00    -0.082 Cl
ATOM     28  C   UNL     1      33.376 -23.138 -16.967  0.00  0.00    +0.028 C 
ATOM     29  C   UNL     1      34.071 -23.506 -15.824  0.00  0.00    +0.057 C 
ATOM     30  C   UNL     1      31.989 -23.090 -16.979  0.00  0.00    +0.000 C 
ATOM     31  C   UNL     1      33.363 -23.833 -14.668  0.00  0.00    +0.011 C 
ATOM     32  C   UNL     1      31.281 -23.417 -15.823  0.00  0.00    -0.000 C 
ATOM     33  C   UNL     1      31.969 -23.788 -14.667  0.00  0.00    +0.001 C 
ENDBRANCH  25  28
ENDBRANCH  24  25
ENDBRANCH   3  24
TORSDOF 7
ENDMDL
