MODEL 1
REMARK VINA RESULT:      -9.6      0.000      0.000
REMARK  Name = 9817372
REMARK  9 active torsions:
REMARK  status: ('A' for Active; 'I' for Inactive)
REMARK    1  A    between atoms: C_1  and  C_3
REMARK    2  A    between atoms: C_1  and  C_6
REMARK    3  A    between atoms: C_1  and  C_16
REMARK    4  A    between atoms: C_3  and  O_4
REMARK    5  A    between atoms: C_6  and  CA_7
REMARK    6  A    between atoms: CA_7  and  N_8
REMARK    7  A    between atoms: CA_7  and  C_13
REMARK    8  A    between atoms: C_13  and  O_14
REMARK    9  A    between atoms: C_16  and  C_17
REMARK                            x       y       z     vdW  Elec       q    Type
REMARK                         _______ _______ _______ _____ _____    ______ ____
ROOT
ATOM      1  C   UNL     1      36.993 -24.590 -13.110  0.00  0.00    +0.102 C 
ENDROOT
BRANCH   1   3
ATOM      2  O   UNL     1      36.769 -24.289 -10.697  0.00  0.00    -0.250 OA
ATOM      3  C   UNL     1      36.272 -24.613 -11.769  0.00  0.00    +0.314 C 
BRANCH   3   4
ATOM      4  O   UNL     1      34.992 -25.055 -11.882  0.00  0.00    -0.480 OA
ATOM      5  H   UNL     1      34.815 -25.975 -11.916  0.00  0.00    +0.295 HD
ENDBRANCH   3   4
ENDBRANCH   1   3
BRANCH   1   6
ATOM      6  C   UNL     1      38.419 -25.171 -12.999  0.00  0.00    +0.000 C 
BRANCH   6   7
ATOM      7  CA  UNL     1      38.858 -26.031 -14.198  0.00  0.00    +0.036 C 
BRANCH   7   8
ATOM      8  N   UNL     1      37.840 -26.059 -15.248  0.00  0.00    +0.389 N 
ATOM      9  H1  UNL     1      38.214 -25.634 -16.096  0.00  0.00    -0.088 HD
ATOM     10  H2  UNL     1      37.019 -25.537 -14.940  0.00  0.00    -0.088 HD
ATOM     11  H3  UNL     1      37.576 -27.025 -15.440  0.00  0.00    -0.088 HD
ENDBRANCH   7   8
BRANCH   7  13
ATOM     12  OXT UNL     1      40.893 -24.672 -14.263  0.00  0.00    -0.253 OA
ATOM     13  C   UNL     1      40.121 -25.451 -14.805  0.00  0.00    +0.293 C 
BRANCH  13  14
ATOM     14  O   UNL     1      40.291 -25.910 -16.072  0.00  0.00    -0.482 OA
ATOM     15  H   UNL     1      39.973 -25.410 -16.798  0.00  0.00    +0.295 HD
ENDBRANCH  13  14
ENDBRANCH   7  13
ENDBRANCH   6   7
ENDBRANCH   1   6
BRANCH   1  16
ATOM     16  C   UNL     1      36.983 -23.167 -13.712  0.00  0.00    +0.037 C 
BRANCH  16  17
ATOM     17  C   UNL     1      36.194 -22.995 -14.988  0.00  0.00    -0.022 C 
ATOM     18  C   UNL     1      36.779 -22.350 -16.066  0.00  0.00    -0.004 C 
ATOM     19  C   UNL     1      34.903 -23.485 -15.056  0.00  0.00    -0.004 C 
ATOM     20  C   UNL     1      36.058 -22.183 -17.260  0.00  0.00    -0.000 C 
ATOM     21  C   UNL     1      34.736 -22.679 -17.345  0.00  0.00    -0.000 C 
ATOM     22  C   UNL     1      34.173 -23.328 -16.234  0.00  0.00    -0.000 C 
ATOM     23  C   UNL     1      36.622 -21.534 -18.371  0.00  0.00    -0.000 C 
ATOM     24  C   UNL     1      34.016 -22.512 -18.539  0.00  0.00    -0.000 C 
ATOM     25  C   UNL     1      35.892 -21.377 -19.549  0.00  0.00    -0.000 C 
ATOM     26  C   UNL     1      34.591 -21.864 -19.633  0.00  0.00    -0.000 C 
ENDBRANCH  16  17
ENDBRANCH   1  16
TORSDOF 9
ENDMDL
MODEL 2
REMARK VINA RESULT:      -9.6      8.331     11.521
REMARK  Name = 9817372
REMARK  9 active torsions:
REMARK  status: ('A' for Active; 'I' for Inactive)
REMARK    1  A    between atoms: C_1  and  C_3
REMARK    2  A    between atoms: C_1  and  C_6
REMARK    3  A    between atoms: C_1  and  C_16
REMARK    4  A    between atoms: C_3  and  O_4
REMARK    5  A    between atoms: C_6  and  CA_7
REMARK    6  A    between atoms: CA_7  and  N_8
REMARK    7  A    between atoms: CA_7  and  C_13
REMARK    8  A    between atoms: C_13  and  O_14
REMARK    9  A    between atoms: C_16  and  C_17
REMARK                            x       y       z     vdW  Elec       q    Type
REMARK                         _______ _______ _______ _____ _____    ______ ____
ROOT
ATOM      1  C   UNL     1      34.176 -16.821 -23.726  0.00  0.00    +0.102 C 
ENDROOT
BRANCH   1   3
ATOM      2  O   UNL     1      34.404 -18.884 -25.012  0.00  0.00    -0.250 OA
ATOM      3  C   UNL     1      34.532 -17.667 -24.941  0.00  0.00    +0.314 C 
BRANCH   3   4
ATOM      4  O   UNL     1      35.032 -16.920 -25.959  0.00  0.00    -0.480 OA
ATOM      5  H   UNL     1      35.247 -17.325 -26.776  0.00  0.00    +0.295 HD
ENDBRANCH   3   4
ENDBRANCH   1   3
BRANCH   1   6
ATOM      6  C   UNL     1      33.786 -15.382 -24.131  0.00  0.00    +0.000 C 
BRANCH   6   7
ATOM      7  CA  UNL     1      33.881 -14.347 -22.994  0.00  0.00    +0.036 C 
BRANCH   7   8
ATOM      8  N   UNL     1      34.153 -13.003 -23.505  0.00  0.00    +0.389 N 
ATOM      9  H1  UNL     1      34.152 -12.339 -22.731  0.00  0.00    -0.088 HD
ATOM     10  H2  UNL     1      33.431 -12.742 -24.177  0.00  0.00    -0.088 HD
ATOM     11  H3  UNL     1      35.064 -12.992 -23.962  0.00  0.00    -0.088 HD
ENDBRANCH   7   8
BRANCH   7  13
ATOM     12  OXT UNL     1      32.146 -15.120 -21.451  0.00  0.00    -0.253 OA
ATOM     13  C   UNL     1      32.563 -14.291 -22.247  0.00  0.00    +0.293 C 
BRANCH  13  14
ATOM     14  O   UNL     1      31.873 -13.171 -22.589  0.00  0.00    -0.482 OA
ATOM     15  H   UNL     1      32.038 -12.365 -22.141  0.00  0.00    +0.295 HD
ENDBRANCH  13  14
ENDBRANCH   7  13
ENDBRANCH   6   7
ENDBRANCH   1   6
BRANCH   1  16
ATOM     16  C   UNL     1      35.318 -16.850 -22.686  0.00  0.00    +0.037 C 
BRANCH  16  17
ATOM     17  C   UNL     1      35.403 -18.094 -21.835  0.00  0.00    -0.022 C 
ATOM     18  C   UNL     1      34.234 -18.703 -21.405  0.00  0.00    -0.004 C 
ATOM     19  C   UNL     1      36.644 -18.603 -21.500  0.00  0.00    -0.004 C 
ATOM     20  C   UNL     1      34.296 -19.862 -20.613  0.00  0.00    -0.000 C 
ATOM     21  C   UNL     1      35.559 -20.394 -20.263  0.00  0.00    -0.000 C 
ATOM     22  C   UNL     1      36.724 -19.752 -20.714  0.00  0.00    -0.000 C 
ATOM     23  C   UNL     1      33.130 -20.504 -20.161  0.00  0.00    -0.000 C 
ATOM     24  C   UNL     1      35.620 -21.552 -19.471  0.00  0.00    -0.000 C 
ATOM     25  C   UNL     1      33.211 -21.653 -19.376  0.00  0.00    -0.000 C 
ATOM     26  C   UNL     1      34.453 -22.177 -19.031  0.00  0.00    -0.000 C 
ENDBRANCH  16  17
ENDBRANCH   1  16
TORSDOF 9
ENDMDL
MODEL 3
REMARK VINA RESULT:      -9.5      8.090     10.912
REMARK  Name = 9817372
REMARK  9 active torsions:
REMARK  status: ('A' for Active; 'I' for Inactive)
REMARK    1  A    between atoms: C_1  and  C_3
REMARK    2  A    between atoms: C_1  and  C_6
REMARK    3  A    between atoms: C_1  and  C_16
REMARK    4  A    between atoms: C_3  and  O_4
REMARK    5  A    between atoms: C_6  and  CA_7
REMARK    6  A    between atoms: CA_7  and  N_8
REMARK    7  A    between atoms: CA_7  and  C_13
REMARK    8  A    between atoms: C_13  and  O_14
REMARK    9  A    between atoms: C_16  and  C_17
REMARK                            x       y       z     vdW  Elec       q    Type
REMARK                         _______ _______ _______ _____ _____    ______ ____
ROOT
ATOM      1  C   UNL     1      34.970 -16.362 -22.248  0.00  0.00    +0.102 C 
ENDROOT
BRANCH   1   3
ATOM      2  O   UNL     1      32.926 -15.958 -20.974  0.00  0.00    -0.250 OA
ATOM      3  C   UNL     1      34.143 -15.855 -21.074  0.00  0.00    +0.314 C 
BRANCH   3   4
ATOM      4  O   UNL     1      34.909 -15.247 -20.131  0.00  0.00    -0.480 OA
ATOM      5  H   UNL     1      34.543 -14.572 -19.594  0.00  0.00    +0.295 HD
ENDBRANCH   3   4
ENDBRANCH   1   3
BRANCH   1   6
ATOM      6  C   UNL     1      34.902 -15.395 -23.451  0.00  0.00    +0.000 C 
BRANCH   6   7
ATOM      7  CA  UNL     1      33.595 -15.467 -24.261  0.00  0.00    +0.036 C 
BRANCH   7   8
ATOM      8  N   UNL     1      32.867 -14.198 -24.232  0.00  0.00    +0.389 N 
ATOM      9  H1  UNL     1      32.167 -14.224 -23.492  0.00  0.00    -0.088 HD
ATOM     10  H2  UNL     1      32.406 -14.050 -25.130  0.00  0.00    -0.088 HD
ATOM     11  H3  UNL     1      33.521 -13.436 -24.056  0.00  0.00    -0.088 HD
ENDBRANCH   7   8
BRANCH   7  13
ATOM     12  OXT UNL     1      33.445 -15.213 -26.690  0.00  0.00    -0.253 OA
ATOM     13  C   UNL     1      33.912 -15.776 -25.711  0.00  0.00    +0.293 C 
BRANCH  13  14
ATOM     14  O   UNL     1      34.803 -16.799 -25.792  0.00  0.00    -0.482 OA
ATOM     15  H   UNL     1      34.520 -17.679 -25.645  0.00  0.00    +0.295 HD
ENDBRANCH  13  14
ENDBRANCH   7  13
ENDBRANCH   6   7
ENDBRANCH   1   6
BRANCH   1  16
ATOM     16  C   UNL     1      34.557 -17.801 -22.627  0.00  0.00    +0.037 C 
BRANCH  16  17
ATOM     17  C   UNL     1      34.881 -18.870 -21.611  0.00  0.00    -0.022 C 
ATOM     18  C   UNL     1      33.850 -19.611 -21.054  0.00  0.00    -0.004 C 
ATOM     19  C   UNL     1      36.199 -19.089 -21.256  0.00  0.00    -0.004 C 
ATOM     20  C   UNL     1      34.135 -20.610 -20.107  0.00  0.00    -0.000 C 
ATOM     21  C   UNL     1      35.479 -20.846 -19.734  0.00  0.00    -0.000 C 
ATOM     22  C   UNL     1      36.499 -20.077 -20.317  0.00  0.00    -0.000 C 
ATOM     23  C   UNL     1      33.114 -21.378 -19.524  0.00  0.00    -0.000 C 
ATOM     24  C   UNL     1      35.763 -21.843 -18.788  0.00  0.00    -0.000 C 
ATOM     25  C   UNL     1      33.415 -22.365 -18.586  0.00  0.00    -0.000 C 
ATOM     26  C   UNL     1      34.737 -22.598 -18.218  0.00  0.00    -0.000 C 
ENDBRANCH  16  17
ENDBRANCH   1  16
TORSDOF 9
ENDMDL
MODEL 4
REMARK VINA RESULT:      -9.4      4.439      6.847
REMARK  Name = 9817372
REMARK  9 active torsions:
REMARK  status: ('A' for Active; 'I' for Inactive)
REMARK    1  A    between atoms: C_1  and  C_3
REMARK    2  A    between atoms: C_1  and  C_6
REMARK    3  A    between atoms: C_1  and  C_16
REMARK    4  A    between atoms: C_3  and  O_4
REMARK    5  A    between atoms: C_6  and  CA_7
REMARK    6  A    between atoms: CA_7  and  N_8
REMARK    7  A    between atoms: CA_7  and  C_13
REMARK    8  A    between atoms: C_13  and  O_14
REMARK    9  A    between atoms: C_16  and  C_17
REMARK                            x       y       z     vdW  Elec       q    Type
REMARK                         _______ _______ _______ _____ _____    ______ ____
ROOT
ATOM      1  C   UNL     1      31.397 -22.914 -14.833  0.00  0.00    +0.102 C 
ENDROOT
BRANCH   1   3
ATOM      2  O   UNL     1      30.705 -24.281 -12.932  0.00  0.00    -0.250 OA
ATOM      3  C   UNL     1      31.518 -23.519 -13.441  0.00  0.00    +0.314 C 
BRANCH   3   4
ATOM      4  O   UNL     1      32.642 -23.107 -12.798  0.00  0.00    -0.480 OA
ATOM      5  H   UNL     1      32.606 -22.885 -11.888  0.00  0.00    +0.295 HD
ENDBRANCH   3   4
ENDBRANCH   1   3
BRANCH   1   6
ATOM      6  C   UNL     1      29.928 -22.598 -15.189  0.00  0.00    +0.000 C 
BRANCH   6   7
ATOM      7  CA  UNL     1      29.252 -23.634 -16.105  0.00  0.00    +0.036 C 
BRANCH   7   8
ATOM      8  N   UNL     1      28.623 -24.710 -15.338  0.00  0.00    +0.389 N 
ATOM      9  H1  UNL     1      29.248 -25.001 -14.587  0.00  0.00    -0.088 HD
ATOM     10  H2  UNL     1      28.438 -25.503 -15.953  0.00  0.00    -0.088 HD
ATOM     11  H3  UNL     1      27.746 -24.375 -14.940  0.00  0.00    -0.088 HD
ENDBRANCH   7   8
BRANCH   7  13
ATOM     12  OXT UNL     1      27.859 -21.776 -16.881  0.00  0.00    -0.253 OA
ATOM     13  C   UNL     1      28.163 -22.961 -16.918  0.00  0.00    +0.293 C 
BRANCH  13  14
ATOM     14  O   UNL     1      27.539 -23.867 -17.715  0.00  0.00    -0.482 OA
ATOM     15  H   UNL     1      26.605 -23.859 -17.790  0.00  0.00    +0.295 HD
ENDBRANCH  13  14
ENDBRANCH   7  13
ENDBRANCH   6   7
ENDBRANCH   1   6
BRANCH   1  16
ATOM     16  C   UNL     1      32.076 -23.820 -15.884  0.00  0.00    +0.037 C 
BRANCH  16  17
ATOM     17  C   UNL     1      33.270 -23.227 -16.593  0.00  0.00    -0.022 C 
ATOM     18  C   UNL     1      33.097 -22.630 -17.831  0.00  0.00    -0.004 C 
ATOM     19  C   UNL     1      34.514 -23.292 -15.993  0.00  0.00    -0.004 C 
ATOM     20  C   UNL     1      34.198 -22.073 -18.504  0.00  0.00    -0.000 C 
ATOM     21  C   UNL     1      35.477 -22.131 -17.902  0.00  0.00    -0.000 C 
ATOM     22  C   UNL     1      35.618 -22.745 -16.646  0.00  0.00    -0.000 C 
ATOM     23  C   UNL     1      34.056 -21.460 -19.759  0.00  0.00    -0.000 C 
ATOM     24  C   UNL     1      36.578 -21.576 -18.574  0.00  0.00    -0.000 C 
ATOM     25  C   UNL     1      35.161 -20.913 -20.412  0.00  0.00    -0.000 C 
ATOM     26  C   UNL     1      36.419 -20.971 -19.821  0.00  0.00    -0.000 C 
ENDBRANCH  16  17
ENDBRANCH   1  16
TORSDOF 9
ENDMDL
MODEL 5
REMARK VINA RESULT:      -9.3      7.738     10.828
REMARK  Name = 9817372
REMARK  9 active torsions:
REMARK  status: ('A' for Active; 'I' for Inactive)
REMARK    1  A    between atoms: C_1  and  C_3
REMARK    2  A    between atoms: C_1  and  C_6
REMARK    3  A    between atoms: C_1  and  C_16
REMARK    4  A    between atoms: C_3  and  O_4
REMARK    5  A    between atoms: C_6  and  CA_7
REMARK    6  A    between atoms: CA_7  and  N_8
REMARK    7  A    between atoms: CA_7  and  C_13
REMARK    8  A    between atoms: C_13  and  O_14
REMARK    9  A    between atoms: C_16  and  C_17
REMARK                            x       y       z     vdW  Elec       q    Type
REMARK                         _______ _______ _______ _____ _____    ______ ____
ROOT
ATOM      1  C   UNL     1      34.551 -16.817 -23.572  0.00  0.00    +0.102 C 
ENDROOT
BRANCH   1   3
ATOM      2  O   UNL     1      34.199 -16.109 -25.882  0.00  0.00    -0.250 OA
ATOM      3  C   UNL     1      34.362 -17.012 -25.070  0.00  0.00    +0.314 C 
BRANCH   3   4
ATOM      4  O   UNL     1      34.376 -18.324 -25.423  0.00  0.00    -0.480 OA
ATOM      5  H   UNL     1      34.622 -18.975 -24.796  0.00  0.00    +0.295 HD
ENDBRANCH   3   4
ENDBRANCH   1   3
BRANCH   1   6
ATOM      6  C   UNL     1      34.944 -15.363 -23.233  0.00  0.00    +0.000 C 
BRANCH   6   7
ATOM      7  CA  UNL     1      33.984 -14.646 -22.266  0.00  0.00    +0.036 C 
BRANCH   7   8
ATOM      8  N   UNL     1      32.620 -14.596 -22.793  0.00  0.00    +0.389 N 
ATOM      9  H1  UNL     1      31.963 -14.858 -22.059  0.00  0.00    -0.088 HD
ATOM     10  H2  UNL     1      32.533 -15.247 -23.574  0.00  0.00    -0.088 HD
ATOM     11  H3  UNL     1      32.414 -13.650 -23.113  0.00  0.00    -0.088 HD
ENDBRANCH   7   8
BRANCH   7  13
ATOM     12  OXT UNL     1      34.884 -15.627 -20.213  0.00  0.00    -0.253 OA
ATOM     13  C   UNL     1      33.936 -15.395 -20.949  0.00  0.00    +0.293 C 
BRANCH  13  14
ATOM     14  O   UNL     1      32.666 -15.800 -20.682  0.00  0.00    -0.482 OA
ATOM     15  H   UNL     1      32.503 -16.395 -19.977  0.00  0.00    +0.295 HD
ENDBRANCH  13  14
ENDBRANCH   7  13
ENDBRANCH   6   7
ENDBRANCH   1   6
BRANCH   1  16
ATOM     16  C   UNL     1      35.558 -17.845 -23.010  0.00  0.00    +0.037 C 
BRANCH  16  17
ATOM     17  C   UNL     1      35.004 -18.834 -22.012  0.00  0.00    -0.022 C 
ATOM     18  C   UNL     1      35.877 -19.532 -21.193  0.00  0.00    -0.004 C 
ATOM     19  C   UNL     1      33.636 -19.024 -21.935  0.00  0.00    -0.004 C 
ATOM     20  C   UNL     1      35.377 -20.456 -20.259  0.00  0.00    -0.000 C 
ATOM     21  C   UNL     1      33.980 -20.660 -20.168  0.00  0.00    -0.000 C 
ATOM     22  C   UNL     1      33.124 -19.937 -21.014  0.00  0.00    -0.000 C 
ATOM     23  C   UNL     1      36.234 -21.180 -19.414  0.00  0.00    -0.000 C 
ATOM     24  C   UNL     1      33.481 -21.584 -19.235  0.00  0.00    -0.000 C 
ATOM     25  C   UNL     1      35.721 -22.092 -18.493  0.00  0.00    -0.000 C 
ATOM     26  C   UNL     1      34.347 -22.295 -18.404  0.00  0.00    -0.000 C 
ENDBRANCH  16  17
ENDBRANCH   1  16
TORSDOF 9
ENDMDL
MODEL 6
REMARK VINA RESULT:      -9.2      3.615      6.180
REMARK  Name = 9817372
REMARK  9 active torsions:
REMARK  status: ('A' for Active; 'I' for Inactive)
REMARK    1  A    between atoms: C_1  and  C_3
REMARK    2  A    between atoms: C_1  and  C_6
REMARK    3  A    between atoms: C_1  and  C_16
REMARK    4  A    between atoms: C_3  and  O_4
REMARK    5  A    between atoms: C_6  and  CA_7
REMARK    6  A    between atoms: CA_7  and  N_8
REMARK    7  A    between atoms: CA_7  and  C_13
REMARK    8  A    between atoms: C_13  and  O_14
REMARK    9  A    between atoms: C_16  and  C_17
REMARK                            x       y       z     vdW  Elec       q    Type
REMARK                         _______ _______ _______ _____ _____    ______ ____
ROOT
ATOM      1  C   UNL     1      33.558 -23.253 -15.844  0.00  0.00    +0.102 C 
ENDROOT
BRANCH   1   3
ATOM      2  O   UNL     1      35.457 -24.777 -15.662  0.00  0.00    -0.250 OA
ATOM      3  C   UNL     1      34.380 -24.379 -15.233  0.00  0.00    +0.314 C 
BRANCH   3   4
ATOM      4  O   UNL     1      33.777 -24.923 -14.144  0.00  0.00    -0.480 OA
ATOM      5  H   UNL     1      33.732 -24.439 -13.342  0.00  0.00    +0.295 HD
ENDBRANCH   3   4
ENDBRANCH   1   3
BRANCH   1   6
ATOM      6  C   UNL     1      32.214 -23.066 -15.106  0.00  0.00    +0.000 C 
BRANCH   6   7
ATOM      7  CA  UNL     1      31.021 -23.799 -15.747  0.00  0.00    +0.036 C 
BRANCH   7   8
ATOM      8  N   UNL     1      30.575 -24.927 -14.929  0.00  0.00    +0.389 N 
ATOM      9  H1  UNL     1      30.831 -25.801 -15.387  0.00  0.00    -0.088 HD
ATOM     10  H2  UNL     1      29.561 -24.887 -14.819  0.00  0.00    -0.088 HD
ATOM     11  H3  UNL     1      31.019 -24.880 -14.013  0.00  0.00    -0.088 HD
ENDBRANCH   7   8
BRANCH   7  13
ATOM     12  OXT UNL     1      29.126 -22.456 -14.978  0.00  0.00    -0.253 OA
ATOM     13  C   UNL     1      29.851 -22.845 -15.882  0.00  0.00    +0.293 C 
BRANCH  13  14
ATOM     14  O   UNL     1      29.695 -22.469 -17.179  0.00  0.00    -0.482 OA
ATOM     15  H   UNL     1      30.347 -21.939 -17.594  0.00  0.00    +0.295 HD
ENDBRANCH  13  14
ENDBRANCH   7  13
ENDBRANCH   6   7
ENDBRANCH   1   6
BRANCH   1  16
ATOM     16  C   UNL     1      33.370 -23.474 -17.361  0.00  0.00    +0.037 C 
BRANCH  16  17
ATOM     17  C   UNL     1      34.069 -22.486 -18.264  0.00  0.00    -0.022 C 
ATOM     18  C   UNL     1      33.322 -21.742 -19.162  0.00  0.00    -0.004 C 
ATOM     19  C   UNL     1      35.442 -22.343 -18.176  0.00  0.00    -0.004 C 
ATOM     20  C   UNL     1      33.958 -20.817 -20.009  0.00  0.00    -0.000 C 
ATOM     21  C   UNL     1      35.361 -20.660 -19.930  0.00  0.00    -0.000 C 
ATOM     22  C   UNL     1      36.089 -21.430 -19.009  0.00  0.00    -0.000 C 
ATOM     23  C   UNL     1      33.229 -20.047 -20.930  0.00  0.00    -0.000 C 
ATOM     24  C   UNL     1      35.996 -19.736 -20.777  0.00  0.00    -0.000 C 
ATOM     25  C   UNL     1      33.877 -19.134 -21.763  0.00  0.00    -0.000 C 
ATOM     26  C   UNL     1      35.257 -18.979 -21.687  0.00  0.00    -0.000 C 
ENDBRANCH  16  17
ENDBRANCH   1  16
TORSDOF 9
ENDMDL
MODEL 7
REMARK VINA RESULT:      -9.1      2.143      3.317
REMARK  Name = 9817372
REMARK  9 active torsions:
REMARK  status: ('A' for Active; 'I' for Inactive)
REMARK    1  A    between atoms: C_1  and  C_3
REMARK    2  A    between atoms: C_1  and  C_6
REMARK    3  A    between atoms: C_1  and  C_16
REMARK    4  A    between atoms: C_3  and  O_4
REMARK    5  A    between atoms: C_6  and  CA_7
REMARK    6  A    between atoms: CA_7  and  N_8
REMARK    7  A    between atoms: CA_7  and  C_13
REMARK    8  A    between atoms: C_13  and  O_14
REMARK    9  A    between atoms: C_16  and  C_17
REMARK                            x       y       z     vdW  Elec       q    Type
REMARK                         _______ _______ _______ _____ _____    ______ ____
ROOT
ATOM      1  C   UNL     1      36.455 -24.767 -14.980  0.00  0.00    +0.102 C 
ENDROOT
BRANCH   1   3
ATOM      2  O   UNL     1      36.196 -26.911 -16.118  0.00  0.00    -0.250 OA
ATOM      3  C   UNL     1      36.458 -26.285 -15.099  0.00  0.00    +0.314 C 
BRANCH   3   4
ATOM      4  O   UNL     1      36.775 -26.891 -13.925  0.00  0.00    -0.480 OA
ATOM      5  H   UNL     1      36.383 -27.713 -13.701  0.00  0.00    +0.295 HD
ENDBRANCH   3   4
ENDBRANCH   1   3
BRANCH   1   6
ATOM      6  C   UNL     1      37.182 -24.295 -13.702  0.00  0.00    +0.000 C 
BRANCH   6   7
ATOM      7  CA  UNL     1      36.252 -23.802 -12.578  0.00  0.00    +0.036 C 
BRANCH   7   8
ATOM      8  N   UNL     1      35.432 -24.886 -12.037  0.00  0.00    +0.389 N 
ATOM      9  H1  UNL     1      35.782 -25.780 -12.379  0.00  0.00    -0.088 HD
ATOM     10  H2  UNL     1      34.465 -24.763 -12.337  0.00  0.00    -0.088 HD
ATOM     11  H3  UNL     1      35.477 -24.870 -11.018  0.00  0.00    -0.088 HD
ENDBRANCH   7   8
BRANCH   7  13
ATOM     12  OXT UNL     1      38.014 -22.461 -11.534  0.00  0.00    -0.253 OA
ATOM     13  C   UNL     1      37.083 -23.248 -11.437  0.00  0.00    +0.293 C 
BRANCH  13  14
ATOM     14  O   UNL     1      36.657 -23.758 -10.251  0.00  0.00    -0.482 OA
ATOM     15  H   UNL     1      37.128 -24.460  -9.847  0.00  0.00    +0.295 HD
ENDBRANCH  13  14
ENDBRANCH   7  13
ENDBRANCH   6   7
ENDBRANCH   1   6
BRANCH   1  16
ATOM     16  C   UNL     1      35.016 -24.214 -15.076  0.00  0.00    +0.037 C 
BRANCH  16  17
ATOM     17  C   UNL     1      34.690 -23.436 -16.329  0.00  0.00    -0.022 C 
ATOM     18  C   UNL     1      35.705 -22.767 -16.994  0.00  0.00    -0.004 C 
ATOM     19  C   UNL     1      33.386 -23.407 -16.787  0.00  0.00    -0.004 C 
ATOM     20  C   UNL     1      35.419 -22.039 -18.162  0.00  0.00    -0.000 C 
ATOM     21  C   UNL     1      34.089 -22.001 -18.644  0.00  0.00    -0.000 C 
ATOM     22  C   UNL     1      33.085 -22.689 -17.945  0.00  0.00    -0.000 C 
ATOM     23  C   UNL     1      36.424 -21.350 -18.861  0.00  0.00    -0.000 C 
ATOM     24  C   UNL     1      33.803 -21.273 -19.811  0.00  0.00    -0.000 C 
ATOM     25  C   UNL     1      36.121 -20.633 -20.018  0.00  0.00    -0.000 C 
ATOM     26  C   UNL     1      34.814 -20.594 -20.492  0.00  0.00    -0.000 C 
ENDBRANCH  16  17
ENDBRANCH   1  16
TORSDOF 9
ENDMDL
MODEL 8
REMARK VINA RESULT:      -9.1      8.681     11.510
REMARK  Name = 9817372
REMARK  9 active torsions:
REMARK  status: ('A' for Active; 'I' for Inactive)
REMARK    1  A    between atoms: C_1  and  C_3
REMARK    2  A    between atoms: C_1  and  C_6
REMARK    3  A    between atoms: C_1  and  C_16
REMARK    4  A    between atoms: C_3  and  O_4
REMARK    5  A    between atoms: C_6  and  CA_7
REMARK    6  A    between atoms: CA_7  and  N_8
REMARK    7  A    between atoms: CA_7  and  C_13
REMARK    8  A    between atoms: C_13  and  O_14
REMARK    9  A    between atoms: C_16  and  C_17
REMARK                            x       y       z     vdW  Elec       q    Type
REMARK                         _______ _______ _______ _____ _____    ______ ____
ROOT
ATOM      1  C   UNL     1      34.516 -15.697 -22.614  0.00  0.00    +0.102 C 
ENDROOT
BRANCH   1   3
ATOM      2  O   UNL     1      34.889 -15.512 -20.208  0.00  0.00    -0.250 OA
ATOM      3  C   UNL     1      34.116 -15.672 -21.145  0.00  0.00    +0.314 C 
BRANCH   3   4
ATOM      4  O   UNL     1      32.783 -15.863 -20.973  0.00  0.00    -0.480 OA
ATOM      5  H   UNL     1      32.476 -16.498 -20.355  0.00  0.00    +0.295 HD
ENDBRANCH   3   4
ENDBRANCH   1   3
BRANCH   1   6
ATOM      6  C   UNL     1      33.636 -14.751 -23.460  0.00  0.00    +0.000 C 
BRANCH   6   7
ATOM      7  CA  UNL     1      33.824 -13.254 -23.153  0.00  0.00    +0.036 C 
BRANCH   7   8
ATOM      8  N   UNL     1      34.209 -12.499 -24.346  0.00  0.00    +0.389 N 
ATOM      9  H1  UNL     1      35.075 -12.880 -24.725  0.00  0.00    -0.088 HD
ATOM     10  H2  UNL     1      34.349 -11.519 -24.098  0.00  0.00    -0.088 HD
ATOM     11  H3  UNL     1      33.471 -12.571 -25.046  0.00  0.00    -0.088 HD
ENDBRANCH   7   8
BRANCH   7  13
ATOM     12  OXT UNL     1      32.255 -11.483 -22.527  0.00  0.00    -0.253 OA
ATOM     13  C   UNL     1      32.519 -12.671 -22.649  0.00  0.00    +0.293 C 
BRANCH  13  14
ATOM     14  O   UNL     1      31.650 -13.665 -22.328  0.00  0.00    -0.482 OA
ATOM     15  H   UNL     1      31.844 -14.246 -21.619  0.00  0.00    +0.295 HD
ENDBRANCH  13  14
ENDBRANCH   7  13
ENDBRANCH   6   7
ENDBRANCH   1   6
BRANCH   1  16
ATOM     16  C   UNL     1      34.513 -17.144 -23.156  0.00  0.00    +0.037 C 
BRANCH  16  17
ATOM     17  C   UNL     1      34.923 -18.217 -22.176  0.00  0.00    -0.022 C 
ATOM     18  C   UNL     1      33.950 -19.033 -21.619  0.00  0.00    -0.004 C 
ATOM     19  C   UNL     1      36.259 -18.365 -21.853  0.00  0.00    -0.004 C 
ATOM     20  C   UNL     1      34.315 -20.037 -20.705  0.00  0.00    -0.000 C 
ATOM     21  C   UNL     1      35.678 -20.200 -20.365  0.00  0.00    -0.000 C 
ATOM     22  C   UNL     1      36.637 -19.357 -20.947  0.00  0.00    -0.000 C 
ATOM     23  C   UNL     1      33.355 -20.881 -20.123  0.00  0.00    -0.000 C 
ATOM     24  C   UNL     1      36.041 -21.203 -19.452  0.00  0.00    -0.000 C 
ATOM     25  C   UNL     1      33.734 -21.871 -19.218  0.00  0.00    -0.000 C 
ATOM     26  C   UNL     1      35.075 -22.033 -18.882  0.00  0.00    -0.000 C 
ENDBRANCH  16  17
ENDBRANCH   1  16
TORSDOF 9
ENDMDL
MODEL 9
REMARK VINA RESULT:      -9.0      3.757      5.844
REMARK  Name = 9817372
REMARK  9 active torsions:
REMARK  status: ('A' for Active; 'I' for Inactive)
REMARK    1  A    between atoms: C_1  and  C_3
REMARK    2  A    between atoms: C_1  and  C_6
REMARK    3  A    between atoms: C_1  and  C_16
REMARK    4  A    between atoms: C_3  and  O_4
REMARK    5  A    between atoms: C_6  and  CA_7
REMARK    6  A    between atoms: CA_7  and  N_8
REMARK    7  A    between atoms: CA_7  and  C_13
REMARK    8  A    between atoms: C_13  and  O_14
REMARK    9  A    between atoms: C_16  and  C_17
REMARK                            x       y       z     vdW  Elec       q    Type
REMARK                         _______ _______ _______ _____ _____    ______ ____
ROOT
ATOM      1  C   UNL     1      33.511 -23.216 -16.425  0.00  0.00    +0.102 C 
ENDROOT
BRANCH   1   3
ATOM      2  O   UNL     1      35.916 -23.505 -16.115  0.00  0.00    -0.250 OA
ATOM      3  C   UNL     1      34.771 -23.731 -15.742  0.00  0.00    +0.314 C 
BRANCH   3   4
ATOM      4  O   UNL     1      34.490 -24.499 -14.658  0.00  0.00    -0.480 OA
ATOM      5  H   UNL     1      34.155 -24.103 -13.877  0.00  0.00    +0.295 HD
ENDBRANCH   3   4
ENDBRANCH   1   3
BRANCH   1   6
ATOM      6  C   UNL     1      32.235 -23.791 -15.773  0.00  0.00    +0.000 C 
BRANCH   6   7
ATOM      7  CA  UNL     1      31.539 -22.844 -14.778  0.00  0.00    +0.036 C 
BRANCH   7   8
ATOM      8  N   UNL     1      30.141 -22.609 -15.139  0.00  0.00    +0.389 N 
ATOM      9  H1  UNL     1      29.938 -21.612 -15.080  0.00  0.00    -0.088 HD
ATOM     10  H2  UNL     1      29.533 -23.118 -14.497  0.00  0.00    -0.088 HD
ATOM     11  H3  UNL     1      29.977 -22.933 -16.092  0.00  0.00    -0.088 HD
ENDBRANCH   7   8
BRANCH   7  13
ATOM     12  OXT UNL     1      30.740 -24.262 -12.950  0.00  0.00    -0.253 OA
ATOM     13  C   UNL     1      31.552 -23.463 -13.394  0.00  0.00    +0.293 C 
BRANCH  13  14
ATOM     14  O   UNL     1      32.609 -22.996 -12.678  0.00  0.00    -0.482 OA
ATOM     15  H   UNL     1      33.174 -22.347 -13.047  0.00  0.00    +0.295 HD
ENDBRANCH  13  14
ENDBRANCH   7  13
ENDBRANCH   6   7
ENDBRANCH   1   6
BRANCH   1  16
ATOM     16  C   UNL     1      33.566 -23.482 -17.946  0.00  0.00    +0.037 C 
BRANCH  16  17
ATOM     17  C   UNL     1      33.845 -22.281 -18.817  0.00  0.00    -0.022 C 
ATOM     18  C   UNL     1      35.158 -21.919 -19.072  0.00  0.00    -0.004 C 
ATOM     19  C   UNL     1      32.785 -21.565 -19.343  0.00  0.00    -0.004 C 
ATOM     20  C   UNL     1      35.435 -20.804 -19.881  0.00  0.00    -0.000 C 
ATOM     21  C   UNL     1      34.361 -20.062 -20.427  0.00  0.00    -0.000 C 
ATOM     22  C   UNL     1      33.042 -20.455 -20.148  0.00  0.00    -0.000 C 
ATOM     23  C   UNL     1      36.754 -20.411 -20.160  0.00  0.00    -0.000 C 
ATOM     24  C   UNL     1      34.638 -18.947 -21.235  0.00  0.00    -0.000 C 
ATOM     25  C   UNL     1      37.010 -19.301 -20.965  0.00  0.00    -0.000 C 
ATOM     26  C   UNL     1      35.955 -18.570 -21.502  0.00  0.00    -0.000 C 
ENDBRANCH  16  17
ENDBRANCH   1  16
TORSDOF 9
ENDMDL
