MODEL 1
REMARK VINA RESULT:     -11.0      0.000      0.000
REMARK  Name = 24894155
REMARK  3 active torsions:
REMARK  status: ('A' for Active; 'I' for Inactive)
REMARK    1  A    between atoms: C_1  and  C_6
REMARK    2  A    between atoms: C_1  and  O_15
REMARK    3  A    between atoms: O_15  and  C_23
REMARK                            x       y       z     vdW  Elec       q    Type
REMARK                         _______ _______ _______ _____ _____    ______ ____
ROOT
ATOM      1  C   UNL     1      33.835 -23.163 -16.956  0.00  0.00    +0.233 C 
ENDROOT
BRANCH   1   6
ATOM      2  S   UNL     1      37.356 -25.809 -12.784  0.00  0.00    -0.081 S 
ATOM      3  O   UNL     1      36.377 -22.395 -14.389  0.00  0.00    -0.473 OA
ATOM      4  N   UNL     1      35.055 -24.903 -15.862  0.00  0.00    -0.250 NA
ATOM      5  N   UNL     1      36.112 -26.844 -15.323  0.00  0.00    -0.342 N 
ATOM      6  C   UNL     1      34.698 -23.497 -15.741  0.00  0.00    +0.191 C 
ATOM      7  C   UNL     1      35.955 -22.639 -15.725  0.00  0.00    +0.233 C 
ATOM      8  C   UNL     1      36.803 -23.476 -13.690  0.00  0.00    +0.148 C 
ATOM      9  C   UNL     1      36.601 -24.816 -13.986  0.00  0.00    +0.094 C 
ATOM     10  C   UNL     1      35.899 -25.500 -15.079  0.00  0.00    +0.130 C 
ATOM     11  C   UNL     1      37.530 -23.283 -12.477  0.00  0.00    +0.044 C 
ATOM     12  C   UNL     1      37.895 -24.467 -11.887  0.00  0.00    +0.039 C 
ATOM     13  H   UNL     1      35.635 -27.293 -16.057  0.00  0.00    +0.144 HD
ATOM     14  H   UNL     1      36.741 -27.354 -14.761  0.00  0.00    +0.144 HD
ENDBRANCH   1   6
BRANCH   1  15
ATOM     15  O   UNL     1      34.662 -23.153 -18.104  0.00  0.00    -0.473 OA
BRANCH  15  23
ATOM     16  N   UNL     1      36.630 -18.677 -21.805  0.00  0.00    +0.387 N 
ATOM     17  C   UNL     1      34.314 -19.864 -20.649  0.00  0.00    -0.030 C 
ATOM     18  C   UNL     1      34.185 -18.699 -21.596  0.00  0.00    +0.003 C 
ATOM     19  C   UNL     1      35.585 -20.287 -20.218  0.00  0.00    -0.045 C 
ATOM     20  C   UNL     1      35.446 -17.834 -21.642  0.00  0.00    -0.077 C 
ATOM     21  C   UNL     1      36.824 -19.526 -20.625  0.00  0.00    -0.054 C 
ATOM     22  C   UNL     1      35.690 -21.386 -19.355  0.00  0.00    +0.030 C 
ATOM     23  C   UNL     1      34.548 -22.073 -18.946  0.00  0.00    +0.138 C 
ATOM     24  C   UNL     1      33.174 -20.567 -20.241  0.00  0.00    -0.002 C 
ATOM     25  C   UNL     1      33.292 -21.667 -19.390  0.00  0.00    +0.037 C 
ATOM     26  H   UNL     1      37.450 -18.082 -21.929  0.00  0.00    -0.084 HD
ATOM     27  H   UNL     1      36.500 -19.272 -22.623  0.00  0.00    -0.084 HD
ENDBRANCH  15  23
ENDBRANCH   1  15
TORSDOF 3
ENDMDL
MODEL 2
REMARK VINA RESULT:     -10.6      9.481     14.075
REMARK  Name = 24894155
REMARK  3 active torsions:
REMARK  status: ('A' for Active; 'I' for Inactive)
REMARK    1  A    between atoms: C_1  and  C_6
REMARK    2  A    between atoms: C_1  and  O_15
REMARK    3  A    between atoms: O_15  and  C_23
REMARK                            x       y       z     vdW  Elec       q    Type
REMARK                         _______ _______ _______ _____ _____    ______ ____
ROOT
ATOM      1  C   UNL     1      31.571 -11.845 -21.243  0.00  0.00    +0.233 C 
ENDROOT
BRANCH   1   6
ATOM      2  S   UNL     1      31.913  -5.816 -21.824  0.00  0.00    -0.081 S 
ATOM      3  O   UNL     1      31.792  -9.179 -23.790  0.00  0.00    -0.473 OA
ATOM      4  N   UNL     1      32.008  -9.578 -20.627  0.00  0.00    -0.250 NA
ATOM      5  N   UNL     1      32.697  -7.674 -19.588  0.00  0.00    -0.342 N 
ATOM      6  C   UNL     1      31.496 -10.395 -21.717  0.00  0.00    +0.191 C 
ATOM      7  C   UNL     1      32.347 -10.195 -22.963  0.00  0.00    +0.233 C 
ATOM      8  C   UNL     1      31.798  -7.923 -23.278  0.00  0.00    +0.148 C 
ATOM      9  C   UNL     1      31.986  -7.542 -21.958  0.00  0.00    +0.094 C 
ATOM     10  C   UNL     1      32.223  -8.302 -20.725  0.00  0.00    +0.130 C 
ATOM     11  C   UNL     1      31.559  -6.814 -24.144  0.00  0.00    +0.044 C 
ATOM     12  C   UNL     1      31.600  -5.612 -23.484  0.00  0.00    +0.039 C 
ATOM     13  H   UNL     1      32.851  -8.194 -18.766  0.00  0.00    +0.144 HD
ATOM     14  H   UNL     1      32.878  -6.706 -19.598  0.00  0.00    +0.144 HD
ENDBRANCH   1   6
BRANCH   1  15
ATOM     15  O   UNL     1      31.954 -12.656 -22.337  0.00  0.00    -0.473 OA
BRANCH  15  23
ATOM     16  N   UNL     1      35.774 -17.303 -23.527  0.00  0.00    +0.387 N 
ATOM     17  C   UNL     1      34.236 -16.045 -21.488  0.00  0.00    -0.030 C 
ATOM     18  C   UNL     1      35.087 -17.247 -21.172  0.00  0.00    +0.003 C 
ATOM     19  C   UNL     1      34.083 -15.617 -22.819  0.00  0.00    -0.045 C 
ATOM     20  C   UNL     1      35.344 -18.126 -22.398  0.00  0.00    -0.077 C 
ATOM     21  C   UNL     1      34.693 -16.407 -23.952  0.00  0.00    -0.054 C 
ATOM     22  C   UNL     1      33.306 -14.484 -23.095  0.00  0.00    +0.030 C 
ATOM     23  C   UNL     1      32.710 -13.768 -22.058  0.00  0.00    +0.138 C 
ATOM     24  C   UNL     1      33.642 -15.313 -20.453  0.00  0.00    -0.002 C 
ATOM     25  C   UNL     1      32.879 -14.180 -20.738  0.00  0.00    +0.037 C 
ATOM     26  H   UNL     1      36.031 -17.910 -24.306  0.00  0.00    -0.084 HD
ATOM     27  H   UNL     1      36.575 -16.741 -23.240  0.00  0.00    -0.084 HD
ENDBRANCH  15  23
ENDBRANCH   1  15
TORSDOF 3
ENDMDL
MODEL 3
REMARK VINA RESULT:     -10.5      4.276      9.285
REMARK  Name = 24894155
REMARK  3 active torsions:
REMARK  status: ('A' for Active; 'I' for Inactive)
REMARK    1  A    between atoms: C_1  and  C_6
REMARK    2  A    between atoms: C_1  and  O_15
REMARK    3  A    between atoms: O_15  and  C_23
REMARK                            x       y       z     vdW  Elec       q    Type
REMARK                         _______ _______ _______ _____ _____    ______ ____
ROOT
ATOM      1  C   UNL     1      35.963 -19.580 -20.626  0.00  0.00    +0.233 C 
ENDROOT
BRANCH   1   6
ATOM      2  S   UNL     1      33.543 -14.689 -23.277  0.00  0.00    -0.081 S 
ATOM      3  O   UNL     1      35.411 -18.045 -23.940  0.00  0.00    -0.473 OA
ATOM      4  N   UNL     1      35.151 -17.342 -20.834  0.00  0.00    -0.250 NA
ATOM      5  N   UNL     1      34.641 -15.148 -20.511  0.00  0.00    -0.342 N 
ATOM      6  C   UNL     1      35.312 -18.580 -21.581  0.00  0.00    +0.191 C 
ATOM      7  C   UNL     1      36.200 -18.345 -22.795  0.00  0.00    +0.233 C 
ATOM      8  C   UNL     1      34.725 -16.876 -23.902  0.00  0.00    +0.148 C 
ATOM      9  C   UNL     1      34.443 -16.089 -22.795  0.00  0.00    +0.094 C 
ATOM     10  C   UNL     1      34.757 -16.227 -21.368  0.00  0.00    +0.130 C 
ATOM     11  C   UNL     1      34.171 -16.349 -25.108  0.00  0.00    +0.044 C 
ATOM     12  C   UNL     1      33.510 -15.164 -24.911  0.00  0.00    +0.039 C 
ATOM     13  H   UNL     1      34.853 -15.253 -19.556  0.00  0.00    +0.144 HD
ATOM     14  H   UNL     1      34.345 -14.274 -20.856  0.00  0.00    +0.144 HD
ENDBRANCH   1   6
BRANCH   1  15
ATOM     15  O   UNL     1      35.204 -20.774 -20.643  0.00  0.00    -0.473 OA
BRANCH  15  23
ATOM     16  N   UNL     1      36.938 -22.731 -15.096  0.00  0.00    +0.387 N 
ATOM     17  C   UNL     1      34.875 -22.877 -17.053  0.00  0.00    -0.030 C 
ATOM     18  C   UNL     1      34.739 -23.609 -15.743  0.00  0.00    +0.003 C 
ATOM     19  C   UNL     1      36.081 -22.230 -17.380  0.00  0.00    -0.045 C 
ATOM     20  C   UNL     1      36.092 -23.924 -15.101  0.00  0.00    -0.077 C 
ATOM     21  C   UNL     1      37.278 -22.336 -16.467  0.00  0.00    -0.054 C 
ATOM     22  C   UNL     1      36.185 -21.535 -18.593  0.00  0.00    +0.030 C 
ATOM     23  C   UNL     1      35.094 -21.462 -19.458  0.00  0.00    +0.138 C 
ATOM     24  C   UNL     1      33.783 -22.789 -17.925  0.00  0.00    -0.002 C 
ATOM     25  C   UNL     1      33.894 -22.085 -19.125  0.00  0.00    +0.037 C 
ATOM     26  H   UNL     1      37.796 -22.931 -14.582  0.00  0.00    -0.084 HD
ATOM     27  H   UNL     1      36.430 -21.968 -14.648  0.00  0.00    -0.084 HD
ENDBRANCH  15  23
ENDBRANCH   1  15
TORSDOF 3
ENDMDL
MODEL 4
REMARK VINA RESULT:     -10.5      6.305     11.077
REMARK  Name = 24894155
REMARK  3 active torsions:
REMARK  status: ('A' for Active; 'I' for Inactive)
REMARK    1  A    between atoms: C_1  and  C_6
REMARK    2  A    between atoms: C_1  and  O_15
REMARK    3  A    between atoms: O_15  and  C_23
REMARK                            x       y       z     vdW  Elec       q    Type
REMARK                         _______ _______ _______ _____ _____    ______ ____
ROOT
ATOM      1  C   UNL     1      34.880 -15.947 -22.863  0.00  0.00    +0.233 C 
ENDROOT
BRANCH   1   6
ATOM      2  S   UNL     1      32.314 -10.450 -22.932  0.00  0.00    -0.081 S 
ATOM      3  O   UNL     1      32.239 -13.953 -21.223  0.00  0.00    -0.473 OA
ATOM      4  N   UNL     1      34.230 -13.812 -23.718  0.00  0.00    -0.250 NA
ATOM      5  N   UNL     1      33.791 -12.013 -25.039  0.00  0.00    -0.342 N 
ATOM      6  C   UNL     1      34.160 -14.643 -22.525  0.00  0.00    +0.191 C 
ATOM      7  C   UNL     1      32.707 -14.913 -22.162  0.00  0.00    +0.233 C 
ATOM      8  C   UNL     1      32.153 -12.675 -21.668  0.00  0.00    +0.148 C 
ATOM      9  C   UNL     1      32.738 -12.125 -22.800  0.00  0.00    +0.094 C 
ATOM     10  C   UNL     1      33.603 -12.684 -23.845  0.00  0.00    +0.130 C 
ATOM     11  C   UNL     1      31.409 -11.719 -20.912  0.00  0.00    +0.044 C 
ATOM     12  C   UNL     1      31.410 -10.475 -21.490  0.00  0.00    +0.039 C 
ATOM     13  H   UNL     1      34.375 -12.396 -25.733  0.00  0.00    +0.144 HD
ATOM     14  H   UNL     1      33.343 -11.150 -25.196  0.00  0.00    +0.144 HD
ENDBRANCH   1   6
BRANCH   1  15
ATOM     15  O   UNL     1      34.031 -17.028 -22.529  0.00  0.00    -0.473 OA
BRANCH  15  23
ATOM     16  N   UNL     1      34.109 -22.324 -19.438  0.00  0.00    +0.387 N 
ATOM     17  C   UNL     1      35.725 -20.175 -20.376  0.00  0.00    -0.030 C 
ATOM     18  C   UNL     1      36.345 -21.329 -19.629  0.00  0.00    +0.003 C 
ATOM     19  C   UNL     1      34.327 -20.079 -20.495  0.00  0.00    -0.045 C 
ATOM     20  C   UNL     1      35.347 -22.041 -18.713  0.00  0.00    -0.077 C 
ATOM     21  C   UNL     1      33.429 -21.076 -19.803  0.00  0.00    -0.054 C 
ATOM     22  C   UNL     1      33.767 -19.013 -21.211  0.00  0.00    +0.030 C 
ATOM     23  C   UNL     1      34.588 -18.068 -21.825  0.00  0.00    +0.138 C 
ATOM     24  C   UNL     1      36.541 -19.227 -21.004  0.00  0.00    -0.002 C 
ATOM     25  C   UNL     1      35.974 -18.175 -21.724  0.00  0.00    +0.037 C 
ATOM     26  H   UNL     1      33.493 -22.880 -18.845  0.00  0.00    -0.084 HD
ATOM     27  H   UNL     1      34.336 -22.838 -20.289  0.00  0.00    -0.084 HD
ENDBRANCH  15  23
ENDBRANCH   1  15
TORSDOF 3
ENDMDL
MODEL 5
REMARK VINA RESULT:     -10.2      4.981     10.199
REMARK  Name = 24894155
REMARK  3 active torsions:
REMARK  status: ('A' for Active; 'I' for Inactive)
REMARK    1  A    between atoms: C_1  and  C_6
REMARK    2  A    between atoms: C_1  and  O_15
REMARK    3  A    between atoms: O_15  and  C_23
REMARK                            x       y       z     vdW  Elec       q    Type
REMARK                         _______ _______ _______ _____ _____    ______ ____
ROOT
ATOM      1  C   UNL     1      34.900 -19.355 -22.582  0.00  0.00    +0.233 C 
ENDROOT
BRANCH   1   6
ATOM      2  S   UNL     1      33.273 -13.732 -24.177  0.00  0.00    -0.081 S 
ATOM      3  O   UNL     1      34.174 -17.270 -25.543  0.00  0.00    -0.473 OA
ATOM      4  N   UNL     1      34.607 -16.991 -22.390  0.00  0.00    -0.250 NA
ATOM      5  N   UNL     1      34.683 -14.810 -21.744  0.00  0.00    -0.342 N 
ATOM      6  C   UNL     1      34.349 -18.113 -23.280  0.00  0.00    +0.191 C 
ATOM      7  C   UNL     1      35.051 -17.893 -24.613  0.00  0.00    +0.233 C 
ATOM      8  C   UNL     1      33.793 -16.002 -25.248  0.00  0.00    +0.148 C 
ATOM      9  C   UNL     1      33.892 -15.344 -24.031  0.00  0.00    +0.094 C 
ATOM     10  C   UNL     1      34.399 -15.753 -22.715  0.00  0.00    +0.130 C 
ATOM     11  C   UNL     1      33.184 -15.201 -26.260  0.00  0.00    +0.044 C 
ATOM     12  C   UNL     1      32.859 -13.946 -25.813  0.00  0.00    +0.039 C 
ATOM     13  H   UNL     1      35.021 -15.096 -20.865  0.00  0.00    +0.144 HD
ATOM     14  H   UNL     1      34.544 -13.853 -21.930  0.00  0.00    +0.144 HD
ENDBRANCH   1   6
BRANCH   1  15
ATOM     15  O   UNL     1      33.937 -19.810 -21.651  0.00  0.00    -0.473 OA
BRANCH  15  23
ATOM     16  N   UNL     1      33.653 -23.716 -16.931  0.00  0.00    +0.387 N 
ATOM     17  C   UNL     1      35.344 -21.894 -18.321  0.00  0.00    -0.030 C 
ATOM     18  C   UNL     1      35.865 -22.672 -17.140  0.00  0.00    +0.003 C 
ATOM     19  C   UNL     1      33.981 -21.955 -18.662  0.00  0.00    -0.045 C 
ATOM     20  C   UNL     1      34.752 -23.106 -16.184  0.00  0.00    -0.077 C 
ATOM     21  C   UNL     1      33.009 -22.724 -17.800  0.00  0.00    -0.054 C 
ATOM     22  C   UNL     1      33.516 -21.243 -19.776  0.00  0.00    +0.030 C 
ATOM     23  C   UNL     1      34.401 -20.501 -20.558  0.00  0.00    +0.138 C 
ATOM     24  C   UNL     1      36.226 -21.155 -19.118  0.00  0.00    -0.002 C 
ATOM     25  C   UNL     1      35.754 -20.459 -20.232  0.00  0.00    +0.037 C 
ATOM     26  H   UNL     1      32.964 -24.084 -16.275  0.00  0.00    -0.084 HD
ATOM     27  H   UNL     1      34.026 -24.469 -17.510  0.00  0.00    -0.084 HD
ENDBRANCH  15  23
ENDBRANCH   1  15
TORSDOF 3
ENDMDL
MODEL 6
REMARK VINA RESULT:     -10.2      3.315      5.178
REMARK  Name = 24894155
REMARK  3 active torsions:
REMARK  status: ('A' for Active; 'I' for Inactive)
REMARK    1  A    between atoms: C_1  and  C_6
REMARK    2  A    between atoms: C_1  and  O_15
REMARK    3  A    between atoms: O_15  and  C_23
REMARK                            x       y       z     vdW  Elec       q    Type
REMARK                         _______ _______ _______ _____ _____    ______ ____
ROOT
ATOM      1  C   UNL     1      34.166 -20.059 -21.256  0.00  0.00    +0.233 C 
ENDROOT
BRANCH   1   6
ATOM      2  S   UNL     1      35.301 -23.112 -16.137  0.00  0.00    -0.081 S 
ATOM      3  O   UNL     1      36.882 -20.831 -18.875  0.00  0.00    -0.473 OA
ATOM      4  N   UNL     1      33.878 -21.694 -19.537  0.00  0.00    -0.250 NA
ATOM      5  N   UNL     1      33.224 -23.479 -18.286  0.00  0.00    -0.342 N 
ATOM      6  C   UNL     1      34.716 -20.571 -19.926  0.00  0.00    +0.191 C 
ATOM      7  C   UNL     1      36.160 -21.027 -20.084  0.00  0.00    +0.233 C 
ATOM      8  C   UNL     1      36.494 -21.589 -17.819  0.00  0.00    +0.148 C 
ATOM      9  C   UNL     1      35.311 -22.297 -17.666  0.00  0.00    +0.094 C 
ATOM     10  C   UNL     1      34.133 -22.466 -18.525  0.00  0.00    +0.130 C 
ATOM     11  C   UNL     1      37.348 -21.690 -16.679  0.00  0.00    +0.044 C 
ATOM     12  C   UNL     1      36.823 -22.491 -15.697  0.00  0.00    +0.039 C 
ATOM     13  H   UNL     1      32.436 -23.582 -18.868  0.00  0.00    +0.144 HD
ATOM     14  H   UNL     1      33.361 -24.097 -17.531  0.00  0.00    +0.144 HD
ENDBRANCH   1   6
BRANCH   1  15
ATOM     15  O   UNL     1      35.217 -19.430 -21.964  0.00  0.00    -0.473 OA
BRANCH  15  23
ATOM     16  N   UNL     1      34.181 -13.646 -23.720  0.00  0.00    +0.387 N 
ATOM     17  C   UNL     1      34.151 -16.360 -24.582  0.00  0.00    -0.030 C 
ATOM     18  C   UNL     1      33.800 -15.250 -25.539  0.00  0.00    +0.003 C 
ATOM     19  C   UNL     1      34.361 -16.080 -23.219  0.00  0.00    -0.045 C 
ATOM     20  C   UNL     1      33.290 -13.997 -24.825  0.00  0.00    -0.077 C 
ATOM     21  C   UNL     1      34.148 -14.684 -22.683  0.00  0.00    -0.054 C 
ATOM     22  C   UNL     1      34.708 -17.119 -22.346  0.00  0.00    +0.030 C 
ATOM     23  C   UNL     1      34.871 -18.418 -22.826  0.00  0.00    +0.138 C 
ATOM     24  C   UNL     1      34.328 -17.665 -25.056  0.00  0.00    -0.002 C 
ATOM     25  C   UNL     1      34.685 -18.691 -24.180  0.00  0.00    +0.037 C 
ATOM     26  H   UNL     1      33.881 -12.759 -23.315  0.00  0.00    -0.084 HD
ATOM     27  H   UNL     1      35.133 -13.566 -24.077  0.00  0.00    -0.084 HD
ENDBRANCH  15  23
ENDBRANCH   1  15
TORSDOF 3
ENDMDL
MODEL 7
REMARK VINA RESULT:     -10.1      1.559      2.169
REMARK  Name = 24894155
REMARK  3 active torsions:
REMARK  status: ('A' for Active; 'I' for Inactive)
REMARK    1  A    between atoms: C_1  and  C_6
REMARK    2  A    between atoms: C_1  and  O_15
REMARK    3  A    between atoms: O_15  and  C_23
REMARK                            x       y       z     vdW  Elec       q    Type
REMARK                         _______ _______ _______ _____ _____    ______ ____
ROOT
ATOM      1  C   UNL     1      33.511 -23.104 -17.393  0.00  0.00    +0.233 C 
ENDROOT
BRANCH   1   6
ATOM      2  S   UNL     1      37.679 -24.561 -13.232  0.00  0.00    -0.081 S 
ATOM      3  O   UNL     1      33.896 -23.801 -13.786  0.00  0.00    -0.473 OA
ATOM      4  N   UNL     1      35.673 -23.314 -16.397  0.00  0.00    -0.250 NA
ATOM      5  N   UNL     1      37.885 -23.156 -15.887  0.00  0.00    -0.342 N 
ATOM      6  C   UNL     1      34.269 -23.622 -16.172  0.00  0.00    +0.191 C 
ATOM      7  C   UNL     1      33.780 -22.932 -14.906  0.00  0.00    +0.233 C 
ATOM      8  C   UNL     1      35.159 -24.134 -13.418  0.00  0.00    +0.148 C 
ATOM      9  C   UNL     1      36.326 -23.996 -14.155  0.00  0.00    +0.094 C 
ATOM     10  C   UNL     1      36.598 -23.484 -15.504  0.00  0.00    +0.130 C 
ATOM     11  C   UNL     1      35.381 -24.730 -12.140  0.00  0.00    +0.044 C 
ATOM     12  C   UNL     1      36.704 -25.006 -11.911  0.00  0.00    +0.039 C 
ATOM     13  H   UNL     1      38.057 -22.814 -16.795  0.00  0.00    +0.144 HD
ATOM     14  H   UNL     1      38.632 -23.264 -15.254  0.00  0.00    +0.144 HD
ENDBRANCH   1   6
BRANCH   1  15
ATOM     15  O   UNL     1      34.322 -23.292 -18.537  0.00  0.00    -0.473 OA
BRANCH  15  23
ATOM     16  N   UNL     1      33.667 -17.865 -21.316  0.00  0.00    +0.387 N 
ATOM     17  C   UNL     1      35.549 -19.876 -20.595  0.00  0.00    -0.030 C 
ATOM     18  C   UNL     1      36.000 -18.626 -21.307  0.00  0.00    +0.003 C 
ATOM     19  C   UNL     1      34.178 -20.126 -20.404  0.00  0.00    -0.045 C 
ATOM     20  C   UNL     1      34.880 -17.978 -22.123  0.00  0.00    -0.077 C 
ATOM     21  C   UNL     1      33.142 -19.195 -20.987  0.00  0.00    -0.054 C 
ATOM     22  C   UNL     1      33.776 -21.281 -19.721  0.00  0.00    +0.030 C 
ATOM     23  C   UNL     1      34.726 -22.165 -19.210  0.00  0.00    +0.138 C 
ATOM     24  C   UNL     1      36.495 -20.764 -20.069  0.00  0.00    -0.002 C 
ATOM     25  C   UNL     1      36.084 -21.906 -19.381  0.00  0.00    +0.037 C 
ATOM     26  H   UNL     1      32.961 -17.347 -21.841  0.00  0.00    -0.084 HD
ATOM     27  H   UNL     1      33.891 -17.375 -20.450  0.00  0.00    -0.084 HD
ENDBRANCH  15  23
ENDBRANCH   1  15
TORSDOF 3
ENDMDL
MODEL 8
REMARK VINA RESULT:     -10.0      7.912     11.868
REMARK  Name = 24894155
REMARK  3 active torsions:
REMARK  status: ('A' for Active; 'I' for Inactive)
REMARK    1  A    between atoms: C_1  and  C_6
REMARK    2  A    between atoms: C_1  and  O_15
REMARK    3  A    between atoms: O_15  and  C_23
REMARK                            x       y       z     vdW  Elec       q    Type
REMARK                         _______ _______ _______ _____ _____    ______ ____
ROOT
ATOM      1  C   UNL     1      32.642 -13.368 -23.269  0.00  0.00    +0.233 C 
ENDROOT
BRANCH   1   6
ATOM      2  S   UNL     1      35.349 -18.798 -23.324  0.00  0.00    -0.081 S 
ATOM      3  O   UNL     1      34.550 -15.686 -21.117  0.00  0.00    -0.473 OA
ATOM      4  N   UNL     1      33.696 -15.313 -24.173  0.00  0.00    -0.250 NA
ATOM      5  N   UNL     1      34.717 -16.837 -25.520  0.00  0.00    -0.342 N 
ATOM      6  C   UNL     1      33.249 -14.726 -22.919  0.00  0.00    +0.191 C 
ATOM      7  C   UNL     1      34.429 -14.557 -21.972  0.00  0.00    +0.233 C 
ATOM      8  C   UNL     1      34.877 -16.857 -21.717  0.00  0.00    +0.148 C 
ATOM      9  C   UNL     1      34.811 -17.171 -23.067  0.00  0.00    +0.094 C 
ATOM     10  C   UNL     1      34.388 -16.408 -24.247  0.00  0.00    +0.130 C 
ATOM     11  C   UNL     1      35.324 -17.953 -20.918  0.00  0.00    +0.044 C 
ATOM     12  C   UNL     1      35.619 -19.064 -21.665  0.00  0.00    +0.039 C 
ATOM     13  H   UNL     1      34.427 -16.318 -26.305  0.00  0.00    +0.144 HD
ATOM     14  H   UNL     1      35.241 -17.662 -25.643  0.00  0.00    +0.144 HD
ENDBRANCH   1   6
BRANCH   1  15
ATOM     15  O   UNL     1      33.524 -12.695 -24.146  0.00  0.00    -0.473 OA
BRANCH  15  23
ATOM     16  N   UNL     1      32.275  -7.175 -21.785  0.00  0.00    +0.387 N 
ATOM     17  C   UNL     1      33.874  -8.562 -23.690  0.00  0.00    -0.030 C 
ATOM     18  C   UNL     1      34.026  -7.074 -23.502  0.00  0.00    +0.003 C 
ATOM     19  C   UNL     1      32.845  -9.257 -23.028  0.00  0.00    -0.045 C 
ATOM     20  C   UNL     1      32.764  -6.420 -22.938  0.00  0.00    -0.077 C 
ATOM     21  C   UNL     1      31.829  -8.511 -22.196  0.00  0.00    -0.054 C 
ATOM     22  C   UNL     1      32.729 -10.643 -23.196  0.00  0.00    +0.030 C 
ATOM     23  C   UNL     1      33.643 -11.335 -23.991  0.00  0.00    +0.138 C 
ATOM     24  C   UNL     1      34.791  -9.267 -24.478  0.00  0.00    -0.002 C 
ATOM     25  C   UNL     1      34.674 -10.650 -24.629  0.00  0.00    +0.037 C 
ATOM     26  H   UNL     1      31.491  -6.675 -21.364  0.00  0.00    -0.084 HD
ATOM     27  H   UNL     1      33.033  -7.273 -21.110  0.00  0.00    -0.084 HD
ENDBRANCH  15  23
ENDBRANCH   1  15
TORSDOF 3
ENDMDL
MODEL 9
REMARK VINA RESULT:     -10.0      7.961     11.635
REMARK  Name = 24894155
REMARK  3 active torsions:
REMARK  status: ('A' for Active; 'I' for Inactive)
REMARK    1  A    between atoms: C_1  and  C_6
REMARK    2  A    between atoms: C_1  and  O_15
REMARK    3  A    between atoms: O_15  and  C_23
REMARK                            x       y       z     vdW  Elec       q    Type
REMARK                         _______ _______ _______ _____ _____    ______ ____
ROOT
ATOM      1  C   UNL     1      32.332 -13.365 -22.732  0.00  0.00    +0.233 C 
ENDROOT
BRANCH   1   6
ATOM      2  S   UNL     1      35.379 -18.565 -23.439  0.00  0.00    -0.081 S 
ATOM      3  O   UNL     1      34.518 -15.724 -20.913  0.00  0.00    -0.473 OA
ATOM      4  N   UNL     1      33.453 -15.144 -23.869  0.00  0.00    -0.250 NA
ATOM      5  N   UNL     1      34.485 -16.467 -25.406  0.00  0.00    -0.342 N 
ATOM      6  C   UNL     1      33.047 -14.703 -22.543  0.00  0.00    +0.191 C 
ATOM      7  C   UNL     1      34.270 -14.535 -21.653  0.00  0.00    +0.233 C 
ATOM      8  C   UNL     1      34.882 -16.812 -21.637  0.00  0.00    +0.148 C 
ATOM      9  C   UNL     1      34.753 -17.009 -23.003  0.00  0.00    +0.094 C 
ATOM     10  C   UNL     1      34.208 -16.177 -24.083  0.00  0.00    +0.130 C 
ATOM     11  C   UNL     1      35.448 -17.939 -20.968  0.00  0.00    +0.044 C 
ATOM     12  C   UNL     1      35.768 -18.957 -21.830  0.00  0.00    +0.039 C 
ATOM     13  H   UNL     1      34.114 -15.902 -26.122  0.00  0.00    +0.144 HD
ATOM     14  H   UNL     1      35.052 -17.239 -25.633  0.00  0.00    +0.144 HD
ENDBRANCH   1   6
BRANCH   1  15
ATOM     15  O   UNL     1      31.723 -13.007 -21.506  0.00  0.00    -0.473 OA
BRANCH  15  23
ATOM     16  N   UNL     1      31.608  -6.935 -22.362  0.00  0.00    +0.387 N 
ATOM     17  C   UNL     1      31.906  -8.985 -20.408  0.00  0.00    -0.030 C 
ATOM     18  C   UNL     1      31.937  -7.533 -20.005  0.00  0.00    +0.003 C 
ATOM     19  C   UNL     1      31.870  -9.340 -21.769  0.00  0.00    -0.045 C 
ATOM     20  C   UNL     1      32.360  -6.613 -21.151  0.00  0.00    -0.077 C 
ATOM     21  C   UNL     1      31.953  -8.279 -22.839  0.00  0.00    -0.054 C 
ATOM     22  C   UNL     1      31.819 -10.694 -22.128  0.00  0.00    +0.030 C 
ATOM     23  C   UNL     1      31.777 -11.682 -21.145  0.00  0.00    +0.138 C 
ATOM     24  C   UNL     1      31.853  -9.985 -19.429  0.00  0.00    -0.002 C 
ATOM     25  C   UNL     1      31.792 -11.329 -19.798  0.00  0.00    +0.037 C 
ATOM     26  H   UNL     1      31.832  -6.254 -23.088  0.00  0.00    -0.084 HD
ATOM     27  H   UNL     1      30.611  -6.906 -22.148  0.00  0.00    -0.084 HD
ENDBRANCH  15  23
ENDBRANCH   1  15
TORSDOF 3
ENDMDL
