MODEL 1
REMARK VINA RESULT:      -7.1      0.000      0.000
REMARK  Name = 3032285
REMARK  5 active torsions:
REMARK  status: ('A' for Active; 'I' for Inactive)
REMARK    1  A    between atoms: C_6  and  C_12
REMARK    2  A    between atoms: C_6  and  C_17
REMARK    3  A    between atoms: C_12  and  C_14
REMARK    4  A    between atoms: C_14  and  C_15
REMARK    5  A    between atoms: C_17  and  C_18
REMARK                            x       y       z     vdW  Elec       q    Type
REMARK                         _______ _______ _______ _____ _____    ______ ____
ROOT
ATOM      1  S   UNL     1      31.199 -11.737 -20.703  0.00  0.00    -0.018 S 
ATOM      2  O   UNL     1      33.089  -7.219 -19.973  0.00  0.00    -0.274 OA
ATOM      3  O   UNL     1      31.040  -8.143 -24.105  0.00  0.00    -0.274 OA
ATOM      4  N   UNL     1      32.283  -9.314 -20.446  0.00  0.00    -0.267 N 
ATOM      5  N   UNL     1      31.260  -9.776 -22.508  0.00  0.00    -0.267 N 
ATOM      6  C   UNL     1      32.600  -7.730 -22.294  0.00  0.00    +0.142 C 
ATOM      7  C   UNL     1      32.666  -8.029 -20.798  0.00  0.00    +0.235 C 
ATOM      8  C   UNL     1      31.547  -8.533 -23.054  0.00  0.00    +0.235 C 
ATOM      9  C   UNL     1      31.614 -10.213 -21.249  0.00  0.00    +0.143 C 
ATOM     10  H   UNL     1      32.510  -9.613 -19.536  0.00  0.00    +0.157 HD
ATOM     11  H   UNL     1      30.757 -10.404 -23.074  0.00  0.00    +0.157 HD
ENDROOT
BRANCH   6  12
ATOM     12  C   UNL     1      33.968  -8.108 -22.888  0.00  0.00    +0.017 C 
ATOM     13  C   UNL     1      34.456  -6.991 -23.815  0.00  0.00    +0.001 C 
BRANCH  12  14
ATOM     14  C   UNL     1      33.929  -9.441 -23.659  0.00  0.00    +0.001 C 
BRANCH  14  15
ATOM     15  C   UNL     1      35.113  -9.631 -24.610  0.00  0.00    +0.000 C 
ATOM     16  C   UNL     1      34.871 -10.784 -25.573  0.00  0.00    +0.000 C 
ENDBRANCH  14  15
ENDBRANCH  12  14
ENDBRANCH   6  12
BRANCH   6  17
ATOM     17  C   UNL     1      32.351  -6.230 -22.506  0.00  0.00    +0.043 C 
BRANCH  17  18
ATOM     18  C   UNL     1      31.069  -5.811 -21.868  0.00  0.00    -0.025 C 
ATOM     19  C   UNL     1      30.435  -4.669 -22.158  0.00  0.00    -0.005 C 
ENDBRANCH  17  18
ENDBRANCH   6  17
TORSDOF 5
ENDMDL
MODEL 2
REMARK VINA RESULT:      -6.9     17.157     19.072
REMARK  Name = 3032285
REMARK  5 active torsions:
REMARK  status: ('A' for Active; 'I' for Inactive)
REMARK    1  A    between atoms: C_6  and  C_12
REMARK    2  A    between atoms: C_6  and  C_17
REMARK    3  A    between atoms: C_12  and  C_14
REMARK    4  A    between atoms: C_14  and  C_15
REMARK    5  A    between atoms: C_17  and  C_18
REMARK                            x       y       z     vdW  Elec       q    Type
REMARK                         _______ _______ _______ _____ _____    ______ ____
ROOT
ATOM      1  S   UNL     1      32.325 -24.160 -13.907  0.00  0.00    -0.018 S 
ATOM      2  O   UNL     1      36.561 -26.003 -15.689  0.00  0.00    -0.274 OA
ATOM      3  O   UNL     1      36.280 -25.099 -11.081  0.00  0.00    -0.274 OA
ATOM      4  N   UNL     1      34.680 -25.046 -14.788  0.00  0.00    -0.267 N 
ATOM      5  N   UNL     1      34.540 -24.595 -12.489  0.00  0.00    -0.267 N 
ATOM      6  C   UNL     1      36.746 -25.059 -13.462  0.00  0.00    +0.142 C 
ATOM      7  C   UNL     1      36.008 -25.444 -14.742  0.00  0.00    +0.235 C 
ATOM      8  C   UNL     1      35.855 -24.950 -12.226  0.00  0.00    +0.235 C 
ATOM      9  C   UNL     1      33.926 -24.605 -13.723  0.00  0.00    +0.143 C 
ATOM     10  H   UNL     1      34.234 -25.083 -15.665  0.00  0.00    +0.157 HD
ATOM     11  H   UNL     1      33.995 -24.308 -11.720  0.00  0.00    +0.157 HD
ENDROOT
BRANCH   6  12
ATOM     12  C   UNL     1      37.357 -23.665 -13.697  0.00  0.00    +0.017 C 
ATOM     13  C   UNL     1      37.264 -22.837 -12.413  0.00  0.00    +0.001 C 
BRANCH  12  14
ATOM     14  C   UNL     1      36.674 -22.910 -14.852  0.00  0.00    +0.001 C 
BRANCH  14  15
ATOM     15  C   UNL     1      37.633 -22.528 -15.982  0.00  0.00    +0.000 C 
ATOM     16  C   UNL     1      36.881 -21.972 -17.183  0.00  0.00    +0.000 C 
ENDBRANCH  14  15
ENDBRANCH  12  14
ENDBRANCH   6  12
BRANCH   6  17
ATOM     17  C   UNL     1      37.870 -26.068 -13.195  0.00  0.00    +0.043 C 
BRANCH  17  18
ATOM     18  C   UNL     1      39.202 -25.472 -13.505  0.00  0.00    -0.025 C 
ATOM     19  C   UNL     1      40.019 -25.935 -14.458  0.00  0.00    -0.005 C 
ENDBRANCH  17  18
ENDBRANCH   6  17
TORSDOF 5
ENDMDL
MODEL 3
REMARK VINA RESULT:      -6.0      2.336      3.849
REMARK  Name = 3032285
REMARK  5 active torsions:
REMARK  status: ('A' for Active; 'I' for Inactive)
REMARK    1  A    between atoms: C_6  and  C_12
REMARK    2  A    between atoms: C_6  and  C_17
REMARK    3  A    between atoms: C_12  and  C_14
REMARK    4  A    between atoms: C_14  and  C_15
REMARK    5  A    between atoms: C_17  and  C_18
REMARK                            x       y       z     vdW  Elec       q    Type
REMARK                         _______ _______ _______ _____ _____    ______ ____
ROOT
ATOM      1  S   UNL     1      34.134 -11.790 -25.139  0.00  0.00    -0.018 S 
ATOM      2  O   UNL     1      35.323  -7.428 -23.121  0.00  0.00    -0.274 OA
ATOM      3  O   UNL     1      30.890  -8.946 -22.709  0.00  0.00    -0.274 OA
ATOM      4  N   UNL     1      34.650  -9.382 -24.116  0.00  0.00    -0.267 N 
ATOM      5  N   UNL     1      32.437 -10.140 -23.911  0.00  0.00    -0.267 N 
ATOM      6  C   UNL     1      32.936  -7.806 -23.339  0.00  0.00    +0.142 C 
ATOM      7  C   UNL     1      34.412  -8.173 -23.480  0.00  0.00    +0.235 C 
ATOM      8  C   UNL     1      31.991  -9.002 -23.255  0.00  0.00    +0.235 C 
ATOM      9  C   UNL     1      33.718 -10.366 -24.369  0.00  0.00    +0.143 C 
ATOM     10  H   UNL     1      35.572  -9.554 -24.415  0.00  0.00    +0.157 HD
ATOM     11  H   UNL     1      31.776 -10.853 -24.064  0.00  0.00    +0.157 HD
ENDROOT
BRANCH   6  12
ATOM     12  C   UNL     1      32.548  -7.015 -24.601  0.00  0.00    +0.017 C 
ATOM     13  C   UNL     1      33.733  -6.160 -25.060  0.00  0.00    +0.001 C 
BRANCH  12  14
ATOM     14  C   UNL     1      31.317  -6.117 -24.380  0.00  0.00    +0.001 C 
BRANCH  14  15
ATOM     15  C   UNL     1      31.555  -4.652 -24.750  0.00  0.00    +0.000 C 
ATOM     16  C   UNL     1      31.359  -3.737 -23.550  0.00  0.00    +0.000 C 
ENDBRANCH  14  15
ENDBRANCH  12  14
ENDBRANCH   6  12
BRANCH   6  17
ATOM     17  C   UNL     1      32.746  -6.916 -22.103  0.00  0.00    +0.043 C 
BRANCH  17  18
ATOM     18  C   UNL     1      32.978  -7.693 -20.850  0.00  0.00    -0.025 C 
ATOM     19  C   UNL     1      32.171  -7.640 -19.784  0.00  0.00    -0.005 C 
ENDBRANCH  17  18
ENDBRANCH   6  17
TORSDOF 5
ENDMDL
MODEL 4
REMARK VINA RESULT:      -6.0      1.579      3.871
REMARK  Name = 3032285
REMARK  5 active torsions:
REMARK  status: ('A' for Active; 'I' for Inactive)
REMARK    1  A    between atoms: C_6  and  C_12
REMARK    2  A    between atoms: C_6  and  C_17
REMARK    3  A    between atoms: C_12  and  C_14
REMARK    4  A    between atoms: C_14  and  C_15
REMARK    5  A    between atoms: C_17  and  C_18
REMARK                            x       y       z     vdW  Elec       q    Type
REMARK                         _______ _______ _______ _____ _____    ______ ____
ROOT
ATOM      1  S   UNL     1      31.056 -11.156 -19.375  0.00  0.00    -0.018 S 
ATOM      2  O   UNL     1      33.000  -9.520 -23.626  0.00  0.00    -0.274 OA
ATOM      3  O   UNL     1      33.256  -6.745 -19.837  0.00  0.00    -0.274 OA
ATOM      4  N   UNL     1      32.032 -10.143 -21.641  0.00  0.00    -0.267 N 
ATOM      5  N   UNL     1      32.160  -8.758 -19.750  0.00  0.00    -0.267 N 
ATOM      6  C   UNL     1      32.686  -7.797 -21.946  0.00  0.00    +0.142 C 
ATOM      7  C   UNL     1      32.621  -9.222 -22.493  0.00  0.00    +0.235 C 
ATOM      8  C   UNL     1      32.762  -7.706 -20.424  0.00  0.00    +0.235 C 
ATOM      9  C   UNL     1      31.766  -9.959 -20.301  0.00  0.00    +0.143 C 
ATOM     10  H   UNL     1      31.780 -11.011 -22.030  0.00  0.00    +0.157 HD
ATOM     11  H   UNL     1      31.998  -8.634 -18.786  0.00  0.00    +0.157 HD
ENDROOT
BRANCH   6  12
ATOM     12  C   UNL     1      31.386  -7.093 -22.374  0.00  0.00    +0.017 C 
ATOM     13  C   UNL     1      30.816  -7.774 -23.621  0.00  0.00    +0.001 C 
BRANCH  12  14
ATOM     14  C   UNL     1      31.591  -5.592 -22.651  0.00  0.00    +0.001 C 
BRANCH  14  15
ATOM     15  C   UNL     1      31.000  -5.132 -23.986  0.00  0.00    +0.000 C 
ATOM     16  C   UNL     1      31.917  -4.138 -24.684  0.00  0.00    +0.000 C 
ENDBRANCH  14  15
ENDBRANCH  12  14
ENDBRANCH   6  12
BRANCH   6  17
ATOM     17  C   UNL     1      33.887  -7.066 -22.563  0.00  0.00    +0.043 C 
BRANCH  17  18
ATOM     18  C   UNL     1      34.109  -7.507 -23.972  0.00  0.00    -0.025 C 
ATOM     19  C   UNL     1      34.543  -6.696 -24.943  0.00  0.00    -0.005 C 
ENDBRANCH  17  18
ENDBRANCH   6  17
TORSDOF 5
ENDMDL
MODEL 5
REMARK VINA RESULT:      -6.0     17.494     19.451
REMARK  Name = 3032285
REMARK  5 active torsions:
REMARK  status: ('A' for Active; 'I' for Inactive)
REMARK    1  A    between atoms: C_6  and  C_12
REMARK    2  A    between atoms: C_6  and  C_17
REMARK    3  A    between atoms: C_12  and  C_14
REMARK    4  A    between atoms: C_14  and  C_15
REMARK    5  A    between atoms: C_17  and  C_18
REMARK                            x       y       z     vdW  Elec       q    Type
REMARK                         _______ _______ _______ _____ _____    ______ ____
ROOT
ATOM      1  S   UNL     1      33.369 -24.263 -14.975  0.00  0.00    -0.018 S 
ATOM      2  O   UNL     1      37.968 -22.471 -15.378  0.00  0.00    -0.274 OA
ATOM      3  O   UNL     1      37.400 -27.134 -15.136  0.00  0.00    -0.274 OA
ATOM      4  N   UNL     1      35.887 -23.390 -15.079  0.00  0.00    -0.267 N 
ATOM      5  N   UNL     1      35.603 -25.718 -14.958  0.00  0.00    -0.267 N 
ATOM      6  C   UNL     1      37.862 -24.795 -14.689  0.00  0.00    +0.142 C 
ATOM      7  C   UNL     1      37.272 -23.449 -15.105  0.00  0.00    +0.235 C 
ATOM      8  C   UNL     1      36.962 -25.996 -14.973  0.00  0.00    +0.235 C 
ATOM      9  C   UNL     1      35.029 -24.465 -14.988  0.00  0.00    +0.143 C 
ATOM     10  H   UNL     1      35.478 -22.497 -15.131  0.00  0.00    +0.157 HD
ATOM     11  H   UNL     1      34.992 -26.489 -14.923  0.00  0.00    +0.157 HD
ENDROOT
BRANCH   6  12
ATOM     12  C   UNL     1      38.071 -24.742 -13.165  0.00  0.00    +0.017 C 
ATOM     13  C   UNL     1      37.493 -26.005 -12.520  0.00  0.00    +0.001 C 
BRANCH  12  14
ATOM     14  C   UNL     1      37.433 -23.495 -12.525  0.00  0.00    +0.001 C 
BRANCH  14  15
ATOM     15  C   UNL     1      36.627 -23.803 -11.261  0.00  0.00    +0.000 C 
ATOM     16  C   UNL     1      35.131 -23.778 -11.539  0.00  0.00    +0.000 C 
ENDBRANCH  14  15
ENDBRANCH  12  14
ENDBRANCH   6  12
BRANCH   6  17
ATOM     17  C   UNL     1      39.218 -24.996 -15.381  0.00  0.00    +0.043 C 
BRANCH  17  18
ATOM     18  C   UNL     1      40.280 -25.312 -14.382  0.00  0.00    -0.025 C 
ATOM     19  C   UNL     1      40.844 -26.519 -14.255  0.00  0.00    -0.005 C 
ENDBRANCH  17  18
ENDBRANCH   6  17
TORSDOF 5
ENDMDL
MODEL 6
REMARK VINA RESULT:      -5.9      2.401      3.872
REMARK  Name = 3032285
REMARK  5 active torsions:
REMARK  status: ('A' for Active; 'I' for Inactive)
REMARK    1  A    between atoms: C_6  and  C_12
REMARK    2  A    between atoms: C_6  and  C_17
REMARK    3  A    between atoms: C_12  and  C_14
REMARK    4  A    between atoms: C_14  and  C_15
REMARK    5  A    between atoms: C_17  and  C_18
REMARK                            x       y       z     vdW  Elec       q    Type
REMARK                         _______ _______ _______ _____ _____    ______ ____
ROOT
ATOM      1  S   UNL     1      30.699  -3.969 -22.470  0.00  0.00    -0.018 S 
ATOM      2  O   UNL     1      30.625  -8.802 -23.547  0.00  0.00    -0.274 OA
ATOM      3  O   UNL     1      33.101  -7.383 -19.807  0.00  0.00    -0.274 OA
ATOM      4  N   UNL     1      30.810  -6.573 -23.032  0.00  0.00    -0.267 N 
ATOM      5  N   UNL     1      32.046  -5.865 -21.166  0.00  0.00    -0.267 N 
ATOM      6  C   UNL     1      32.367  -8.156 -21.986  0.00  0.00    +0.142 C 
ATOM      7  C   UNL     1      31.177  -7.905 -22.908  0.00  0.00    +0.235 C 
ATOM      8  C   UNL     1      32.528  -7.131 -20.866  0.00  0.00    +0.235 C 
ATOM      9  C   UNL     1      31.222  -5.538 -22.222  0.00  0.00    +0.143 C 
ATOM     10  H   UNL     1      30.197  -6.347 -23.768  0.00  0.00    +0.157 HD
ATOM     11  H   UNL     1      32.318  -5.132 -20.567  0.00  0.00    +0.157 HD
ENDROOT
BRANCH   6  12
ATOM     12  C   UNL     1      33.635  -8.073 -22.856  0.00  0.00    +0.017 C 
ATOM     13  C   UNL     1      33.478  -6.955 -23.890  0.00  0.00    +0.001 C 
BRANCH  12  14
ATOM     14  C   UNL     1      33.948  -9.401 -23.570  0.00  0.00    +0.001 C 
BRANCH  14  15
ATOM     15  C   UNL     1      35.165  -9.323 -24.495  0.00  0.00    +0.000 C 
ATOM     16  C   UNL     1      35.159 -10.453 -25.514  0.00  0.00    +0.000 C 
ENDBRANCH  14  15
ENDBRANCH  12  14
ENDBRANCH   6  12
BRANCH   6  17
ATOM     17  C   UNL     1      32.258  -9.563 -21.380  0.00  0.00    +0.043 C 
BRANCH  17  18
ATOM     18  C   UNL     1      31.439  -9.540 -20.133  0.00  0.00    -0.025 C 
ATOM     19  C   UNL     1      31.443 -10.522 -19.225  0.00  0.00    -0.005 C 
ENDBRANCH  17  18
ENDBRANCH   6  17
TORSDOF 5
ENDMDL
MODEL 7
REMARK VINA RESULT:      -5.9      9.406     11.283
REMARK  Name = 3032285
REMARK  5 active torsions:
REMARK  status: ('A' for Active; 'I' for Inactive)
REMARK    1  A    between atoms: C_6  and  C_12
REMARK    2  A    between atoms: C_6  and  C_17
REMARK    3  A    between atoms: C_12  and  C_14
REMARK    4  A    between atoms: C_14  and  C_15
REMARK    5  A    between atoms: C_17  and  C_18
REMARK                            x       y       z     vdW  Elec       q    Type
REMARK                         _______ _______ _______ _____ _____    ______ ____
ROOT
ATOM      1  S   UNL     1      36.400 -21.528 -18.493  0.00  0.00    -0.018 S 
ATOM      2  O   UNL     1      32.675 -20.162 -21.454  0.00  0.00    -0.274 OA
ATOM      3  O   UNL     1      36.930 -18.308 -22.217  0.00  0.00    -0.274 OA
ATOM      4  N   UNL     1      34.437 -20.648 -20.069  0.00  0.00    -0.267 N 
ATOM      5  N   UNL     1      36.561 -19.723 -20.449  0.00  0.00    -0.267 N 
ATOM      6  C   UNL     1      34.626 -18.726 -21.583  0.00  0.00    +0.142 C 
ATOM      7  C   UNL     1      33.816 -19.913 -21.067  0.00  0.00    +0.235 C 
ATOM      8  C   UNL     1      36.140 -18.901 -21.483  0.00  0.00    +0.235 C 
ATOM      9  C   UNL     1      35.767 -20.578 -19.714  0.00  0.00    +0.143 C 
ATOM     10  H   UNL     1      33.875 -21.281 -19.566  0.00  0.00    +0.157 HD
ATOM     11  H   UNL     1      37.518 -19.692 -20.217  0.00  0.00    +0.157 HD
ENDROOT
BRANCH   6  12
ATOM     12  C   UNL     1      34.255 -17.515 -20.708  0.00  0.00    +0.017 C 
ATOM     13  C   UNL     1      32.745 -17.271 -20.777  0.00  0.00    +0.001 C 
BRANCH  12  14
ATOM     14  C   UNL     1      35.007 -16.236 -21.120  0.00  0.00    +0.001 C 
BRANCH  14  15
ATOM     15  C   UNL     1      34.108 -15.001 -21.205  0.00  0.00    +0.000 C 
ATOM     16  C   UNL     1      34.290 -14.272 -22.528  0.00  0.00    +0.000 C 
ENDBRANCH  14  15
ENDBRANCH  12  14
ENDBRANCH   6  12
BRANCH   6  17
ATOM     17  C   UNL     1      34.239 -18.437 -23.040  0.00  0.00    +0.043 C 
BRANCH  17  18
ATOM     18  C   UNL     1      34.901 -19.403 -23.965  0.00  0.00    -0.025 C 
ATOM     19  C   UNL     1      34.499 -19.619 -25.223  0.00  0.00    -0.005 C 
ENDBRANCH  17  18
ENDBRANCH   6  17
TORSDOF 5
ENDMDL
MODEL 8
REMARK VINA RESULT:      -5.8      1.497      2.042
REMARK  Name = 3032285
REMARK  5 active torsions:
REMARK  status: ('A' for Active; 'I' for Inactive)
REMARK    1  A    between atoms: C_6  and  C_12
REMARK    2  A    between atoms: C_6  and  C_17
REMARK    3  A    between atoms: C_12  and  C_14
REMARK    4  A    between atoms: C_14  and  C_15
REMARK    5  A    between atoms: C_17  and  C_18
REMARK                            x       y       z     vdW  Elec       q    Type
REMARK                         _______ _______ _______ _____ _____    ______ ____
ROOT
ATOM      1  S   UNL     1      31.600 -11.669 -21.985  0.00  0.00    -0.018 S 
ATOM      2  O   UNL     1      33.451  -7.242 -20.763  0.00  0.00    -0.274 OA
ATOM      3  O   UNL     1      30.376  -7.476 -24.316  0.00  0.00    -0.274 OA
ATOM      4  N   UNL     1      32.623  -9.260 -21.474  0.00  0.00    -0.267 N 
ATOM      5  N   UNL     1      31.089  -9.377 -23.247  0.00  0.00    -0.267 N 
ATOM      6  C   UNL     1      32.359  -7.301 -22.930  0.00  0.00    +0.142 C 
ATOM      7  C   UNL     1      32.846  -7.898 -21.612  0.00  0.00    +0.235 C 
ATOM      8  C   UNL     1      31.167  -8.026 -23.551  0.00  0.00    +0.235 C 
ATOM      9  C   UNL     1      31.792 -10.031 -22.258  0.00  0.00    +0.143 C 
ATOM     10  H   UNL     1      33.103  -9.719 -20.748  0.00  0.00    +0.157 HD
ATOM     11  H   UNL     1      30.472  -9.920 -23.790  0.00  0.00    +0.157 HD
ENDROOT
BRANCH   6  12
ATOM     12  C   UNL     1      33.524  -7.412 -23.930  0.00  0.00    +0.017 C 
ATOM     13  C   UNL     1      34.850  -7.501 -23.171  0.00  0.00    +0.001 C 
BRANCH  12  14
ATOM     14  C   UNL     1      33.569  -6.230 -24.916  0.00  0.00    +0.001 C 
BRANCH  14  15
ATOM     15  C   UNL     1      34.844  -6.189 -25.761  0.00  0.00    +0.000 C 
ATOM     16  C   UNL     1      34.769  -5.106 -26.827  0.00  0.00    +0.000 C 
ENDBRANCH  14  15
ENDBRANCH  12  14
ENDBRANCH   6  12
BRANCH   6  17
ATOM     17  C   UNL     1      32.007  -5.821 -22.722  0.00  0.00    +0.043 C 
BRANCH  17  18
ATOM     18  C   UNL     1      30.800  -5.681 -21.856  0.00  0.00    -0.025 C 
ATOM     19  C   UNL     1      30.094  -4.550 -21.744  0.00  0.00    -0.005 C 
ENDBRANCH  17  18
ENDBRANCH   6  17
TORSDOF 5
ENDMDL
MODEL 9
REMARK VINA RESULT:      -5.7      2.008      3.795
REMARK  Name = 3032285
REMARK  5 active torsions:
REMARK  status: ('A' for Active; 'I' for Inactive)
REMARK    1  A    between atoms: C_6  and  C_12
REMARK    2  A    between atoms: C_6  and  C_17
REMARK    3  A    between atoms: C_12  and  C_14
REMARK    4  A    between atoms: C_14  and  C_15
REMARK    5  A    between atoms: C_17  and  C_18
REMARK                            x       y       z     vdW  Elec       q    Type
REMARK                         _______ _______ _______ _____ _____    ______ ____
ROOT
ATOM      1  S   UNL     1      33.388 -11.742 -23.809  0.00  0.00    -0.018 S 
ATOM      2  O   UNL     1      30.529  -7.751 -24.456  0.00  0.00    -0.274 OA
ATOM      3  O   UNL     1      34.974  -7.113 -23.055  0.00  0.00    -0.274 OA
ATOM      4  N   UNL     1      31.897  -9.542 -24.024  0.00  0.00    -0.267 N 
ATOM      5  N   UNL     1      34.115  -9.223 -23.324  0.00  0.00    -0.267 N 
ATOM      6  C   UNL     1      32.562  -7.326 -23.201  0.00  0.00    +0.142 C 
ATOM      7  C   UNL     1      31.571  -8.195 -23.973  0.00  0.00    +0.235 C 
ATOM      8  C   UNL     1      33.998  -7.846 -23.208  0.00  0.00    +0.235 C 
ATOM      9  C   UNL     1      33.116 -10.096 -23.698  0.00  0.00    +0.143 C 
ATOM     10  H   UNL     1      31.192 -10.160 -24.321  0.00  0.00    +0.157 HD
ATOM     11  H   UNL     1      34.996  -9.613 -23.119  0.00  0.00    +0.157 HD
ENDROOT
BRANCH   6  12
ATOM     12  C   UNL     1      32.097  -7.311 -21.734  0.00  0.00    +0.017 C 
ATOM     13  C   UNL     1      32.168  -5.883 -21.185  0.00  0.00    +0.001 C 
BRANCH  12  14
ATOM     14  C   UNL     1      32.928  -8.251 -20.842  0.00  0.00    +0.001 C 
BRANCH  14  15
ATOM     15  C   UNL     1      32.091  -9.010 -19.810  0.00  0.00    +0.000 C 
ATOM     16  C   UNL     1      31.619 -10.350 -20.356  0.00  0.00    +0.000 C 
ENDBRANCH  14  15
ENDBRANCH  12  14
ENDBRANCH   6  12
BRANCH   6  17
ATOM     17  C   UNL     1      32.533  -5.897 -23.759  0.00  0.00    +0.043 C 
BRANCH  17  18
ATOM     18  C   UNL     1      33.040  -5.865 -25.162  0.00  0.00    -0.025 C 
ATOM     19  C   UNL     1      32.794  -4.866 -26.018  0.00  0.00    -0.005 C 
ENDBRANCH  17  18
ENDBRANCH   6  17
TORSDOF 5
ENDMDL
