MODEL 1
REMARK VINA RESULT:     -11.2      0.000      0.000
REMARK  Name = 46207586
REMARK  7 active torsions:
REMARK  status: ('A' for Active; 'I' for Inactive)
REMARK    1  A    between atoms: C_6  and  C_13
REMARK    2  A    between atoms: C_7  and  C_34
REMARK    3  A    between atoms: C_16  and  N_20
REMARK    4  A    between atoms: N_21  and  C_26
REMARK    5  A    between atoms: N_32  and  C_37
REMARK    6  A    between atoms: C_37  and  C_38
REMARK    7  A    between atoms: C_38  and  O_39
REMARK                            x       y       z     vdW  Elec       q    Type
REMARK                         _______ _______ _______ _____ _____    ______ ____
ROOT
ATOM      1  S   UNL     1      34.120 -15.609 -20.323  0.00  0.00    -0.086 S 
ATOM      2  N   UNL     1      34.163 -16.257 -24.755  0.00  0.00    -0.230 NA
ATOM      3  N   UNL     1      33.324 -14.065 -25.039  0.00  0.00    -0.343 N 
ATOM      4  C   UNL     1      33.752 -14.934 -22.792  0.00  0.00    +0.038 C 
ATOM      5  C   UNL     1      34.191 -15.999 -22.000  0.00  0.00    +0.034 C 
ATOM      6  C   UNL     1      33.365 -13.813 -21.984  0.00  0.00    +0.010 C 
ATOM      7  C   UNL     1      34.620 -17.203 -22.575  0.00  0.00    +0.028 C 
ATOM      8  C   UNL     1      33.752 -15.101 -24.185  0.00  0.00    +0.126 C 
ATOM      9  C   UNL     1      33.515 -14.047 -20.637  0.00  0.00    +0.036 C 
ATOM     10  C   UNL     1      34.578 -17.258 -23.956  0.00  0.00    +0.101 C 
ATOM     11  H   UNL     1      33.328 -14.196 -26.015  0.00  0.00    +0.144 HD
ATOM     12  H   UNL     1      33.018 -13.209 -24.659  0.00  0.00    +0.144 HD
ENDROOT
BRANCH   6  13
ATOM     13  C   UNL     1      32.862 -12.533 -22.416  0.00  0.00    +0.001 C 
ATOM     14  C   UNL     1      31.677 -12.030 -21.879  0.00  0.00    +0.001 C 
ATOM     15  C   UNL     1      33.562 -11.796 -23.372  0.00  0.00    +0.001 C 
ATOM     16  C   UNL     1      31.892 -10.055 -23.254  0.00  0.00    +0.052 C 
ATOM     17  C   UNL     1      31.192 -10.791 -22.298  0.00  0.00    +0.015 C 
ATOM     18  C   UNL     1      33.077 -10.557 -23.791  0.00  0.00    +0.015 C 
BRANCH  16  20
ATOM     19  O   UNL     1      33.237  -7.390 -23.344  0.00  0.00    -0.252 OA
ATOM     20  N   UNL     1      31.407  -8.815 -23.672  0.00  0.00    -0.268 N 
ATOM     21  N   UNL     1      31.218  -6.574 -24.194  0.00  0.00    -0.268 N 
ATOM     22  C   UNL     1      32.077  -7.568 -23.700  0.00  0.00    +0.308 C 
ATOM     23  H   UNL     1      30.475  -8.806 -23.989  0.00  0.00    +0.156 HD
ATOM     24  H   UNL     1      30.312  -6.869 -24.441  0.00  0.00    +0.156 HD
BRANCH  21  26
ATOM     25  F   UNL     1      31.185  -2.049 -22.588  0.00  0.00    -0.204 F 
ATOM     26  C   UNL     1      31.494  -5.198 -24.383  0.00  0.00    +0.054 C 
ATOM     27  C   UNL     1      31.198  -4.284 -23.372  0.00  0.00    +0.044 C 
ATOM     28  C   UNL     1      32.060  -4.758 -25.579  0.00  0.00    +0.015 C 
ATOM     29  C   UNL     1      31.468  -2.927 -23.558  0.00  0.00    +0.141 C 
ATOM     30  C   UNL     1      32.331  -3.402 -25.764  0.00  0.00    +0.004 C 
ATOM     31  C   UNL     1      32.035  -2.487 -24.754  0.00  0.00    +0.030 C 
ENDBRANCH  21  26
ENDBRANCH  16  20
ENDBRANCH   6  13
BRANCH   7  34
ATOM     32  N   UNL     1      35.060 -20.124 -20.573  0.00  0.00    -0.208 N 
ATOM     33  N   UNL     1      36.361 -19.787 -20.614  0.00  0.00    -0.176 NA
ATOM     34  C   UNL     1      35.074 -18.303 -21.780  0.00  0.00    +0.039 C 
ATOM     35  C   UNL     1      34.248 -19.267 -21.255  0.00  0.00    +0.086 C 
ATOM     36  C   UNL     1      36.362 -18.675 -21.354  0.00  0.00    +0.119 C 
BRANCH  32  37
ATOM     37  C   UNL     1      34.649 -21.301 -19.847  0.00  0.00    +0.148 C 
BRANCH  37  38
ATOM     38  C   UNL     1      33.171 -21.265 -19.473  0.00  0.00    +0.161 C 
BRANCH  38  39
ATOM     39  O   UNL     1      32.841 -22.419 -18.710  0.00  0.00    -0.380 OA
ATOM     40  H   UNL     1      32.669 -23.164 -19.307  0.00  0.00    +0.211 HD
ENDBRANCH  38  39
ENDBRANCH  37  38
ENDBRANCH  32  37
ENDBRANCH   7  34
TORSDOF 7
ENDMDL
MODEL 2
REMARK VINA RESULT:     -10.9      5.596      9.354
REMARK  Name = 46207586
REMARK  7 active torsions:
REMARK  status: ('A' for Active; 'I' for Inactive)
REMARK    1  A    between atoms: C_6  and  C_13
REMARK    2  A    between atoms: C_7  and  C_34
REMARK    3  A    between atoms: C_16  and  N_20
REMARK    4  A    between atoms: N_21  and  C_26
REMARK    5  A    between atoms: N_32  and  C_37
REMARK    6  A    between atoms: C_37  and  C_38
REMARK    7  A    between atoms: C_38  and  O_39
REMARK                            x       y       z     vdW  Elec       q    Type
REMARK                         _______ _______ _______ _____ _____    ______ ____
ROOT
ATOM      1  S   UNL     1      37.137 -22.284 -16.876  0.00  0.00    -0.086 S 
ATOM      2  N   UNL     1      32.830 -23.364 -17.471  0.00  0.00    -0.230 NA
ATOM      3  N   UNL     1      32.766 -21.901 -19.328  0.00  0.00    -0.343 N 
ATOM      4  C   UNL     1      34.836 -22.174 -18.051  0.00  0.00    +0.038 C 
ATOM      5  C   UNL     1      35.493 -22.793 -16.984  0.00  0.00    +0.034 C 
ATOM      6  C   UNL     1      35.716 -21.289 -18.759  0.00  0.00    +0.010 C 
ATOM      7  C   UNL     1      34.830 -23.701 -16.149  0.00  0.00    +0.028 C 
ATOM      8  C   UNL     1      33.486 -22.489 -18.268  0.00  0.00    +0.126 C 
ATOM      9  C   UNL     1      36.984 -21.257 -18.228  0.00  0.00    +0.036 C 
ATOM     10  C   UNL     1      33.501 -23.937 -16.454  0.00  0.00    +0.101 C 
ATOM     11  H   UNL     1      31.819 -22.131 -19.467  0.00  0.00    +0.144 HD
ATOM     12  H   UNL     1      33.211 -21.261 -19.928  0.00  0.00    +0.144 HD
ENDROOT
BRANCH   6  13
ATOM     13  C   UNL     1      35.423 -20.473 -19.911  0.00  0.00    +0.001 C 
ATOM     14  C   UNL     1      34.107 -20.338 -20.355  0.00  0.00    +0.001 C 
ATOM     15  C   UNL     1      36.455 -19.817 -20.581  0.00  0.00    +0.001 C 
ATOM     16  C   UNL     1      34.857 -18.892 -22.139  0.00  0.00    +0.052 C 
ATOM     17  C   UNL     1      33.824 -19.548 -21.469  0.00  0.00    +0.015 C 
ATOM     18  C   UNL     1      36.173 -19.026 -21.696  0.00  0.00    +0.015 C 
BRANCH  16  20
ATOM     19  O   UNL     1      34.359 -15.954 -22.341  0.00  0.00    -0.252 OA
ATOM     20  N   UNL     1      34.575 -18.101 -23.253  0.00  0.00    -0.268 N 
ATOM     21  N   UNL     1      34.094 -16.314 -24.635  0.00  0.00    -0.268 N 
ATOM     22  C   UNL     1      34.343 -16.705 -23.310  0.00  0.00    +0.308 C 
ATOM     23  H   UNL     1      34.530 -18.577 -24.114  0.00  0.00    +0.156 HD
ATOM     24  H   UNL     1      34.115 -17.032 -25.309  0.00  0.00    +0.156 HD
BRANCH  21  26
ATOM     25  F   UNL     1      33.897 -11.561 -23.983  0.00  0.00    -0.204 F 
ATOM     26  C   UNL     1      33.818 -15.015 -25.124  0.00  0.00    +0.054 C 
ATOM     27  C   UNL     1      33.998 -13.907 -24.296  0.00  0.00    +0.044 C 
ATOM     28  C   UNL     1      33.365 -14.843 -26.432  0.00  0.00    +0.015 C 
ATOM     29  C   UNL     1      33.724 -12.626 -24.776  0.00  0.00    +0.141 C 
ATOM     30  C   UNL     1      33.092 -13.563 -26.912  0.00  0.00    +0.004 C 
ATOM     31  C   UNL     1      33.271 -12.454 -26.084  0.00  0.00    +0.030 C 
ENDBRANCH  21  26
ENDBRANCH  16  20
ENDBRANCH   6  13
BRANCH   7  34
ATOM     32  N   UNL     1      36.274 -24.723 -13.050  0.00  0.00    -0.208 N 
ATOM     33  N   UNL     1      36.640 -25.817 -13.742  0.00  0.00    -0.176 NA
ATOM     34  C   UNL     1      35.487 -24.344 -15.053  0.00  0.00    +0.039 C 
ATOM     35  C   UNL     1      35.582 -23.811 -13.790  0.00  0.00    +0.086 C 
ATOM     36  C   UNL     1      36.156 -25.579 -14.963  0.00  0.00    +0.119 C 
BRANCH  32  37
ATOM     37  C   UNL     1      36.625 -24.607 -11.656  0.00  0.00    +0.148 C 
BRANCH  37  38
ATOM     38  C   UNL     1      36.941 -23.170 -11.254  0.00  0.00    +0.161 C 
BRANCH  38  39
ATOM     39  O   UNL     1      38.282 -22.856 -11.611  0.00  0.00    -0.380 OA
ATOM     40  H   UNL     1      38.760 -23.673 -11.822  0.00  0.00    +0.211 HD
ENDBRANCH  38  39
ENDBRANCH  37  38
ENDBRANCH  32  37
ENDBRANCH   7  34
TORSDOF 7
ENDMDL
MODEL 3
REMARK VINA RESULT:     -10.8      4.313     12.662
REMARK  Name = 46207586
REMARK  7 active torsions:
REMARK  status: ('A' for Active; 'I' for Inactive)
REMARK    1  A    between atoms: C_6  and  C_13
REMARK    2  A    between atoms: C_7  and  C_34
REMARK    3  A    between atoms: C_16  and  N_20
REMARK    4  A    between atoms: N_21  and  C_26
REMARK    5  A    between atoms: N_32  and  C_37
REMARK    6  A    between atoms: C_37  and  C_38
REMARK    7  A    between atoms: C_38  and  O_39
REMARK                            x       y       z     vdW  Elec       q    Type
REMARK                         _______ _______ _______ _____ _____    ______ ____
ROOT
ATOM      1  S   UNL     1      30.764  -8.470 -22.787  0.00  0.00    -0.086 S 
ATOM      2  N   UNL     1      34.899  -8.206 -24.490  0.00  0.00    -0.230 NA
ATOM      3  N   UNL     1      35.123 -10.540 -24.191  0.00  0.00    -0.343 N 
ATOM      4  C   UNL     1      33.049  -9.413 -23.546  0.00  0.00    +0.038 C 
ATOM      5  C   UNL     1      32.331  -8.217 -23.459  0.00  0.00    +0.034 C 
ATOM      6  C   UNL     1      32.277 -10.518 -23.051  0.00  0.00    +0.010 C 
ATOM      7  C   UNL     1      32.887  -7.004 -23.884  0.00  0.00    +0.028 C 
ATOM      8  C   UNL     1      34.348  -9.369 -24.074  0.00  0.00    +0.126 C 
ATOM      9  C   UNL     1      31.028 -10.144 -22.613  0.00  0.00    +0.036 C 
ATOM     10  C   UNL     1      34.173  -7.076 -24.388  0.00  0.00    +0.101 C 
ATOM     11  H   UNL     1      36.033 -10.494 -24.564  0.00  0.00    +0.144 HD
ATOM     12  H   UNL     1      34.754 -11.405 -23.899  0.00  0.00    +0.144 HD
ENDROOT
BRANCH   6  13
ATOM     13  C   UNL     1      32.656 -11.906 -22.971  0.00  0.00    +0.001 C 
ATOM     14  C   UNL     1      32.271 -12.674 -21.873  0.00  0.00    +0.001 C 
ATOM     15  C   UNL     1      33.409 -12.483 -23.995  0.00  0.00    +0.001 C 
ATOM     16  C   UNL     1      33.390 -14.594 -22.820  0.00  0.00    +0.052 C 
ATOM     17  C   UNL     1      32.638 -14.018 -21.797  0.00  0.00    +0.015 C 
ATOM     18  C   UNL     1      33.776 -13.827 -23.920  0.00  0.00    +0.015 C 
BRANCH  16  20
ATOM     19  O   UNL     1      34.621 -16.134 -20.577  0.00  0.00    -0.252 OA
ATOM     20  N   UNL     1      33.757 -15.938 -22.745  0.00  0.00    -0.268 N 
ATOM     21  N   UNL     1      34.547 -17.980 -22.009  0.00  0.00    -0.268 N 
ATOM     22  C   UNL     1      34.340 -16.636 -21.660  0.00  0.00    +0.308 C 
ATOM     23  H   UNL     1      33.587 -16.473 -23.555  0.00  0.00    +0.156 HD
ATOM     24  H   UNL     1      34.269 -18.237 -22.918  0.00  0.00    +0.156 HD
BRANCH  21  26
ATOM     25  F   UNL     1      34.032 -21.939 -19.342  0.00  0.00    -0.204 F 
ATOM     26  C   UNL     1      35.104 -19.011 -21.216  0.00  0.00    +0.054 C 
ATOM     27  C   UNL     1      34.277 -19.986 -20.660  0.00  0.00    +0.044 C 
ATOM     28  C   UNL     1      36.480 -19.051 -20.991  0.00  0.00    +0.015 C 
ATOM     29  C   UNL     1      34.825 -21.002 -19.877  0.00  0.00    +0.141 C 
ATOM     30  C   UNL     1      37.029 -20.067 -20.208  0.00  0.00    +0.004 C 
ATOM     31  C   UNL     1      36.201 -21.042 -19.651  0.00  0.00    +0.030 C 
ENDBRANCH  21  26
ENDBRANCH  16  20
ENDBRANCH   6  13
BRANCH   7  34
ATOM     32  N   UNL     1      31.121  -3.946 -24.396  0.00  0.00    -0.208 N 
ATOM     33  N   UNL     1      31.067  -3.914 -23.053  0.00  0.00    -0.176 NA
ATOM     34  C   UNL     1      32.167  -5.770 -23.804  0.00  0.00    +0.039 C 
ATOM     35  C   UNL     1      31.769  -5.036 -24.895  0.00  0.00    +0.086 C 
ATOM     36  C   UNL     1      31.707  -5.030 -22.698  0.00  0.00    +0.119 C 
BRANCH  32  37
ATOM     37  C   UNL     1      30.522  -2.880 -25.162  0.00  0.00    +0.148 C 
BRANCH  37  38
ATOM     38  C   UNL     1      31.546  -1.848 -25.621  0.00  0.00    +0.161 C 
BRANCH  38  39
ATOM     39  O   UNL     1      32.616  -1.786 -24.686  0.00  0.00    -0.380 OA
ATOM     40  H   UNL     1      33.414  -2.169 -25.082  0.00  0.00    +0.211 HD
ENDBRANCH  38  39
ENDBRANCH  37  38
ENDBRANCH  32  37
ENDBRANCH   7  34
TORSDOF 7
ENDMDL
MODEL 4
REMARK VINA RESULT:     -10.8      4.463     12.652
REMARK  Name = 46207586
REMARK  7 active torsions:
REMARK  status: ('A' for Active; 'I' for Inactive)
REMARK    1  A    between atoms: C_6  and  C_13
REMARK    2  A    between atoms: C_7  and  C_34
REMARK    3  A    between atoms: C_16  and  N_20
REMARK    4  A    between atoms: N_21  and  C_26
REMARK    5  A    between atoms: N_32  and  C_37
REMARK    6  A    between atoms: C_37  and  C_38
REMARK    7  A    between atoms: C_38  and  O_39
REMARK                            x       y       z     vdW  Elec       q    Type
REMARK                         _______ _______ _______ _____ _____    ______ ____
ROOT
ATOM      1  S   UNL     1      31.788  -8.083 -23.997  0.00  0.00    -0.086 S 
ATOM      2  N   UNL     1      31.986  -8.618 -19.554  0.00  0.00    -0.230 NA
ATOM      3  N   UNL     1      32.521 -10.895 -19.896  0.00  0.00    -0.343 N 
ATOM      4  C   UNL     1      32.140  -9.422 -21.812  0.00  0.00    +0.038 C 
ATOM      5  C   UNL     1      31.830  -8.139 -22.275  0.00  0.00    +0.034 C 
ATOM      6  C   UNL     1      32.337 -10.332 -22.904  0.00  0.00    +0.010 C 
ATOM      7  C   UNL     1      31.594  -7.084 -21.385  0.00  0.00    +0.028 C 
ATOM      8  C   UNL     1      32.211  -9.626 -20.426  0.00  0.00    +0.126 C 
ATOM      9  C   UNL     1      32.177  -9.737 -24.133  0.00  0.00    +0.036 C 
ATOM     10  C   UNL     1      31.690  -7.397 -20.041  0.00  0.00    +0.101 C 
ATOM     11  H   UNL     1      32.566 -11.024 -18.921  0.00  0.00    +0.144 HD
ATOM     12  H   UNL     1      32.691 -11.653 -20.501  0.00  0.00    +0.144 HD
ENDROOT
BRANCH   6  13
ATOM     13  C   UNL     1      32.670 -11.734 -22.848  0.00  0.00    +0.001 C 
ATOM     14  C   UNL     1      31.955 -12.589 -22.009  0.00  0.00    +0.001 C 
ATOM     15  C   UNL     1      33.708 -12.236 -23.633  0.00  0.00    +0.001 C 
ATOM     16  C   UNL     1      33.315 -14.446 -22.740  0.00  0.00    +0.052 C 
ATOM     17  C   UNL     1      32.277 -13.945 -21.955  0.00  0.00    +0.015 C 
ATOM     18  C   UNL     1      34.031 -13.593 -23.580  0.00  0.00    +0.015 C 
BRANCH  16  20
ATOM     19  O   UNL     1      34.513 -16.058 -20.529  0.00  0.00    -0.252 OA
ATOM     20  N   UNL     1      33.637 -15.803 -22.687  0.00  0.00    -0.268 N 
ATOM     21  N   UNL     1      34.365 -17.880 -21.988  0.00  0.00    -0.268 N 
ATOM     22  C   UNL     1      34.207 -16.535 -21.617  0.00  0.00    +0.308 C 
ATOM     23  H   UNL     1      33.443 -16.320 -23.503  0.00  0.00    +0.156 HD
ATOM     24  H   UNL     1      34.072 -18.115 -22.897  0.00  0.00    +0.156 HD
BRANCH  21  26
ATOM     25  F   UNL     1      33.737 -21.818 -19.314  0.00  0.00    -0.204 F 
ATOM     26  C   UNL     1      34.895 -18.940 -21.214  0.00  0.00    +0.054 C 
ATOM     27  C   UNL     1      34.038 -19.875 -20.634  0.00  0.00    +0.044 C 
ATOM     28  C   UNL     1      36.273 -19.049 -21.031  0.00  0.00    +0.015 C 
ATOM     29  C   UNL     1      34.559 -20.920 -19.871  0.00  0.00    +0.141 C 
ATOM     30  C   UNL     1      36.795 -20.094 -20.268  0.00  0.00    +0.004 C 
ATOM     31  C   UNL     1      35.938 -21.029 -19.688  0.00  0.00    +0.030 C 
ENDBRANCH  21  26
ENDBRANCH  16  20
ENDBRANCH   6  13
BRANCH   7  34
ATOM     32  N   UNL     1      31.392  -3.867 -22.916  0.00  0.00    -0.208 N 
ATOM     33  N   UNL     1      30.283  -3.734 -22.167  0.00  0.00    -0.176 NA
ATOM     34  C   UNL     1      31.277  -5.765 -21.840  0.00  0.00    +0.039 C 
ATOM     35  C   UNL     1      32.024  -5.065 -22.756  0.00  0.00    +0.086 C 
ATOM     36  C   UNL     1      30.219  -4.896 -21.513  0.00  0.00    +0.119 C 
BRANCH  32  37
ATOM     37  C   UNL     1      31.804  -2.789 -23.782  0.00  0.00    +0.148 C 
BRANCH  37  38
ATOM     38  C   UNL     1      31.133  -2.854 -25.150  0.00  0.00    +0.161 C 
BRANCH  38  39
ATOM     39  O   UNL     1      29.754  -2.526 -25.023  0.00  0.00    -0.380 OA
ATOM     40  H   UNL     1      29.300  -3.224 -24.526  0.00  0.00    +0.211 HD
ENDBRANCH  38  39
ENDBRANCH  37  38
ENDBRANCH  32  37
ENDBRANCH   7  34
TORSDOF 7
ENDMDL
MODEL 5
REMARK VINA RESULT:     -10.6      4.237     12.635
REMARK  Name = 46207586
REMARK  7 active torsions:
REMARK  status: ('A' for Active; 'I' for Inactive)
REMARK    1  A    between atoms: C_6  and  C_13
REMARK    2  A    between atoms: C_7  and  C_34
REMARK    3  A    between atoms: C_16  and  N_20
REMARK    4  A    between atoms: N_21  and  C_26
REMARK    5  A    between atoms: N_32  and  C_37
REMARK    6  A    between atoms: C_37  and  C_38
REMARK    7  A    between atoms: C_38  and  O_39
REMARK                            x       y       z     vdW  Elec       q    Type
REMARK                         _______ _______ _______ _____ _____    ______ ____
ROOT
ATOM      1  S   UNL     1      34.205  -9.687 -25.017  0.00  0.00    -0.086 S 
ATOM      2  N   UNL     1      31.004 -10.175 -21.921  0.00  0.00    -0.230 NA
ATOM      3  N   UNL     1      31.602 -12.454 -21.726  0.00  0.00    -0.343 N 
ATOM      4  C   UNL     1      32.794 -11.002 -23.295  0.00  0.00    +0.038 C 
ATOM      5  C   UNL     1      32.942  -9.725 -23.845  0.00  0.00    +0.034 C 
ATOM      6  C   UNL     1      33.737 -11.923 -23.862  0.00  0.00    +0.010 C 
ATOM      7  C   UNL     1      32.125  -8.661 -23.442  0.00  0.00    +0.028 C 
ATOM      8  C   UNL     1      31.801 -11.192 -22.321  0.00  0.00    +0.126 C 
ATOM      9  C   UNL     1      34.555 -11.341 -24.801  0.00  0.00    +0.036 C 
ATOM     10  C   UNL     1      31.180  -8.960 -22.477  0.00  0.00    +0.101 C 
ATOM     11  H   UNL     1      30.901 -12.572 -21.044  0.00  0.00    +0.144 HD
ATOM     12  H   UNL     1      32.164 -13.217 -21.992  0.00  0.00    +0.144 HD
ENDROOT
BRANCH   6  13
ATOM     13  C   UNL     1      33.907 -13.323 -23.561  0.00  0.00    +0.001 C 
ATOM     14  C   UNL     1      34.369 -13.717 -22.306  0.00  0.00    +0.001 C 
ATOM     15  C   UNL     1      33.610 -14.284 -24.527  0.00  0.00    +0.001 C 
ATOM     16  C   UNL     1      34.236 -16.032 -22.982  0.00  0.00    +0.052 C 
ATOM     17  C   UNL     1      34.533 -15.072 -22.016  0.00  0.00    +0.015 C 
ATOM     18  C   UNL     1      33.774 -15.639 -24.238  0.00  0.00    +0.015 C 
BRANCH  16  20
ATOM     19  O   UNL     1      34.236 -17.455 -20.356  0.00  0.00    -0.252 OA
ATOM     20  N   UNL     1      34.399 -17.387 -22.692  0.00  0.00    -0.268 N 
ATOM     21  N   UNL     1      34.593 -19.408 -21.591  0.00  0.00    -0.268 N 
ATOM     22  C   UNL     1      34.394 -18.028 -21.429  0.00  0.00    +0.308 C 
ATOM     23  H   UNL     1      34.536 -17.977 -23.469  0.00  0.00    +0.156 HD
ATOM     24  H   UNL     1      34.704 -19.723 -22.517  0.00  0.00    +0.156 HD
BRANCH  21  26
ATOM     25  F   UNL     1      37.119 -22.042 -18.470  0.00  0.00    -0.204 F 
ATOM     26  C   UNL     1      34.655 -20.403 -20.586  0.00  0.00    +0.054 C 
ATOM     27  C   UNL     1      35.881 -20.738 -20.012  0.00  0.00    +0.044 C 
ATOM     28  C   UNL     1      33.490 -21.049 -20.172  0.00  0.00    +0.015 C 
ATOM     29  C   UNL     1      35.942 -21.720 -19.022  0.00  0.00    +0.141 C 
ATOM     30  C   UNL     1      33.551 -22.031 -19.183  0.00  0.00    +0.004 C 
ATOM     31  C   UNL     1      34.777 -22.366 -18.608  0.00  0.00    +0.030 C 
ENDBRANCH  21  26
ENDBRANCH  16  20
ENDBRANCH   6  13
BRANCH   7  34
ATOM     32  N   UNL     1      31.760  -5.357 -24.740  0.00  0.00    -0.208 N 
ATOM     33  N   UNL     1      33.095  -5.416 -24.885  0.00  0.00    -0.176 NA
ATOM     34  C   UNL     1      32.263  -7.348 -23.994  0.00  0.00    +0.039 C 
ATOM     35  C   UNL     1      31.213  -6.489 -24.211  0.00  0.00    +0.086 C 
ATOM     36  C   UNL     1      33.396  -6.634 -24.426  0.00  0.00    +0.119 C 
BRANCH  32  37
ATOM     37  C   UNL     1      31.049  -4.166 -25.136  0.00  0.00    +0.148 C 
BRANCH  37  38
ATOM     38  C   UNL     1      31.286  -3.003 -24.180  0.00  0.00    +0.161 C 
BRANCH  38  39
ATOM     39  O   UNL     1      31.608  -3.502 -22.888  0.00  0.00    -0.380 OA
ATOM     40  H   UNL     1      32.301  -2.952 -22.491  0.00  0.00    +0.211 HD
ENDBRANCH  38  39
ENDBRANCH  37  38
ENDBRANCH  32  37
ENDBRANCH   7  34
TORSDOF 7
ENDMDL
MODEL 6
REMARK VINA RESULT:     -10.2      6.065     13.831
REMARK  Name = 46207586
REMARK  7 active torsions:
REMARK  status: ('A' for Active; 'I' for Inactive)
REMARK    1  A    between atoms: C_6  and  C_13
REMARK    2  A    between atoms: C_7  and  C_34
REMARK    3  A    between atoms: C_16  and  N_20
REMARK    4  A    between atoms: N_21  and  C_26
REMARK    5  A    between atoms: N_32  and  C_37
REMARK    6  A    between atoms: C_37  and  C_38
REMARK    7  A    between atoms: C_38  and  O_39
REMARK                            x       y       z     vdW  Elec       q    Type
REMARK                         _______ _______ _______ _____ _____    ______ ____
ROOT
ATOM      1  S   UNL     1      34.312 -15.232 -22.312  0.00  0.00    -0.086 S 
ATOM      2  N   UNL     1      34.456 -18.444 -25.431  0.00  0.00    -0.230 NA
ATOM      3  N   UNL     1      35.009 -20.000 -23.739  0.00  0.00    -0.343 N 
ATOM      4  C   UNL     1      34.646 -17.647 -23.172  0.00  0.00    +0.038 C 
ATOM      5  C   UNL     1      34.331 -16.359 -23.615  0.00  0.00    +0.034 C 
ATOM      6  C   UNL     1      34.865 -17.668 -21.754  0.00  0.00    +0.010 C 
ATOM      7  C   UNL     1      34.076 -16.098 -24.968  0.00  0.00    +0.028 C 
ATOM      8  C   UNL     1      34.699 -18.679 -24.121  0.00  0.00    +0.126 C 
ATOM      9  C   UNL     1      34.715 -16.432 -21.171  0.00  0.00    +0.036 C 
ATOM     10  C   UNL     1      34.157 -17.188 -25.816  0.00  0.00    +0.101 C 
ATOM     11  H   UNL     1      35.044 -20.714 -24.417  0.00  0.00    +0.144 HD
ATOM     12  H   UNL     1      35.191 -20.209 -22.795  0.00  0.00    +0.144 HD
ENDROOT
BRANCH   6  13
ATOM     13  C   UNL     1      35.206 -18.794 -20.920  0.00  0.00    +0.001 C 
ATOM     14  C   UNL     1      36.534 -19.021 -20.562  0.00  0.00    +0.001 C 
ATOM     15  C   UNL     1      34.206 -19.658 -20.472  0.00  0.00    +0.001 C 
ATOM     16  C   UNL     1      35.864 -20.973 -19.307  0.00  0.00    +0.052 C 
ATOM     17  C   UNL     1      36.864 -20.111 -19.755  0.00  0.00    +0.015 C 
ATOM     18  C   UNL     1      34.535 -20.748 -19.665  0.00  0.00    +0.015 C 
BRANCH  16  20
ATOM     19  O   UNL     1      36.862 -21.055 -16.493  0.00  0.00    -0.252 OA
ATOM     20  N   UNL     1      36.193 -22.062 -18.499  0.00  0.00    -0.268 N 
ATOM     21  N   UNL     1      36.871 -23.381 -16.729  0.00  0.00    -0.268 N 
ATOM     22  C   UNL     1      36.665 -22.062 -17.164  0.00  0.00    +0.308 C 
ATOM     23  H   UNL     1      36.082 -22.949 -18.913  0.00  0.00    +0.156 HD
ATOM     24  H   UNL     1      36.668 -24.089 -17.382  0.00  0.00    +0.156 HD
BRANCH  21  26
ATOM     25  F   UNL     1      40.204 -25.522 -14.016  0.00  0.00    -0.204 F 
ATOM     26  C   UNL     1      37.335 -23.819 -15.465  0.00  0.00    +0.054 C 
ATOM     27  C   UNL     1      38.566 -24.467 -15.362  0.00  0.00    +0.044 C 
ATOM     28  C   UNL     1      36.562 -23.603 -14.325  0.00  0.00    +0.015 C 
ATOM     29  C   UNL     1      39.023 -24.900 -14.117  0.00  0.00    +0.141 C 
ATOM     30  C   UNL     1      37.019 -24.036 -13.080  0.00  0.00    +0.004 C 
ATOM     31  C   UNL     1      38.249 -24.684 -12.976  0.00  0.00    +0.030 C 
ENDBRANCH  21  26
ENDBRANCH  16  20
ENDBRANCH   6  13
BRANCH   7  34
ATOM     32  N   UNL     1      33.554 -12.613 -25.525  0.00  0.00    -0.208 N 
ATOM     33  N   UNL     1      33.015 -13.021 -26.687  0.00  0.00    -0.176 NA
ATOM     34  C   UNL     1      33.752 -14.787 -25.439  0.00  0.00    +0.039 C 
ATOM     35  C   UNL     1      34.010 -13.631 -24.741  0.00  0.00    +0.086 C 
ATOM     36  C   UNL     1      33.140 -14.349 -26.628  0.00  0.00    +0.119 C 
BRANCH  32  37
ATOM     37  C   UNL     1      33.604 -11.204 -25.215  0.00  0.00    +0.148 C 
BRANCH  37  38
ATOM     38  C   UNL     1      35.010 -10.630 -25.347  0.00  0.00    +0.161 C 
BRANCH  38  39
ATOM     39  O   UNL     1      35.401 -10.032 -24.117  0.00  0.00    -0.380 OA
ATOM     40  H   UNL     1      36.330 -10.243 -23.936  0.00  0.00    +0.211 HD
ENDBRANCH  38  39
ENDBRANCH  37  38
ENDBRANCH  32  37
ENDBRANCH   7  34
TORSDOF 7
ENDMDL
MODEL 7
REMARK VINA RESULT:      -9.9      6.511     13.957
REMARK  Name = 46207586
REMARK  7 active torsions:
REMARK  status: ('A' for Active; 'I' for Inactive)
REMARK    1  A    between atoms: C_6  and  C_13
REMARK    2  A    between atoms: C_7  and  C_34
REMARK    3  A    between atoms: C_16  and  N_20
REMARK    4  A    between atoms: N_21  and  C_26
REMARK    5  A    between atoms: N_32  and  C_37
REMARK    6  A    between atoms: C_37  and  C_38
REMARK    7  A    between atoms: C_38  and  O_39
REMARK                            x       y       z     vdW  Elec       q    Type
REMARK                         _______ _______ _______ _____ _____    ______ ____
ROOT
ATOM      1  S   UNL     1      34.310 -17.843 -24.651  0.00  0.00    -0.086 S 
ATOM      2  N   UNL     1      34.417 -15.061 -21.142  0.00  0.00    -0.230 NA
ATOM      3  N   UNL     1      34.824 -16.919 -19.737  0.00  0.00    -0.343 N 
ATOM      4  C   UNL     1      34.554 -17.238 -22.148  0.00  0.00    +0.038 C 
ATOM      5  C   UNL     1      34.325 -16.658 -23.399  0.00  0.00    +0.034 C 
ATOM      6  C   UNL     1      34.713 -18.660 -22.258  0.00  0.00    +0.010 C 
ATOM      7  C   UNL     1      34.139 -15.276 -23.537  0.00  0.00    +0.028 C 
ATOM      8  C   UNL     1      34.595 -16.397 -21.026  0.00  0.00    +0.126 C 
ATOM      9  C   UNL     1      34.605 -19.112 -23.552  0.00  0.00    +0.036 C 
ATOM     10  C   UNL     1      34.198 -14.542 -22.365  0.00  0.00    +0.101 C 
ATOM     11  H   UNL     1      34.849 -16.316 -18.959  0.00  0.00    +0.144 HD
ATOM     12  H   UNL     1      34.958 -17.886 -19.615  0.00  0.00    +0.144 HD
ENDROOT
BRANCH   6  13
ATOM     13  C   UNL     1      34.964 -19.613 -21.206  0.00  0.00    +0.001 C 
ATOM     14  C   UNL     1      36.272 -19.888 -20.809  0.00  0.00    +0.001 C 
ATOM     15  C   UNL     1      33.897 -20.261 -20.584  0.00  0.00    +0.001 C 
ATOM     16  C   UNL     1      35.447 -21.458 -19.169  0.00  0.00    +0.052 C 
ATOM     17  C   UNL     1      36.514 -20.810 -19.791  0.00  0.00    +0.015 C 
ATOM     18  C   UNL     1      34.138 -21.184 -19.565  0.00  0.00    +0.015 C 
BRANCH  16  20
ATOM     19  O   UNL     1      37.061 -21.189 -16.670  0.00  0.00    -0.252 OA
ATOM     20  N   UNL     1      35.689 -22.379 -18.150  0.00  0.00    -0.268 N 
ATOM     21  N   UNL     1      36.441 -23.398 -16.218  0.00  0.00    -0.268 N 
ATOM     22  C   UNL     1      36.463 -22.216 -16.975  0.00  0.00    +0.308 C 
ATOM     23  H   UNL     1      35.265 -23.261 -18.262  0.00  0.00    +0.156 HD
ATOM     24  H   UNL     1      35.915 -24.141 -16.592  0.00  0.00    +0.156 HD
BRANCH  21  26
ATOM     25  F   UNL     1      39.912 -25.529 -13.675  0.00  0.00    -0.204 F 
ATOM     26  C   UNL     1      37.082 -23.653 -14.982  0.00  0.00    +0.054 C 
ATOM     27  C   UNL     1      38.203 -24.481 -14.937  0.00  0.00    +0.044 C 
ATOM     28  C   UNL     1      36.592 -23.078 -13.810  0.00  0.00    +0.015 C 
ATOM     29  C   UNL     1      38.835 -24.734 -13.719  0.00  0.00    +0.141 C 
ATOM     30  C   UNL     1      37.223 -23.331 -12.592  0.00  0.00    +0.004 C 
ATOM     31  C   UNL     1      38.344 -24.159 -12.547  0.00  0.00    +0.030 C 
ENDBRANCH  21  26
ENDBRANCH  16  20
ENDBRANCH   6  13
BRANCH   7  34
ATOM     32  N   UNL     1      33.771 -13.156 -26.383  0.00  0.00    -0.208 N 
ATOM     33  N   UNL     1      33.362 -14.282 -26.995  0.00  0.00    -0.176 NA
ATOM     34  C   UNL     1      33.904 -14.665 -24.809  0.00  0.00    +0.039 C 
ATOM     35  C   UNL     1      34.106 -13.332 -25.073  0.00  0.00    +0.086 C 
ATOM     36  C   UNL     1      33.447 -15.199 -26.028  0.00  0.00    +0.119 C 
BRANCH  32  37
ATOM     37  C   UNL     1      33.818 -11.917 -27.121  0.00  0.00    +0.148 C 
BRANCH  37  38
ATOM     38  C   UNL     1      35.239 -11.382 -27.267  0.00  0.00    +0.161 C 
BRANCH  38  39
ATOM     39  O   UNL     1      35.480 -10.386 -26.281  0.00  0.00    -0.380 OA
ATOM     40  H   UNL     1      36.200 -10.675 -25.699  0.00  0.00    +0.211 HD
ENDBRANCH  38  39
ENDBRANCH  37  38
ENDBRANCH  32  37
ENDBRANCH   7  34
TORSDOF 7
ENDMDL
MODEL 8
REMARK VINA RESULT:      -9.9      4.309     12.672
REMARK  Name = 46207586
REMARK  7 active torsions:
REMARK  status: ('A' for Active; 'I' for Inactive)
REMARK    1  A    between atoms: C_6  and  C_13
REMARK    2  A    between atoms: C_7  and  C_34
REMARK    3  A    between atoms: C_16  and  N_20
REMARK    4  A    between atoms: N_21  and  C_26
REMARK    5  A    between atoms: N_32  and  C_37
REMARK    6  A    between atoms: C_37  and  C_38
REMARK    7  A    between atoms: C_38  and  O_39
REMARK                            x       y       z     vdW  Elec       q    Type
REMARK                         _______ _______ _______ _____ _____    ______ ____
ROOT
ATOM      1  S   UNL     1      30.799  -8.739 -22.833  0.00  0.00    -0.086 S 
ATOM      2  N   UNL     1      34.926  -8.299 -24.519  0.00  0.00    -0.230 NA
ATOM      3  N   UNL     1      35.274 -10.609 -24.153  0.00  0.00    -0.343 N 
ATOM      4  C   UNL     1      33.137  -9.578 -23.552  0.00  0.00    +0.038 C 
ATOM      5  C   UNL     1      32.355  -8.421 -23.502  0.00  0.00    +0.034 C 
ATOM      6  C   UNL     1      32.423 -10.709 -23.030  0.00  0.00    +0.010 C 
ATOM      7  C   UNL     1      32.848  -7.191 -23.959  0.00  0.00    +0.028 C 
ATOM      8  C   UNL     1      34.436  -9.479 -24.074  0.00  0.00    +0.126 C 
ATOM      9  C   UNL     1      31.152 -10.391 -22.611  0.00  0.00    +0.036 C 
ATOM     10  C   UNL     1      34.140  -7.208 -24.453  0.00  0.00    +0.101 C 
ATOM     11  H   UNL     1      36.183 -10.524 -24.522  0.00  0.00    +0.144 HD
ATOM     12  H   UNL     1      34.950 -11.484 -23.839  0.00  0.00    +0.144 HD
ENDROOT
BRANCH   6  13
ATOM     13  C   UNL     1      32.875 -12.072 -22.910  0.00  0.00    +0.001 C 
ATOM     14  C   UNL     1      32.872 -12.702 -21.666  0.00  0.00    +0.001 C 
ATOM     15  C   UNL     1      33.317 -12.762 -24.039  0.00  0.00    +0.001 C 
ATOM     16  C   UNL     1      33.752 -14.711 -22.679  0.00  0.00    +0.052 C 
ATOM     17  C   UNL     1      33.310 -14.022 -21.549  0.00  0.00    +0.015 C 
ATOM     18  C   UNL     1      33.755 -14.082 -23.924  0.00  0.00    +0.015 C 
BRANCH  16  20
ATOM     19  O   UNL     1      33.230 -16.735 -20.545  0.00  0.00    -0.252 OA
ATOM     20  N   UNL     1      34.189 -16.031 -22.563  0.00  0.00    -0.268 N 
ATOM     21  N   UNL     1      34.558 -18.183 -21.811  0.00  0.00    -0.268 N 
ATOM     22  C   UNL     1      33.920 -16.964 -21.533  0.00  0.00    +0.308 C 
ATOM     23  H   UNL     1      34.761 -16.357 -23.296  0.00  0.00    +0.156 HD
ATOM     24  H   UNL     1      35.080 -18.217 -22.646  0.00  0.00    +0.156 HD
BRANCH  21  26
ATOM     25  F   UNL     1      36.887 -21.713 -19.537  0.00  0.00    -0.204 F 
ATOM     26  C   UNL     1      34.545 -19.370 -21.041  0.00  0.00    +0.054 C 
ATOM     27  C   UNL     1      35.746 -19.968 -20.661  0.00  0.00    +0.044 C 
ATOM     28  C   UNL     1      33.330 -19.943 -20.662  0.00  0.00    +0.015 C 
ATOM     29  C   UNL     1      35.734 -21.139 -19.902  0.00  0.00    +0.141 C 
ATOM     30  C   UNL     1      33.318 -21.113 -19.904  0.00  0.00    +0.004 C 
ATOM     31  C   UNL     1      34.519 -21.711 -19.524  0.00  0.00    +0.030 C 
ENDBRANCH  21  26
ENDBRANCH  16  20
ENDBRANCH   6  13
BRANCH   7  34
ATOM     32  N   UNL     1      31.041  -4.221 -23.158  0.00  0.00    -0.208 N 
ATOM     33  N   UNL     1      30.754  -4.207 -24.471  0.00  0.00    -0.176 NA
ATOM     34  C   UNL     1      32.062  -5.996 -23.917  0.00  0.00    +0.039 C 
ATOM     35  C   UNL     1      31.820  -5.272 -22.775  0.00  0.00    +0.086 C 
ATOM     36  C   UNL     1      31.381  -5.294 -24.929  0.00  0.00    +0.119 C 
BRANCH  32  37
ATOM     37  C   UNL     1      30.527  -3.179 -22.302  0.00  0.00    +0.148 C 
BRANCH  37  38
ATOM     38  C   UNL     1      30.776  -1.786 -22.870  0.00  0.00    +0.161 C 
BRANCH  38  39
ATOM     39  O   UNL     1      31.406  -1.891 -24.141  0.00  0.00    -0.380 OA
ATOM     40  H   UNL     1      32.084  -2.584 -24.109  0.00  0.00    +0.211 HD
ENDBRANCH  38  39
ENDBRANCH  37  38
ENDBRANCH  32  37
ENDBRANCH   7  34
TORSDOF 7
ENDMDL
MODEL 9
REMARK VINA RESULT:      -9.5      5.584      9.362
REMARK  Name = 46207586
REMARK  7 active torsions:
REMARK  status: ('A' for Active; 'I' for Inactive)
REMARK    1  A    between atoms: C_6  and  C_13
REMARK    2  A    between atoms: C_7  and  C_34
REMARK    3  A    between atoms: C_16  and  N_20
REMARK    4  A    between atoms: N_21  and  C_26
REMARK    5  A    between atoms: N_32  and  C_37
REMARK    6  A    between atoms: C_37  and  C_38
REMARK    7  A    between atoms: C_38  and  O_39
REMARK                            x       y       z     vdW  Elec       q    Type
REMARK                         _______ _______ _______ _____ _____    ______ ____
ROOT
ATOM      1  S   UNL     1      33.943 -23.445 -17.192  0.00  0.00    -0.086 S 
ATOM      2  N   UNL     1      37.871 -21.301 -16.992  0.00  0.00    -0.230 NA
ATOM      3  N   UNL     1      37.243 -20.063 -18.905  0.00  0.00    -0.343 N 
ATOM      4  C   UNL     1      35.723 -21.740 -17.975  0.00  0.00    +0.038 C 
ATOM      5  C   UNL     1      35.487 -22.705 -16.991  0.00  0.00    +0.034 C 
ATOM      6  C   UNL     1      34.612 -21.638 -18.877  0.00  0.00    +0.010 C 
ATOM      7  C   UNL     1      36.436 -22.978 -15.998  0.00  0.00    +0.028 C 
ATOM      8  C   UNL     1      36.943 -21.048 -17.943  0.00  0.00    +0.126 C 
ATOM      9  C   UNL     1      33.588 -22.501 -18.566  0.00  0.00    +0.036 C 
ATOM     10  C   UNL     1      37.603 -22.238 -16.062  0.00  0.00    +0.101 C 
ATOM     11  H   UNL     1      38.103 -19.586 -18.871  0.00  0.00    +0.144 HD
ATOM     12  H   UNL     1      36.591 -19.852 -19.612  0.00  0.00    +0.144 HD
ENDROOT
BRANCH   6  13
ATOM     13  C   UNL     1      34.466 -20.766 -20.017  0.00  0.00    +0.001 C 
ATOM     14  C   UNL     1      33.247 -20.136 -20.263  0.00  0.00    +0.001 C 
ATOM     15  C   UNL     1      35.546 -20.553 -20.874  0.00  0.00    +0.001 C 
ATOM     16  C   UNL     1      34.186 -19.080 -22.222  0.00  0.00    +0.052 C 
ATOM     17  C   UNL     1      33.106 -19.293 -21.365  0.00  0.00    +0.015 C 
ATOM     18  C   UNL     1      35.407 -19.709 -21.977  0.00  0.00    +0.015 C 
BRANCH  16  20
ATOM     19  O   UNL     1      33.967 -16.104 -22.355  0.00  0.00    -0.252 OA
ATOM     20  N   UNL     1      34.047 -18.236 -23.324  0.00  0.00    -0.268 N 
ATOM     21  N   UNL     1      33.817 -16.375 -24.672  0.00  0.00    -0.268 N 
ATOM     22  C   UNL     1      33.945 -16.823 -23.348  0.00  0.00    +0.308 C 
ATOM     23  H   UNL     1      34.014 -18.681 -24.201  0.00  0.00    +0.156 HD
ATOM     24  H   UNL     1      33.816 -17.073 -25.367  0.00  0.00    +0.156 HD
BRANCH  21  26
ATOM     25  F   UNL     1      33.970 -11.644 -23.866  0.00  0.00    -0.204 F 
ATOM     26  C   UNL     1      33.690 -15.043 -25.133  0.00  0.00    +0.054 C 
ATOM     27  C   UNL     1      33.897 -13.979 -24.255  0.00  0.00    +0.044 C 
ATOM     28  C   UNL     1      33.355 -14.794 -26.464  0.00  0.00    +0.015 C 
ATOM     29  C   UNL     1      33.771 -12.666 -24.708  0.00  0.00    +0.141 C 
ATOM     30  C   UNL     1      33.229 -13.481 -26.917  0.00  0.00    +0.004 C 
ATOM     31  C   UNL     1      33.437 -12.417 -26.039  0.00  0.00    +0.030 C 
ENDBRANCH  21  26
ENDBRANCH  16  20
ENDBRANCH   6  13
BRANCH   7  34
ATOM     32  N   UNL     1      35.820 -24.864 -13.032  0.00  0.00    -0.208 N 
ATOM     33  N   UNL     1      35.922 -25.925 -13.852  0.00  0.00    -0.176 NA
ATOM     34  C   UNL     1      36.211 -23.961 -14.983  0.00  0.00    +0.039 C 
ATOM     35  C   UNL     1      35.986 -23.665 -13.660  0.00  0.00    +0.086 C 
ATOM     36  C   UNL     1      36.159 -25.366 -15.042  0.00  0.00    +0.119 C 
BRANCH  32  37
ATOM     37  C   UNL     1      35.559 -25.068 -11.628  0.00  0.00    +0.148 C 
BRANCH  37  38
ATOM     38  C   UNL     1      36.016 -23.889 -10.776  0.00  0.00    +0.161 C 
BRANCH  38  39
ATOM     39  O   UNL     1      35.998 -24.255  -9.401  0.00  0.00    -0.380 OA
ATOM     40  H   UNL     1      35.772 -23.480  -8.863  0.00  0.00    +0.211 HD
ENDBRANCH  38  39
ENDBRANCH  37  38
ENDBRANCH  32  37
ENDBRANCH   7  34
TORSDOF 7
ENDMDL
