MODEL 1
REMARK VINA RESULT:      -7.8      0.000      0.000
REMARK  Name = 5305969
REMARK  1 active torsions:
REMARK  status: ('A' for Active; 'I' for Inactive)
REMARK    1  A    between atoms: C_8  and  C_15
REMARK                            x       y       z     vdW  Elec       q    Type
REMARK                         _______ _______ _______ _____ _____    ______ ____
ROOT
ATOM      1  O   UNL     1      32.562 -20.565 -20.671  0.00  0.00    -0.265 OA
ATOM      2  N   UNL     1      34.495 -21.226 -19.483  0.00  0.00    -0.155 N 
ATOM      3  N   UNL     1      35.809 -20.853 -19.631  0.00  0.00    -0.285 N 
ATOM      4  N   UNL     1      34.733 -22.785 -17.667  0.00  0.00    -0.091 NA
ATOM      5  N   UNL     1      32.667 -22.417 -18.516  0.00  0.00    -0.068 NA
ATOM      6  N   UNL     1      33.764 -23.492 -17.070  0.00  0.00    -0.138 N 
ATOM      7  N   UNL     1      32.523 -23.305 -17.541  0.00  0.00    -0.020 NA
ATOM      8  C   UNL     1      34.731 -19.649 -21.180  0.00  0.00    +0.049 A 
ATOM      9  C   UNL     1      35.921 -19.905 -20.614  0.00  0.00    +0.052 A 
ATOM     10  C   UNL     1      33.759 -20.519 -20.439  0.00  0.00    +0.284 A 
ATOM     11  C   UNL     1      37.242 -19.291 -20.911  0.00  0.00    +0.051 C 
ATOM     12  C   UNL     1      34.001 -22.117 -18.575  0.00  0.00    +0.163 C 
ATOM     13  H   UNL     1      36.560 -21.214 -19.107  0.00  0.00    +0.188 HD
ATOM     14  H   UNL     1      33.954 -24.113 -16.330  0.00  0.00    +0.197 HD
ENDROOT
BRANCH   8  15
ATOM     15  C   UNL     1      34.313 -18.727 -22.258  0.00  0.00    +0.032 C 
ATOM     16  C   UNL     1      34.811 -19.172 -23.627  0.00  0.00    +0.005 C 
ENDBRANCH   8  15
TORSDOF 1
ENDMDL
MODEL 2
REMARK VINA RESULT:      -7.8      6.103      7.839
REMARK  Name = 5305969
REMARK  1 active torsions:
REMARK  status: ('A' for Active; 'I' for Inactive)
REMARK    1  A    between atoms: C_8  and  C_15
REMARK                            x       y       z     vdW  Elec       q    Type
REMARK                         _______ _______ _______ _____ _____    ______ ____
ROOT
ATOM      1  O   UNL     1      35.034 -17.807 -24.496  0.00  0.00    -0.265 OA
ATOM      2  N   UNL     1      34.056 -15.775 -23.788  0.00  0.00    -0.155 N 
ATOM      3  N   UNL     1      33.933 -15.228 -22.533  0.00  0.00    -0.285 N 
ATOM      4  N   UNL     1      32.949 -14.066 -25.068  0.00  0.00    -0.091 NA
ATOM      5  N   UNL     1      33.778 -15.871 -26.157  0.00  0.00    -0.068 NA
ATOM      6  N   UNL     1      32.751 -14.043 -26.394  0.00  0.00    -0.138 N 
ATOM      7  N   UNL     1      33.225 -15.093 -27.079  0.00  0.00    -0.020 NA
ATOM      8  C   UNL     1      35.049 -17.137 -22.182  0.00  0.00    +0.049 A 
ATOM      9  C   UNL     1      34.548 -16.031 -21.609  0.00  0.00    +0.052 A 
ATOM     10  C   UNL     1      34.734 -16.989 -23.641  0.00  0.00    +0.284 A 
ATOM     11  C   UNL     1      34.613 -15.613 -20.183  0.00  0.00    +0.051 C 
ATOM     12  C   UNL     1      33.601 -15.236 -24.956  0.00  0.00    +0.163 C 
ATOM     13  H   UNL     1      33.471 -14.383 -22.329  0.00  0.00    +0.188 HD
ATOM     14  H   UNL     1      32.283 -13.299 -26.836  0.00  0.00    +0.197 HD
ENDROOT
BRANCH   8  15
ATOM     15  C   UNL     1      35.793 -18.295 -21.642  0.00  0.00    +0.032 C 
ATOM     16  C   UNL     1      34.868 -19.390 -21.126  0.00  0.00    +0.005 C 
ENDBRANCH   8  15
TORSDOF 1
ENDMDL
MODEL 3
REMARK VINA RESULT:      -7.3      5.017      7.084
REMARK  Name = 5305969
REMARK  1 active torsions:
REMARK  status: ('A' for Active; 'I' for Inactive)
REMARK    1  A    between atoms: C_8  and  C_15
REMARK                            x       y       z     vdW  Elec       q    Type
REMARK                         _______ _______ _______ _____ _____    ______ ____
ROOT
ATOM      1  O   UNL     1      32.262 -23.886 -13.021  0.00  0.00    -0.265 OA
ATOM      2  N   UNL     1      34.328 -24.092 -14.149  0.00  0.00    -0.155 N 
ATOM      3  N   UNL     1      34.656 -23.877 -15.466  0.00  0.00    -0.285 N 
ATOM      4  N   UNL     1      36.479 -24.775 -13.317  0.00  0.00    -0.091 NA
ATOM      5  N   UNL     1      34.737 -24.690 -11.874  0.00  0.00    -0.068 NA
ATOM      6  N   UNL     1      36.792 -25.127 -12.063  0.00  0.00    -0.138 N 
ATOM      7  N   UNL     1      35.790 -25.091 -11.173  0.00  0.00    -0.020 NA
ATOM      8  C   UNL     1      32.479 -23.367 -15.363  0.00  0.00    +0.049 A 
ATOM      9  C   UNL     1      33.562 -23.424 -16.154  0.00  0.00    +0.052 A 
ATOM     10  C   UNL     1      32.966 -23.807 -14.014  0.00  0.00    +0.284 A 
ATOM     11  C   UNL     1      33.685 -23.050 -17.588  0.00  0.00    +0.051 C 
ATOM     12  C   UNL     1      35.172 -24.506 -13.159  0.00  0.00    +0.163 C 
ATOM     13  H   UNL     1      35.547 -24.026 -15.856  0.00  0.00    +0.188 HD
ATOM     14  H   UNL     1      37.704 -25.396 -11.810  0.00  0.00    +0.197 HD
ENDROOT
BRANCH   8  15
ATOM     15  C   UNL     1      31.081 -22.951 -15.608  0.00  0.00    +0.032 C 
ATOM     16  C   UNL     1      30.148 -24.140 -15.804  0.00  0.00    +0.005 C 
ENDBRANCH   8  15
TORSDOF 1
ENDMDL
MODEL 4
REMARK VINA RESULT:      -7.3      5.422      6.913
REMARK  Name = 5305969
REMARK  1 active torsions:
REMARK  status: ('A' for Active; 'I' for Inactive)
REMARK    1  A    between atoms: C_8  and  C_15
REMARK                            x       y       z     vdW  Elec       q    Type
REMARK                         _______ _______ _______ _____ _____    ______ ____
ROOT
ATOM      1  O   UNL     1      34.947 -16.197 -20.109  0.00  0.00    -0.265 OA
ATOM      2  N   UNL     1      33.949 -15.838 -22.221  0.00  0.00    -0.155 N 
ATOM      3  N   UNL     1      34.064 -16.538 -23.398  0.00  0.00    -0.285 N 
ATOM      4  N   UNL     1      32.446 -14.105 -22.944  0.00  0.00    -0.091 NA
ATOM      5  N   UNL     1      33.159 -14.095 -20.795  0.00  0.00    -0.068 NA
ATOM      6  N   UNL     1      31.958 -13.094 -22.211  0.00  0.00    -0.138 N 
ATOM      7  N   UNL     1      32.353 -13.049 -20.932  0.00  0.00    -0.020 NA
ATOM      8  C   UNL     1      35.344 -17.684 -21.963  0.00  0.00    +0.049 A 
ATOM      9  C   UNL     1      34.866 -17.634 -23.216  0.00  0.00    +0.052 A 
ATOM     10  C   UNL     1      34.744 -16.493 -21.276  0.00  0.00    +0.284 A 
ATOM     11  C   UNL     1      35.085 -18.592 -24.332  0.00  0.00    +0.051 C 
ATOM     12  C   UNL     1      33.200 -14.716 -22.015  0.00  0.00    +0.163 C 
ATOM     13  H   UNL     1      33.634 -16.288 -24.247  0.00  0.00    +0.188 HD
ATOM     14  H   UNL     1      31.345 -12.425 -22.592  0.00  0.00    +0.197 HD
ENDROOT
BRANCH   8  15
ATOM     15  C   UNL     1      36.229 -18.642 -21.266  0.00  0.00    +0.032 C 
ATOM     16  C   UNL     1      35.475 -19.862 -20.754  0.00  0.00    +0.005 C 
ENDBRANCH   8  15
TORSDOF 1
ENDMDL
MODEL 5
REMARK VINA RESULT:      -7.3      5.963      7.843
REMARK  Name = 5305969
REMARK  1 active torsions:
REMARK  status: ('A' for Active; 'I' for Inactive)
REMARK    1  A    between atoms: C_8  and  C_15
REMARK                            x       y       z     vdW  Elec       q    Type
REMARK                         _______ _______ _______ _____ _____    ______ ____
ROOT
ATOM      1  O   UNL     1      34.612 -15.999 -22.436  0.00  0.00    -0.265 OA
ATOM      2  N   UNL     1      34.190 -16.634 -24.673  0.00  0.00    -0.155 N 
ATOM      3  N   UNL     1      34.343 -17.844 -25.306  0.00  0.00    -0.285 N 
ATOM      4  N   UNL     1      33.389 -15.323 -26.524  0.00  0.00    -0.091 NA
ATOM      5  N   UNL     1      33.635 -14.318 -24.511  0.00  0.00    -0.068 NA
ATOM      6  N   UNL     1      33.058 -14.025 -26.519  0.00  0.00    -0.138 N 
ATOM      7  N   UNL     1      33.188 -13.389 -25.347  0.00  0.00    -0.020 NA
ATOM      8  C   UNL     1      34.951 -18.261 -23.193  0.00  0.00    +0.049 A 
ATOM      9  C   UNL     1      34.764 -18.791 -24.411  0.00  0.00    +0.052 A 
ATOM     10  C   UNL     1      34.572 -16.817 -23.341  0.00  0.00    +0.284 A 
ATOM     11  C   UNL     1      34.932 -20.204 -24.845  0.00  0.00    +0.051 C 
ATOM     12  C   UNL     1      33.749 -15.472 -25.239  0.00  0.00    +0.163 C 
ATOM     13  H   UNL     1      34.174 -18.005 -26.262  0.00  0.00    +0.188 HD
ATOM     14  H   UNL     1      32.739 -13.566 -27.329  0.00  0.00    +0.197 HD
ENDROOT
BRANCH   8  15
ATOM     15  C   UNL     1      35.386 -18.841 -21.904  0.00  0.00    +0.032 C 
ATOM     16  C   UNL     1      34.238 -19.491 -21.143  0.00  0.00    +0.005 C 
ENDBRANCH   8  15
TORSDOF 1
ENDMDL
MODEL 6
REMARK VINA RESULT:      -7.2      4.629      6.298
REMARK  Name = 5305969
REMARK  1 active torsions:
REMARK  status: ('A' for Active; 'I' for Inactive)
REMARK    1  A    between atoms: C_8  and  C_15
REMARK                            x       y       z     vdW  Elec       q    Type
REMARK                         _______ _______ _______ _____ _____    ______ ____
ROOT
ATOM      1  O   UNL     1      34.634 -14.840 -21.330  0.00  0.00    -0.265 OA
ATOM      2  N   UNL     1      34.497 -16.583 -22.921  0.00  0.00    -0.155 N 
ATOM      3  N   UNL     1      34.063 -16.576 -24.224  0.00  0.00    -0.285 N 
ATOM      4  N   UNL     1      35.056 -18.913 -22.709  0.00  0.00    -0.091 NA
ATOM      5  N   UNL     1      35.364 -17.558 -20.921  0.00  0.00    -0.068 NA
ATOM      6  N   UNL     1      35.544 -19.537 -21.628  0.00  0.00    -0.138 N 
ATOM      7  N   UNL     1      35.742 -18.773 -20.545  0.00  0.00    -0.020 NA
ATOM      8  C   UNL     1      33.859 -14.443 -23.576  0.00  0.00    +0.049 A 
ATOM      9  C   UNL     1      33.720 -15.303 -24.597  0.00  0.00    +0.052 A 
ATOM     10  C   UNL     1      34.380 -15.275 -22.442  0.00  0.00    +0.284 A 
ATOM     11  C   UNL     1      33.286 -15.026 -25.992  0.00  0.00    +0.051 C 
ATOM     12  C   UNL     1      34.955 -17.664 -22.224  0.00  0.00    +0.163 C 
ATOM     13  H   UNL     1      34.007 -17.369 -24.804  0.00  0.00    +0.188 HD
ATOM     14  H   UNL     1      35.743 -20.501 -21.630  0.00  0.00    +0.197 HD
ENDROOT
BRANCH   8  15
ATOM     15  C   UNL     1      33.631 -12.986 -23.456  0.00  0.00    +0.032 C 
ATOM     16  C   UNL     1      32.348 -12.660 -22.703  0.00  0.00    +0.005 C 
ENDBRANCH   8  15
TORSDOF 1
ENDMDL
MODEL 7
REMARK VINA RESULT:      -7.2      2.017      3.135
REMARK  Name = 5305969
REMARK  1 active torsions:
REMARK  status: ('A' for Active; 'I' for Inactive)
REMARK    1  A    between atoms: C_8  and  C_15
REMARK                            x       y       z     vdW  Elec       q    Type
REMARK                         _______ _______ _______ _____ _____    ______ ____
ROOT
ATOM      1  O   UNL     1      35.275 -22.865 -17.814  0.00  0.00    -0.265 OA
ATOM      2  N   UNL     1      33.096 -22.073 -18.273  0.00  0.00    -0.155 N 
ATOM      3  N   UNL     1      32.643 -21.202 -19.233  0.00  0.00    -0.285 N 
ATOM      4  N   UNL     1      31.018 -22.541 -17.157  0.00  0.00    -0.091 NA
ATOM      5  N   UNL     1      32.902 -23.543 -16.402  0.00  0.00    -0.068 NA
ATOM      6  N   UNL     1      30.822 -23.348 -16.105  0.00  0.00    -0.138 N 
ATOM      7  N   UNL     1      31.912 -23.963 -15.624  0.00  0.00    -0.020 NA
ATOM      8  C   UNL     1      34.837 -21.361 -19.644  0.00  0.00    +0.049 A 
ATOM      9  C   UNL     1      33.677 -20.819 -20.046  0.00  0.00    +0.052 A 
ATOM     10  C   UNL     1      34.475 -22.207 -18.459  0.00  0.00    +0.284 A 
ATOM     11  C   UNL     1      33.421 -19.931 -21.211  0.00  0.00    +0.051 C 
ATOM     12  C   UNL     1      32.343 -22.690 -17.316  0.00  0.00    +0.163 C 
ATOM     13  H   UNL     1      31.711 -20.899 -19.325  0.00  0.00    +0.188 HD
ATOM     14  H   UNL     1      29.931 -23.480 -15.709  0.00  0.00    +0.197 HD
ENDROOT
BRANCH   8  15
ATOM     15  C   UNL     1      36.218 -21.272 -20.167  0.00  0.00    +0.032 C 
ATOM     16  C   UNL     1      36.708 -19.833 -20.269  0.00  0.00    +0.005 C 
ENDBRANCH   8  15
TORSDOF 1
ENDMDL
MODEL 8
REMARK VINA RESULT:      -7.2      3.974      6.056
REMARK  Name = 5305969
REMARK  1 active torsions:
REMARK  status: ('A' for Active; 'I' for Inactive)
REMARK    1  A    between atoms: C_8  and  C_15
REMARK                            x       y       z     vdW  Elec       q    Type
REMARK                         _______ _______ _______ _____ _____    ______ ____
ROOT
ATOM      1  O   UNL     1      31.952 -24.010 -14.643  0.00  0.00    -0.265 OA
ATOM      2  N   UNL     1      31.166 -22.996 -16.628  0.00  0.00    -0.155 N 
ATOM      3  N   UNL     1      31.844 -22.552 -17.737  0.00  0.00    -0.285 N 
ATOM      4  N   UNL     1      28.926 -22.409 -17.279  0.00  0.00    -0.091 NA
ATOM      5  N   UNL     1      29.245 -23.403 -15.270  0.00  0.00    -0.068 NA
ATOM      6  N   UNL     1      27.799 -22.601 -16.579  0.00  0.00    -0.138 N 
ATOM      7  N   UNL     1      27.941 -23.187 -15.383  0.00  0.00    -0.020 NA
ATOM      8  C   UNL     1      33.450 -23.402 -16.429  0.00  0.00    +0.049 A 
ATOM      9  C   UNL     1      33.180 -22.826 -17.611  0.00  0.00    +0.052 A 
ATOM     10  C   UNL     1      32.117 -23.528 -15.752  0.00  0.00    +0.284 A 
ATOM     11  C   UNL     1      34.116 -22.504 -18.722  0.00  0.00    +0.051 C 
ATOM     12  C   UNL     1      29.818 -22.929 -16.419  0.00  0.00    +0.163 C 
ATOM     13  H   UNL     1      31.430 -22.103 -18.509  0.00  0.00    +0.188 HD
ATOM     14  H   UNL     1      26.920 -22.326 -16.925  0.00  0.00    +0.197 HD
ENDROOT
BRANCH   8  15
ATOM     15  C   UNL     1      34.704 -23.888 -15.814  0.00  0.00    +0.032 C 
ATOM     16  C   UNL     1      35.418 -22.803 -15.018  0.00  0.00    +0.005 C 
ENDBRANCH   8  15
TORSDOF 1
ENDMDL
MODEL 9
REMARK VINA RESULT:      -7.2      5.256      6.890
REMARK  Name = 5305969
REMARK  1 active torsions:
REMARK  status: ('A' for Active; 'I' for Inactive)
REMARK    1  A    between atoms: C_8  and  C_15
REMARK                            x       y       z     vdW  Elec       q    Type
REMARK                         _______ _______ _______ _____ _____    ______ ____
ROOT
ATOM      1  O   UNL     1      33.847 -16.997 -25.449  0.00  0.00    -0.265 OA
ATOM      2  N   UNL     1      34.322 -15.900 -23.410  0.00  0.00    -0.155 N 
ATOM      3  N   UNL     1      34.180 -14.583 -23.046  0.00  0.00    -0.285 N 
ATOM      4  N   UNL     1      35.232 -16.774 -21.363  0.00  0.00    -0.091 NA
ATOM      5  N   UNL     1      34.907 -18.193 -23.097  0.00  0.00    -0.068 NA
ATOM      6  N   UNL     1      35.587 -18.041 -21.105  0.00  0.00    -0.138 N 
ATOM      7  N   UNL     1      35.411 -18.916 -22.105  0.00  0.00    -0.020 NA
ATOM      8  C   UNL     1      33.415 -14.646 -25.149  0.00  0.00    +0.049 A 
ATOM      9  C   UNL     1      33.619 -13.870 -24.073  0.00  0.00    +0.052 A 
ATOM     10  C   UNL     1      33.876 -16.011 -24.730  0.00  0.00    +0.284 A 
ATOM     11  C   UNL     1      33.298 -12.429 -23.893  0.00  0.00    +0.051 C 
ATOM     12  C   UNL     1      34.807 -16.909 -22.630  0.00  0.00    +0.163 C 
ATOM     13  H   UNL     1      34.442 -14.207 -22.175  0.00  0.00    +0.188 HD
ATOM     14  H   UNL     1      35.955 -18.311 -20.234  0.00  0.00    +0.197 HD
ENDROOT
BRANCH   8  15
ATOM     15  C   UNL     1      32.844 -14.374 -26.486  0.00  0.00    +0.032 C 
ATOM     16  C   UNL     1      33.655 -13.346 -27.265  0.00  0.00    +0.005 C 
ENDBRANCH   8  15
TORSDOF 1
ENDMDL
