MODEL 1
REMARK VINA RESULT:      -8.8      0.000      0.000
REMARK  Name = 6196
REMARK  5 active torsions:
REMARK  status: ('A' for Active; 'I' for Inactive)
REMARK    1  A    between atoms: N_2  and  CA_11
REMARK    2  A    between atoms: C_3  and  C_21
REMARK    3  A    between atoms: CA_10  and  C_16
REMARK    4  A    between atoms: C_16  and  O_17
REMARK    5  A    between atoms: C_22  and  C_25
REMARK                            x       y       z     vdW  Elec       q    Type
REMARK                         _______ _______ _______ _____ _____    ______ ____
ROOT
ATOM      1  O   UNL     1      32.315 -12.940 -24.232  0.00  0.00    -0.270 OA
ATOM      2  N   UNL     1      33.123 -11.168 -22.998  0.00  0.00    -0.293 N 
ATOM      3  C   UNL     1      32.677 -12.487 -23.146  0.00  0.00    +0.251 C 
ATOM      4  H   UNL     1      33.400 -10.860 -22.105  0.00  0.00    +0.150 HD
ENDROOT
BRANCH   2  11
ATOM      5  S   UNL     1      31.199  -8.828 -22.615  0.00  0.00    -0.118 S 
ATOM      6  O   UNL     1      35.438  -9.087 -23.702  0.00  0.00    -0.273 OA
ATOM      7  N   UNL     1      33.299  -8.153 -24.037  0.00  0.00    -0.260 N 
ATOM      8  C   UNL     1      32.169  -9.077 -24.150  0.00  0.00    +0.151 C 
ATOM      9  C   UNL     1      32.277  -7.446 -21.990  0.00  0.00    +0.068 C 
ATOM     10  CA  UNL     1      33.164  -7.001 -23.175  0.00  0.00    +0.184 C 
ATOM     11  CA  UNL     1      33.193 -10.224 -24.122  0.00  0.00    +0.178 C 
ATOM     12  C   UNL     1      34.255  -9.121 -23.949  0.00  0.00    +0.247 C 
ATOM     13  C   UNL     1      31.387  -6.332 -21.428  0.00  0.00    +0.013 C 
ATOM     14  C   UNL     1      33.139  -8.016 -20.851  0.00  0.00    +0.013 C 
BRANCH  10  16
ATOM     15  OXT UNL     1      31.576  -5.291 -23.807  0.00  0.00    -0.248 OA
ATOM     16  C   UNL     1      32.571  -5.952 -24.067  0.00  0.00    +0.333 C 
BRANCH  16  17
ATOM     17  O   UNL     1      33.288  -5.836 -25.211  0.00  0.00    -0.479 OA
ATOM     18  H   UNL     1      33.291  -5.025 -25.681  0.00  0.00    +0.295 HD
ENDBRANCH  16  17
ENDBRANCH  10  16
ENDBRANCH   2  11
BRANCH   3  21
ATOM     19  O   UNL     1      32.390 -13.958 -19.858  0.00  0.00    -0.358 OA
ATOM     20  N   UNL     1      33.010 -15.018 -20.508  0.00  0.00    -0.077 NA
ATOM     21  C   UNL     1      32.693 -13.319 -21.936  0.00  0.00    +0.107 A 
ATOM     22  C   UNL     1      33.180 -14.600 -21.766  0.00  0.00    +0.127 A 
ATOM     23  C   UNL     1      32.205 -12.939 -20.737  0.00  0.00    +0.159 A 
ATOM     24  C   UNL     1      31.557 -11.733 -20.206  0.00  0.00    +0.076 C 
BRANCH  22  25
ATOM     25  C   UNL     1      33.805 -15.459 -22.738  0.00  0.00    +0.021 C 
ATOM     26  C   UNL     1      33.506 -15.311 -24.090  0.00  0.00    +0.002 C 
ATOM     27  C   UNL     1      34.706 -16.437 -22.321  0.00  0.00    +0.002 C 
ATOM     28  C   UNL     1      34.111 -16.145 -25.031  0.00  0.00    +0.000 C 
ATOM     29  C   UNL     1      35.311 -17.270 -23.262  0.00  0.00    +0.000 C 
ATOM     30  C   UNL     1      35.014 -17.124 -24.617  0.00  0.00    +0.000 C 
ENDBRANCH  22  25
ENDBRANCH   3  21
TORSDOF 5
ENDMDL
MODEL 2
REMARK VINA RESULT:      -8.5      1.247      1.483
REMARK  Name = 6196
REMARK  5 active torsions:
REMARK  status: ('A' for Active; 'I' for Inactive)
REMARK    1  A    between atoms: N_2  and  CA_11
REMARK    2  A    between atoms: C_3  and  C_21
REMARK    3  A    between atoms: CA_10  and  C_16
REMARK    4  A    between atoms: C_16  and  O_17
REMARK    5  A    between atoms: C_22  and  C_25
REMARK                            x       y       z     vdW  Elec       q    Type
REMARK                         _______ _______ _______ _____ _____    ______ ____
ROOT
ATOM      1  O   UNL     1      33.780 -11.631 -24.351  0.00  0.00    -0.270 OA
ATOM      2  N   UNL     1      32.559 -10.005 -23.266  0.00  0.00    -0.293 N 
ATOM      3  C   UNL     1      33.039 -11.311 -23.422  0.00  0.00    +0.251 C 
ATOM      4  H   UNL     1      31.969  -9.806 -22.504  0.00  0.00    +0.150 HD
ENDROOT
BRANCH   2  11
ATOM      5  S   UNL     1      30.488  -7.762 -23.175  0.00  0.00    -0.118 S 
ATOM      6  O   UNL     1      34.869  -7.818 -23.001  0.00  0.00    -0.273 OA
ATOM      7  N   UNL     1      32.871  -6.876 -23.828  0.00  0.00    -0.260 N 
ATOM      8  C   UNL     1      31.870  -7.792 -24.379  0.00  0.00    +0.151 C 
ATOM      9  C   UNL     1      31.269  -6.461 -22.098  0.00  0.00    +0.068 C 
ATOM     10  CA  UNL     1      32.435  -5.850 -22.908  0.00  0.00    +0.184 C 
ATOM     11  CA  UNL     1      32.901  -8.918 -24.195  0.00  0.00    +0.178 C 
ATOM     12  C   UNL     1      33.810  -7.835 -23.585  0.00  0.00    +0.247 C 
ATOM     13  C   UNL     1      30.200  -5.443 -21.687  0.00  0.00    +0.013 C 
ATOM     14  C   UNL     1      31.795  -7.166 -20.836  0.00  0.00    +0.013 C 
BRANCH  10  16
ATOM     15  OXT UNL     1      31.885  -4.779 -25.004  0.00  0.00    -0.248 OA
ATOM     16  C   UNL     1      32.070  -4.701 -23.798  0.00  0.00    +0.333 C 
BRANCH  16  17
ATOM     17  O   UNL     1      31.975  -3.554 -23.083  0.00  0.00    -0.479 OA
ATOM     18  H   UNL     1      31.449  -3.527 -22.308  0.00  0.00    +0.295 HD
ENDBRANCH  16  17
ENDBRANCH  10  16
ENDBRANCH   2  11
BRANCH   3  21
ATOM     19  O   UNL     1      31.801 -13.104 -20.539  0.00  0.00    -0.358 OA
ATOM     20  N   UNL     1      32.278 -14.185 -21.269  0.00  0.00    -0.077 NA
ATOM     21  C   UNL     1      32.633 -12.279 -22.395  0.00  0.00    +0.107 A 
ATOM     22  C   UNL     1      32.776 -13.653 -22.389  0.00  0.00    +0.127 A 
ATOM     23  C   UNL     1      32.024 -11.959 -21.235  0.00  0.00    +0.159 A 
ATOM     24  C   UNL     1      31.576 -10.714 -20.598  0.00  0.00    +0.076 C 
BRANCH  22  25
ATOM     25  C   UNL     1      33.365 -14.499 -23.395  0.00  0.00    +0.021 C 
ATOM     26  C   UNL     1      32.854 -14.496 -24.690  0.00  0.00    +0.002 C 
ATOM     27  C   UNL     1      34.441 -15.320 -23.067  0.00  0.00    +0.002 C 
ATOM     28  C   UNL     1      33.424 -15.317 -25.664  0.00  0.00    +0.000 C 
ATOM     29  C   UNL     1      35.011 -16.140 -24.040  0.00  0.00    +0.000 C 
ATOM     30  C   UNL     1      34.503 -16.138 -25.339  0.00  0.00    +0.000 C 
ENDBRANCH  22  25
ENDBRANCH   3  21
TORSDOF 5
ENDMDL
MODEL 3
REMARK VINA RESULT:      -7.9      2.669      7.784
REMARK  Name = 6196
REMARK  5 active torsions:
REMARK  status: ('A' for Active; 'I' for Inactive)
REMARK    1  A    between atoms: N_2  and  CA_11
REMARK    2  A    between atoms: C_3  and  C_21
REMARK    3  A    between atoms: CA_10  and  C_16
REMARK    4  A    between atoms: C_16  and  O_17
REMARK    5  A    between atoms: C_22  and  C_25
REMARK                            x       y       z     vdW  Elec       q    Type
REMARK                         _______ _______ _______ _____ _____    ______ ____
ROOT
ATOM      1  O   UNL     1      32.814 -10.731 -24.648  0.00  0.00    -0.270 OA
ATOM      2  N   UNL     1      33.557 -12.214 -23.047  0.00  0.00    -0.293 N 
ATOM      3  C   UNL     1      32.930 -11.032 -23.460  0.00  0.00    +0.251 C 
ATOM      4  H   UNL     1      33.621 -12.404 -22.083  0.00  0.00    +0.150 HD
ENDROOT
BRANCH   2  11
ATOM      5  S   UNL     1      34.874 -14.557 -21.597  0.00  0.00    -0.118 S 
ATOM      6  O   UNL     1      32.020 -14.296 -24.915  0.00  0.00    -0.273 OA
ATOM      7  N   UNL     1      33.950 -15.251 -23.953  0.00  0.00    -0.260 N 
ATOM      8  C   UNL     1      34.959 -14.337 -23.415  0.00  0.00    +0.151 C 
ATOM      9  C   UNL     1      33.607 -15.917 -21.679  0.00  0.00    +0.068 C 
ATOM     10  CA  UNL     1      33.548 -16.384 -23.151  0.00  0.00    +0.184 C 
ATOM     11  CA  UNL     1      34.124 -13.184 -23.995  0.00  0.00    +0.178 C 
ATOM     12  C   UNL     1      33.133 -14.275 -24.442  0.00  0.00    +0.247 C 
ATOM     13  C   UNL     1      33.996 -17.024 -20.693  0.00  0.00    +0.013 C 
ATOM     14  C   UNL     1      32.259 -15.316 -21.246  0.00  0.00    +0.013 C 
BRANCH  10  16
ATOM     15  OXT UNL     1      34.519 -18.597 -23.087  0.00  0.00    -0.248 OA
ATOM     16  C   UNL     1      34.524 -17.457 -23.529  0.00  0.00    +0.333 C 
BRANCH  16  17
ATOM     17  O   UNL     1      35.423 -16.991 -24.429  0.00  0.00    -0.479 OA
ATOM     18  H   UNL     1      35.885 -17.589 -24.982  0.00  0.00    +0.295 HD
ENDBRANCH  16  17
ENDBRANCH  10  16
ENDBRANCH   2  11
BRANCH   3  21
ATOM     19  O   UNL     1      31.438  -9.564 -20.515  0.00  0.00    -0.358 OA
ATOM     20  N   UNL     1      31.762  -8.394 -21.190  0.00  0.00    -0.077 NA
ATOM     21  C   UNL     1      32.387 -10.178 -22.396  0.00  0.00    +0.107 A 
ATOM     22  C   UNL     1      32.337  -8.800 -22.326  0.00  0.00    +0.127 A 
ATOM     23  C   UNL     1      31.823 -10.633 -21.258  0.00  0.00    +0.159 A 
ATOM     24  C   UNL     1      31.550 -11.957 -20.683  0.00  0.00    +0.076 C 
BRANCH  22  25
ATOM     25  C   UNL     1      32.806  -7.834 -23.286  0.00  0.00    +0.021 C 
ATOM     26  C   UNL     1      34.161  -7.771 -23.602  0.00  0.00    +0.002 C 
ATOM     27  C   UNL     1      31.903  -6.965 -23.893  0.00  0.00    +0.002 C 
ATOM     28  C   UNL     1      34.615  -6.835 -24.531  0.00  0.00    +0.000 C 
ATOM     29  C   UNL     1      32.357  -6.029 -24.822  0.00  0.00    +0.000 C 
ATOM     30  C   UNL     1      33.713  -5.964 -25.142  0.00  0.00    +0.000 C 
ENDBRANCH  22  25
ENDBRANCH   3  21
TORSDOF 5
ENDMDL
MODEL 4
REMARK VINA RESULT:      -7.6     10.238     14.964
REMARK  Name = 6196
REMARK  5 active torsions:
REMARK  status: ('A' for Active; 'I' for Inactive)
REMARK    1  A    between atoms: N_2  and  CA_11
REMARK    2  A    between atoms: C_3  and  C_21
REMARK    3  A    between atoms: CA_10  and  C_16
REMARK    4  A    between atoms: C_16  and  O_17
REMARK    5  A    between atoms: C_22  and  C_25
REMARK                            x       y       z     vdW  Elec       q    Type
REMARK                         _______ _______ _______ _____ _____    ______ ____
ROOT
ATOM      1  O   UNL     1      36.677 -21.024 -17.538  0.00  0.00    -0.270 OA
ATOM      2  N   UNL     1      36.335 -23.161 -16.746  0.00  0.00    -0.293 N 
ATOM      3  C   UNL     1      35.974 -22.034 -17.493  0.00  0.00    +0.251 C 
ATOM      4  H   UNL     1      35.734 -23.941 -16.746  0.00  0.00    +0.150 HD
ENDROOT
BRANCH   2  11
ATOM      5  S   UNL     1      35.824 -22.553 -13.797  0.00  0.00    -0.118 S 
ATOM      6  O   UNL     1      37.998 -25.743 -15.875  0.00  0.00    -0.273 OA
ATOM      7  N   UNL     1      37.870 -24.162 -14.130  0.00  0.00    -0.260 N 
ATOM      8  C   UNL     1      37.506 -22.790 -14.487  0.00  0.00    +0.151 C 
ATOM      9  C   UNL     1      35.767 -24.227 -12.987  0.00  0.00    +0.068 C 
ATOM     10  CA  UNL     1      37.210 -24.780 -13.002  0.00  0.00    +0.184 C 
ATOM     11  CA  UNL     1      37.575 -23.228 -15.959  0.00  0.00    +0.178 C 
ATOM     12  C   UNL     1      37.893 -24.632 -15.410  0.00  0.00    +0.247 C 
ATOM     13  C   UNL     1      35.173 -24.083 -11.581  0.00  0.00    +0.013 C 
ATOM     14  C   UNL     1      34.837 -25.115 -13.831  0.00  0.00    +0.013 C 
BRANCH  10  16
ATOM     15  OXT UNL     1      38.478 -23.265 -11.609  0.00  0.00    -0.248 OA
ATOM     16  C   UNL     1      38.062 -24.393 -11.831  0.00  0.00    +0.333 C 
BRANCH  16  17
ATOM     17  O   UNL     1      38.315 -25.468 -11.046  0.00  0.00    -0.479 OA
ATOM     18  H   UNL     1      38.493 -26.301 -11.435  0.00  0.00    +0.295 HD
ENDBRANCH  16  17
ENDBRANCH  10  16
ENDBRANCH   2  11
BRANCH   3  21
ATOM     19  O   UNL     1      32.700 -22.753 -18.843  0.00  0.00    -0.358 OA
ATOM     20  N   UNL     1      33.118 -21.825 -19.789  0.00  0.00    -0.077 NA
ATOM     21  C   UNL     1      34.720 -22.130 -18.251  0.00  0.00    +0.107 A 
ATOM     22  C   UNL     1      34.346 -21.466 -19.403  0.00  0.00    +0.127 A 
ATOM     23  C   UNL     1      33.682 -22.924 -17.920  0.00  0.00    +0.159 A 
ATOM     24  C   UNL     1      33.399 -23.880 -16.841  0.00  0.00    +0.076 C 
BRANCH  22  25
ATOM     25  C   UNL     1      35.093 -20.501 -20.167  0.00  0.00    +0.021 C 
ATOM     26  C   UNL     1      34.425 -19.494 -20.857  0.00  0.00    +0.002 C 
ATOM     27  C   UNL     1      36.483 -20.581 -20.214  0.00  0.00    +0.002 C 
ATOM     28  C   UNL     1      35.149 -18.560 -21.598  0.00  0.00    +0.000 C 
ATOM     29  C   UNL     1      37.208 -19.647 -20.954  0.00  0.00    +0.000 C 
ATOM     30  C   UNL     1      36.541 -18.636 -21.646  0.00  0.00    +0.000 C 
ENDBRANCH  22  25
ENDBRANCH   3  21
TORSDOF 5
ENDMDL
MODEL 5
REMARK VINA RESULT:      -7.6     11.740     15.569
REMARK  Name = 6196
REMARK  5 active torsions:
REMARK  status: ('A' for Active; 'I' for Inactive)
REMARK    1  A    between atoms: N_2  and  CA_11
REMARK    2  A    between atoms: C_3  and  C_21
REMARK    3  A    between atoms: CA_10  and  C_16
REMARK    4  A    between atoms: C_16  and  O_17
REMARK    5  A    between atoms: C_22  and  C_25
REMARK                            x       y       z     vdW  Elec       q    Type
REMARK                         _______ _______ _______ _____ _____    ______ ____
ROOT
ATOM      1  O   UNL     1      35.730 -23.251 -16.931  0.00  0.00    -0.270 OA
ATOM      2  N   UNL     1      35.106 -22.446 -14.863  0.00  0.00    -0.293 N 
ATOM      3  C   UNL     1      34.836 -22.907 -16.157  0.00  0.00    +0.251 C 
ATOM      4  H   UNL     1      34.351 -22.185 -14.288  0.00  0.00    +0.150 HD
ENDROOT
BRANCH   2  11
ATOM      5  S   UNL     1      35.860 -24.898 -13.205  0.00  0.00    -0.118 S 
ATOM      6  O   UNL     1      37.877 -22.709 -16.424  0.00  0.00    -0.273 OA
ATOM      7  N   UNL     1      37.955 -23.786 -14.327  0.00  0.00    -0.260 N 
ATOM      8  C   UNL     1      36.935 -23.421 -13.342  0.00  0.00    +0.151 C 
ATOM      9  C   UNL     1      36.892 -25.931 -14.359  0.00  0.00    +0.068 C 
ATOM     10  CA  UNL     1      38.234 -25.188 -14.544  0.00  0.00    +0.184 C 
ATOM     11  CA  UNL     1      36.470 -22.336 -14.328  0.00  0.00    +0.178 C 
ATOM     12  C   UNL     1      37.558 -22.885 -15.271  0.00  0.00    +0.247 C 
ATOM     13  C   UNL     1      37.039 -27.339 -13.773  0.00  0.00    +0.013 C 
ATOM     14  C   UNL     1      36.134 -26.025 -15.694  0.00  0.00    +0.013 C 
BRANCH  10  16
ATOM     15  OXT UNL     1      39.091 -26.033 -12.448  0.00  0.00    -0.248 OA
ATOM     16  C   UNL     1      39.293 -25.504 -13.531  0.00  0.00    +0.333 C 
BRANCH  16  17
ATOM     17  O   UNL     1      40.513 -25.120 -13.978  0.00  0.00    -0.479 OA
ATOM     18  H   UNL     1      41.192 -25.755 -14.088  0.00  0.00    +0.295 HD
ENDBRANCH  16  17
ENDBRANCH  10  16
ENDBRANCH   2  11
BRANCH   3  21
ATOM     19  O   UNL     1      31.280 -23.472 -16.462  0.00  0.00    -0.358 OA
ATOM     20  N   UNL     1      31.484 -22.773 -17.646  0.00  0.00    -0.077 NA
ATOM     21  C   UNL     1      33.420 -22.989 -16.537  0.00  0.00    +0.107 A 
ATOM     22  C   UNL     1      32.791 -22.495 -17.663  0.00  0.00    +0.127 A 
ATOM     23  C   UNL     1      32.462 -23.592 -15.804  0.00  0.00    +0.159 A 
ATOM     24  C   UNL     1      32.422 -24.311 -14.524  0.00  0.00    +0.076 C 
BRANCH  22  25
ATOM     25  C   UNL     1      33.363 -21.766 -18.765  0.00  0.00    +0.021 C 
ATOM     26  C   UNL     1      34.698 -21.961 -19.108  0.00  0.00    +0.002 C 
ATOM     27  C   UNL     1      32.578 -20.866 -19.483  0.00  0.00    +0.002 C 
ATOM     28  C   UNL     1      35.253 -21.254 -20.174  0.00  0.00    +0.000 C 
ATOM     29  C   UNL     1      33.132 -20.159 -20.550  0.00  0.00    +0.000 C 
ATOM     30  C   UNL     1      34.469 -20.353 -20.896  0.00  0.00    +0.000 C 
ENDBRANCH  22  25
ENDBRANCH   3  21
TORSDOF 5
ENDMDL
MODEL 6
REMARK VINA RESULT:      -7.6     11.175     15.563
REMARK  Name = 6196
REMARK  5 active torsions:
REMARK  status: ('A' for Active; 'I' for Inactive)
REMARK    1  A    between atoms: N_2  and  CA_11
REMARK    2  A    between atoms: C_3  and  C_21
REMARK    3  A    between atoms: CA_10  and  C_16
REMARK    4  A    between atoms: C_16  and  O_17
REMARK    5  A    between atoms: C_22  and  C_25
REMARK                            x       y       z     vdW  Elec       q    Type
REMARK                         _______ _______ _______ _____ _____    ______ ____
ROOT
ATOM      1  O   UNL     1      34.470 -24.696 -18.008  0.00  0.00    -0.270 OA
ATOM      2  N   UNL     1      35.056 -23.413 -16.185  0.00  0.00    -0.293 N 
ATOM      3  C   UNL     1      34.190 -23.795 -17.217  0.00  0.00    +0.251 C 
ATOM      4  H   UNL     1      34.781 -22.686 -15.582  0.00  0.00    +0.150 HD
ENDROOT
BRANCH   2  11
ATOM      5  S   UNL     1      36.164 -22.777 -13.411  0.00  0.00    -0.118 S 
ATOM      6  O   UNL     1      35.694 -26.500 -15.680  0.00  0.00    -0.273 OA
ATOM      7  N   UNL     1      36.996 -25.104 -14.294  0.00  0.00    -0.260 N 
ATOM      8  C   UNL     1      37.119 -23.697 -14.677  0.00  0.00    +0.151 C 
ATOM      9  C   UNL     1      35.773 -24.292 -12.404  0.00  0.00    +0.068 C 
ATOM     10  CA  UNL     1      36.695 -25.421 -12.916  0.00  0.00    +0.184 C 
ATOM     11  CA  UNL     1      36.361 -24.053 -15.967  0.00  0.00    +0.178 C 
ATOM     12  C   UNL     1      36.271 -25.478 -15.387  0.00  0.00    +0.247 C 
ATOM     13  C   UNL     1      35.959 -23.966 -10.918  0.00  0.00    +0.013 C 
ATOM     14  C   UNL     1      34.296 -24.641 -12.655  0.00  0.00    +0.013 C 
BRANCH  10  16
ATOM     15  OXT UNL     1      38.319 -25.036 -11.167  0.00  0.00    -0.248 OA
ATOM     16  C   UNL     1      38.042 -25.501 -12.264  0.00  0.00    +0.333 C 
BRANCH  16  17
ATOM     17  O   UNL     1      38.920 -26.161 -13.057  0.00  0.00    -0.479 OA
ATOM     18  H   UNL     1      38.722 -26.297 -13.962  0.00  0.00    +0.295 HD
ENDBRANCH  16  17
ENDBRANCH  10  16
ENDBRANCH   2  11
BRANCH   3  21
ATOM     19  O   UNL     1      30.839 -22.492 -16.856  0.00  0.00    -0.358 OA
ATOM     20  N   UNL     1      31.279 -21.660 -17.878  0.00  0.00    -0.077 NA
ATOM     21  C   UNL     1      32.909 -23.082 -17.288  0.00  0.00    +0.107 A 
ATOM     22  C   UNL     1      32.536 -22.042 -18.118  0.00  0.00    +0.127 A 
ATOM     23  C   UNL     1      31.839 -23.345 -16.511  0.00  0.00    +0.159 A 
ATOM     24  C   UNL     1      31.536 -24.300 -15.436  0.00  0.00    +0.076 C 
BRANCH  22  25
ATOM     25  C   UNL     1      33.313 -21.383 -19.136  0.00  0.00    +0.021 C 
ATOM     26  C   UNL     1      34.679 -21.633 -19.239  0.00  0.00    +0.002 C 
ATOM     27  C   UNL     1      32.694 -20.497 -20.014  0.00  0.00    +0.002 C 
ATOM     28  C   UNL     1      35.430 -20.994 -20.224  0.00  0.00    +0.000 C 
ATOM     29  C   UNL     1      33.445 -19.857 -21.001  0.00  0.00    +0.000 C 
ATOM     30  C   UNL     1      34.813 -20.106 -21.106  0.00  0.00    +0.000 C 
ENDBRANCH  22  25
ENDBRANCH   3  21
TORSDOF 5
ENDMDL
MODEL 7
REMARK VINA RESULT:      -7.3      2.102      6.948
REMARK  Name = 6196
REMARK  5 active torsions:
REMARK  status: ('A' for Active; 'I' for Inactive)
REMARK    1  A    between atoms: N_2  and  CA_11
REMARK    2  A    between atoms: C_3  and  C_21
REMARK    3  A    between atoms: CA_10  and  C_16
REMARK    4  A    between atoms: C_16  and  O_17
REMARK    5  A    between atoms: C_22  and  C_25
REMARK                            x       y       z     vdW  Elec       q    Type
REMARK                         _______ _______ _______ _____ _____    ______ ____
ROOT
ATOM      1  O   UNL     1      35.084  -8.697 -23.576  0.00  0.00    -0.270 OA
ATOM      2  N   UNL     1      33.416 -10.030 -24.444  0.00  0.00    -0.293 N 
ATOM      3  C   UNL     1      33.885  -8.888 -23.784  0.00  0.00    +0.251 C 
ATOM      4  H   UNL     1      32.446 -10.131 -24.583  0.00  0.00    +0.150 HD
ENDROOT
BRANCH   2  11
ATOM      5  S   UNL     1      33.736 -12.273 -22.395  0.00  0.00    -0.118 S 
ATOM      6  O   UNL     1      32.848 -12.227 -26.689  0.00  0.00    -0.273 OA
ATOM      7  N   UNL     1      34.020 -13.139 -24.856  0.00  0.00    -0.260 N 
ATOM      8  C   UNL     1      34.697 -12.205 -23.955  0.00  0.00    +0.151 C 
ATOM      9  C   UNL     1      32.588 -13.608 -22.995  0.00  0.00    +0.068 C 
ATOM     10  CA  UNL     1      33.216 -14.194 -24.280  0.00  0.00    +0.184 C 
ATOM     11  CA  UNL     1      34.311 -11.086 -24.937  0.00  0.00    +0.178 C 
ATOM     12  C   UNL     1      33.596 -12.190 -25.739  0.00  0.00    +0.247 C 
ATOM     13  C   UNL     1      32.391 -14.638 -21.877  0.00  0.00    +0.013 C 
ATOM     14  C   UNL     1      31.235 -12.946 -23.305  0.00  0.00    +0.013 C 
BRANCH  10  16
ATOM     15  OXT UNL     1      35.100 -15.308 -23.254  0.00  0.00    -0.248 OA
ATOM     16  C   UNL     1      34.190 -15.313 -24.071  0.00  0.00    +0.333 C 
BRANCH  16  17
ATOM     17  O   UNL     1      33.929 -16.340 -24.915  0.00  0.00    -0.479 OA
ATOM     18  H   UNL     1      34.630 -16.764 -25.368  0.00  0.00    +0.295 HD
ENDBRANCH  16  17
ENDBRANCH  10  16
ENDBRANCH   2  11
BRANCH   3  21
ATOM     19  O   UNL     1      31.645  -6.087 -23.343  0.00  0.00    -0.358 OA
ATOM     20  N   UNL     1      31.200  -6.879 -22.292  0.00  0.00    -0.077 NA
ATOM     21  C   UNL     1      32.870  -7.908 -23.377  0.00  0.00    +0.107 A 
ATOM     22  C   UNL     1      31.962  -7.976 -22.339  0.00  0.00    +0.127 A 
ATOM     23  C   UNL     1      32.655  -6.726 -23.989  0.00  0.00    +0.159 A 
ATOM     24  C   UNL     1      33.243  -6.019 -25.135  0.00  0.00    +0.076 C 
BRANCH  22  25
ATOM     25  C   UNL     1      31.773  -9.032 -21.378  0.00  0.00    +0.021 C 
ATOM     26  C   UNL     1      30.957 -10.116 -21.689  0.00  0.00    +0.002 C 
ATOM     27  C   UNL     1      32.407  -8.963 -20.139  0.00  0.00    +0.002 C 
ATOM     28  C   UNL     1      30.773 -11.138 -20.758  0.00  0.00    +0.000 C 
ATOM     29  C   UNL     1      32.224  -9.985 -19.208  0.00  0.00    +0.000 C 
ATOM     30  C   UNL     1      31.407 -11.073 -19.517  0.00  0.00    +0.000 C 
ENDBRANCH  22  25
ENDBRANCH   3  21
TORSDOF 5
ENDMDL
MODEL 8
REMARK VINA RESULT:      -7.1      2.521      4.259
REMARK  Name = 6196
REMARK  5 active torsions:
REMARK  status: ('A' for Active; 'I' for Inactive)
REMARK    1  A    between atoms: N_2  and  CA_11
REMARK    2  A    between atoms: C_3  and  C_21
REMARK    3  A    between atoms: CA_10  and  C_16
REMARK    4  A    between atoms: C_16  and  O_17
REMARK    5  A    between atoms: C_22  and  C_25
REMARK                            x       y       z     vdW  Elec       q    Type
REMARK                         _______ _______ _______ _____ _____    ______ ____
ROOT
ATOM      1  O   UNL     1      35.670  -9.611 -23.990  0.00  0.00    -0.270 OA
ATOM      2  N   UNL     1      33.497  -9.492 -23.230  0.00  0.00    -0.293 N 
ATOM      3  C   UNL     1      34.531 -10.078 -23.970  0.00  0.00    +0.251 C 
ATOM      4  H   UNL     1      32.605  -9.909 -23.251  0.00  0.00    +0.150 HD
ENDROOT
BRANCH   2  11
ATOM      5  S   UNL     1      32.695  -6.983 -24.776  0.00  0.00    -0.118 S 
ATOM      6  O   UNL     1      31.767  -8.461 -20.754  0.00  0.00    -0.273 OA
ATOM      7  N   UNL     1      32.374  -6.689 -22.188  0.00  0.00    -0.260 N 
ATOM      8  C   UNL     1      33.479  -6.923 -23.119  0.00  0.00    +0.151 C 
ATOM      9  C   UNL     1      30.994  -6.578 -24.140  0.00  0.00    +0.068 C 
ATOM     10  CA  UNL     1      31.166  -6.074 -22.690  0.00  0.00    +0.184 C 
ATOM     11  CA  UNL     1      33.688  -8.278 -22.423  0.00  0.00    +0.178 C 
ATOM     12  C   UNL     1      32.467  -7.899 -21.564  0.00  0.00    +0.247 C 
ATOM     13  C   UNL     1      30.340  -5.556 -25.077  0.00  0.00    +0.013 C 
ATOM     14  C   UNL     1      30.171  -7.877 -24.170  0.00  0.00    +0.013 C 
BRANCH  10  16
ATOM     15  OXT UNL     1      32.375  -4.008 -23.023  0.00  0.00    -0.248 OA
ATOM     16  C   UNL     1      31.423  -4.605 -22.542  0.00  0.00    +0.333 C 
BRANCH  16  17
ATOM     17  O   UNL     1      30.454  -4.022 -21.796  0.00  0.00    -0.479 OA
ATOM     18  H   UNL     1      29.649  -4.475 -21.636  0.00  0.00    +0.295 HD
ENDBRANCH  16  17
ENDBRANCH  10  16
ENDBRANCH   2  11
BRANCH   3  21
ATOM     19  O   UNL     1      34.039 -12.772 -26.328  0.00  0.00    -0.358 OA
ATOM     20  N   UNL     1      33.402 -13.336 -25.229  0.00  0.00    -0.077 NA
ATOM     21  C   UNL     1      34.192 -11.305 -24.702  0.00  0.00    +0.107 A 
ATOM     22  C   UNL     1      33.511 -12.422 -24.260  0.00  0.00    +0.127 A 
ATOM     23  C   UNL     1      34.511 -11.544 -25.991  0.00  0.00    +0.159 A 
ATOM     24  C   UNL     1      35.217 -10.807 -27.047  0.00  0.00    +0.076 C 
BRANCH  22  25
ATOM     25  C   UNL     1      32.952 -12.677 -22.958  0.00  0.00    +0.021 C 
ATOM     26  C   UNL     1      31.989 -11.817 -22.435  0.00  0.00    +0.002 C 
ATOM     27  C   UNL     1      33.378 -13.782 -22.224  0.00  0.00    +0.002 C 
ATOM     28  C   UNL     1      31.449 -12.063 -21.173  0.00  0.00    +0.000 C 
ATOM     29  C   UNL     1      32.838 -14.029 -20.962  0.00  0.00    +0.000 C 
ATOM     30  C   UNL     1      31.873 -13.169 -20.437  0.00  0.00    +0.000 C 
ENDBRANCH  22  25
ENDBRANCH   3  21
TORSDOF 5
ENDMDL
MODEL 9
REMARK VINA RESULT:      -7.0      3.335      4.864
REMARK  Name = 6196
REMARK  5 active torsions:
REMARK  status: ('A' for Active; 'I' for Inactive)
REMARK    1  A    between atoms: N_2  and  CA_11
REMARK    2  A    between atoms: C_3  and  C_21
REMARK    3  A    between atoms: CA_10  and  C_16
REMARK    4  A    between atoms: C_16  and  O_17
REMARK    5  A    between atoms: C_22  and  C_25
REMARK                            x       y       z     vdW  Elec       q    Type
REMARK                         _______ _______ _______ _____ _____    ______ ____
ROOT
ATOM      1  O   UNL     1      33.070  -8.428 -20.059  0.00  0.00    -0.270 OA
ATOM      2  N   UNL     1      31.554  -7.676 -21.625  0.00  0.00    -0.293 N 
ATOM      3  C   UNL     1      32.255  -8.681 -20.947  0.00  0.00    +0.251 C 
ATOM      4  H   UNL     1      30.914  -7.937 -22.326  0.00  0.00    +0.150 HD
ENDROOT
BRANCH   2  11
ATOM      5  S   UNL     1      32.972  -6.235 -23.914  0.00  0.00    -0.118 S 
ATOM      6  O   UNL     1      29.356  -5.362 -21.593  0.00  0.00    -0.273 OA
ATOM      7  N   UNL     1      31.367  -4.637 -22.588  0.00  0.00    -0.260 N 
ATOM      8  C   UNL     1      32.574  -5.421 -22.320  0.00  0.00    +0.151 C 
ATOM      9  C   UNL     1      31.598  -5.396 -24.847  0.00  0.00    +0.068 C 
ATOM     10  CA  UNL     1      31.087  -4.245 -23.951  0.00  0.00    +0.184 C 
ATOM     11  CA  UNL     1      31.735  -6.247 -21.332  0.00  0.00    +0.178 C 
ATOM     12  C   UNL     1      30.552  -5.364 -21.772  0.00  0.00    +0.247 C 
ATOM     13  C   UNL     1      32.128  -4.932 -26.208  0.00  0.00    +0.013 C 
ATOM     14  C   UNL     1      30.492  -6.440 -25.074  0.00  0.00    +0.013 C 
BRANCH  10  16
ATOM     15  OXT UNL     1      32.251  -2.502 -25.156  0.00  0.00    -0.248 OA
ATOM     16  C   UNL     1      31.806  -2.939 -24.104  0.00  0.00    +0.333 C 
BRANCH  16  17
ATOM     17  O   UNL     1      31.901  -2.302 -22.912  0.00  0.00    -0.479 OA
ATOM     18  H   UNL     1      31.156  -1.857 -22.558  0.00  0.00    +0.295 HD
ENDBRANCH  16  17
ENDBRANCH  10  16
ENDBRANCH   2  11
BRANCH   3  21
ATOM     19  O   UNL     1      31.044 -12.065 -21.316  0.00  0.00    -0.358 OA
ATOM     20  N   UNL     1      31.910 -12.034 -22.402  0.00  0.00    -0.077 NA
ATOM     21  C   UNL     1      31.944 -10.064 -21.332  0.00  0.00    +0.107 A 
ATOM     22  C   UNL     1      32.441 -10.807 -22.385  0.00  0.00    +0.127 A 
ATOM     23  C   UNL     1      31.077 -10.866 -20.681  0.00  0.00    +0.159 A 
ATOM     24  C   UNL     1      30.211 -10.731 -19.501  0.00  0.00    +0.076 C 
BRANCH  22  25
ATOM     25  C   UNL     1      33.399 -10.418 -23.386  0.00  0.00    +0.021 C 
ATOM     26  C   UNL     1      34.025  -9.177 -23.303  0.00  0.00    +0.002 C 
ATOM     27  C   UNL     1      33.696 -11.284 -24.435  0.00  0.00    +0.002 C 
ATOM     28  C   UNL     1      34.953  -8.799 -24.273  0.00  0.00    +0.000 C 
ATOM     29  C   UNL     1      34.624 -10.908 -25.406  0.00  0.00    +0.000 C 
ATOM     30  C   UNL     1      35.253  -9.665 -25.325  0.00  0.00    +0.000 C 
ENDBRANCH  22  25
ENDBRANCH   3  21
TORSDOF 5
ENDMDL
