MODEL 1
REMARK VINA RESULT:      -5.7      0.000      0.000
REMARK  Name = 3009
REMARK  8 active torsions:
REMARK  status: ('A' for Active; 'I' for Inactive)
REMARK    1  A    between atoms: C_1  and  N_2
REMARK    2  A    between atoms: C_1  and  C_8
REMARK    3  A    between atoms: C_1  and  C_10
REMARK    4  A    between atoms: C_1  and  C_13
REMARK    5  A    between atoms: C_10  and  O_11
REMARK    6  A    between atoms: C_13  and  C_14
REMARK    7  A    between atoms: C_14  and  C_15
REMARK    8  A    between atoms: C_15  and  N_16
REMARK                            x       y       z     vdW  Elec       q    Type
REMARK                         _______ _______ _______ _____ _____    ______ ____
ROOT
ATOM      1  C   UNL     1      38.528 -25.168 -14.566  0.00  0.00    +0.105 C 
ENDROOT
BRANCH   1   2
ATOM      2  N   UNL     1      37.876 -26.245 -15.324  0.00  0.00    +0.393 N 
ATOM      3  H   UNL     1      37.232 -26.748 -14.714  0.00  0.00    -0.088 HD
ATOM      4  H   UNL     1      38.584 -26.890 -15.676  0.00  0.00    -0.088 HD
ATOM      5  H   UNL     1      37.362 -25.846 -16.109  0.00  0.00    -0.088 HD
ENDBRANCH   1   2
BRANCH   1   8
ATOM      6  F   UNL     1      38.653 -23.286 -16.009  0.00  0.00    -0.200 F 
ATOM      7  F   UNL     1      36.673 -24.065 -15.551  0.00  0.00    -0.200 F 
ATOM      8  C   UNL     1      37.906 -23.846 -15.024  0.00  0.00    +0.311 C 
ENDBRANCH   1   8
BRANCH   1  10
ATOM      9  O   UNL     1      40.914 -24.683 -14.271  0.00  0.00    -0.252 OA
ATOM     10  C   UNL     1      40.021 -25.220 -14.919  0.00  0.00    +0.300 C 
BRANCH  10  11
ATOM     11  O   UNL     1      40.280 -25.914 -16.058  0.00  0.00    -0.481 OA
ATOM     12  H   UNL     1      39.915 -25.629 -16.872  0.00  0.00    +0.295 HD
ENDBRANCH  10  11
ENDBRANCH   1  10
BRANCH   1  13
ATOM     13  C   UNL     1      38.361 -25.429 -13.050  0.00  0.00    -0.006 C 
BRANCH  13  14
ATOM     14  C   UNL     1      37.834 -24.236 -12.236  0.00  0.00    -0.025 C 
BRANCH  14  15
ATOM     15  C   UNL     1      36.404 -24.437 -11.724  0.00  0.00    -0.086 C 
BRANCH  15  16
ATOM     16  N   UNL     1      35.463 -23.493 -12.314  0.00  0.00    +0.380 N 
ATOM     17  H   UNL     1      35.604 -22.570 -11.903  0.00  0.00    -0.089 HD
ATOM     18  H   UNL     1      34.508 -23.804 -12.130  0.00  0.00    -0.089 HD
ATOM     19  H   UNL     1      35.616 -23.445 -13.321  0.00  0.00    -0.089 HD
ENDBRANCH  15  16
ENDBRANCH  14  15
ENDBRANCH  13  14
ENDBRANCH   1  13
TORSDOF 8
ENDMDL
MODEL 2
REMARK VINA RESULT:      -5.5      1.922      2.357
REMARK  Name = 3009
REMARK  8 active torsions:
REMARK  status: ('A' for Active; 'I' for Inactive)
REMARK    1  A    between atoms: C_1  and  N_2
REMARK    2  A    between atoms: C_1  and  C_8
REMARK    3  A    between atoms: C_1  and  C_10
REMARK    4  A    between atoms: C_1  and  C_13
REMARK    5  A    between atoms: C_10  and  O_11
REMARK    6  A    between atoms: C_13  and  C_14
REMARK    7  A    between atoms: C_14  and  C_15
REMARK    8  A    between atoms: C_15  and  N_16
REMARK                            x       y       z     vdW  Elec       q    Type
REMARK                         _______ _______ _______ _____ _____    ______ ____
ROOT
ATOM      1  C   UNL     1      38.610 -25.237 -14.382  0.00  0.00    +0.105 C 
ENDROOT
BRANCH   1   2
ATOM      2  N   UNL     1      38.670 -25.053 -12.925  0.00  0.00    +0.393 N 
ATOM      3  H   UNL     1      38.118 -25.778 -12.468  0.00  0.00    -0.088 HD
ATOM      4  H   UNL     1      38.295 -24.135 -12.682  0.00  0.00    -0.088 HD
ATOM      5  H   UNL     1      39.639 -25.116 -12.614  0.00  0.00    -0.088 HD
ENDBRANCH   1   2
BRANCH   1   8
ATOM      6  F   UNL     1      37.285 -27.019 -13.543  0.00  0.00    -0.200 F 
ATOM      7  F   UNL     1      37.033 -26.486 -15.637  0.00  0.00    -0.200 F 
ATOM      8  C   UNL     1      37.953 -26.594 -14.645  0.00  0.00    +0.311 C 
ENDBRANCH   1   8
BRANCH   1  10
ATOM      9  O   UNL     1      40.992 -24.654 -14.333  0.00  0.00    -0.252 OA
ATOM     10  C   UNL     1      40.059 -25.225 -14.889  0.00  0.00    +0.300 C 
BRANCH  10  11
ATOM     11  O   UNL     1      40.225 -25.902 -16.055  0.00  0.00    -0.481 OA
ATOM     12  H   UNL     1      40.104 -25.461 -16.873  0.00  0.00    +0.295 HD
ENDBRANCH  10  11
ENDBRANCH   1  10
BRANCH   1  13
ATOM     13  C   UNL     1      37.845 -24.053 -15.021  0.00  0.00    -0.006 C 
BRANCH  13  14
ATOM     14  C   UNL     1      36.840 -23.350 -14.094  0.00  0.00    -0.025 C 
BRANCH  14  15
ATOM     15  C   UNL     1      35.384 -23.727 -14.382  0.00  0.00    -0.086 C 
BRANCH  15  16
ATOM     16  N   UNL     1      34.891 -24.769 -13.489  0.00  0.00    +0.380 N 
ATOM     17  H   UNL     1      35.671 -25.163 -12.962  0.00  0.00    -0.089 HD
ATOM     18  H   UNL     1      34.446 -25.505 -14.038  0.00  0.00    -0.089 HD
ATOM     19  H   UNL     1      34.211 -24.369 -12.843  0.00  0.00    -0.089 HD
ENDBRANCH  15  16
ENDBRANCH  14  15
ENDBRANCH  13  14
ENDBRANCH   1  13
TORSDOF 8
ENDMDL
MODEL 3
REMARK VINA RESULT:      -5.5     10.504     11.346
REMARK  Name = 3009
REMARK  8 active torsions:
REMARK  status: ('A' for Active; 'I' for Inactive)
REMARK    1  A    between atoms: C_1  and  N_2
REMARK    2  A    between atoms: C_1  and  C_8
REMARK    3  A    between atoms: C_1  and  C_10
REMARK    4  A    between atoms: C_1  and  C_13
REMARK    5  A    between atoms: C_10  and  O_11
REMARK    6  A    between atoms: C_13  and  C_14
REMARK    7  A    between atoms: C_14  and  C_15
REMARK    8  A    between atoms: C_15  and  N_16
REMARK                            x       y       z     vdW  Elec       q    Type
REMARK                         _______ _______ _______ _____ _____    ______ ____
ROOT
ATOM      1  C   UNL     1      35.029 -18.010 -22.699  0.00  0.00    +0.105 C 
ENDROOT
BRANCH   1   2
ATOM      2  N   UNL     1      36.483 -18.204 -22.798  0.00  0.00    +0.393 N 
ATOM      3  H   UNL     1      36.960 -17.428 -22.340  0.00  0.00    -0.088 HD
ATOM      4  H   UNL     1      36.755 -18.240 -23.780  0.00  0.00    -0.088 HD
ATOM      5  H   UNL     1      36.740 -19.079 -22.342  0.00  0.00    -0.088 HD
ENDBRANCH   1   2
BRANCH   1   8
ATOM      6  F   UNL     1      34.041 -18.172 -24.853  0.00  0.00    -0.200 F 
ATOM      7  F   UNL     1      35.253 -19.850 -24.180  0.00  0.00    -0.200 F 
ATOM      8  C   UNL     1      34.377 -18.902 -23.759  0.00  0.00    +0.311 C 
ENDBRANCH   1   8
BRANCH   1  10
ATOM      9  O   UNL     1      33.774 -15.905 -22.613  0.00  0.00    -0.252 OA
ATOM     10  C   UNL     1      34.760 -16.527 -22.993  0.00  0.00    +0.300 C 
BRANCH  10  11
ATOM     11  O   UNL     1      35.726 -15.946 -23.752  0.00  0.00    -0.481 OA
ATOM     12  H   UNL     1      36.629 -16.094 -23.552  0.00  0.00    +0.295 HD
ENDBRANCH  10  11
ENDBRANCH   1  10
BRANCH   1  13
ATOM     13  C   UNL     1      34.562 -18.329 -21.259  0.00  0.00    -0.006 C 
BRANCH  13  14
ATOM     14  C   UNL     1      34.291 -19.815 -20.975  0.00  0.00    -0.025 C 
BRANCH  14  15
ATOM     15  C   UNL     1      32.848 -20.097 -20.547  0.00  0.00    -0.086 C 
BRANCH  15  16
ATOM     16  N   UNL     1      32.768 -21.059 -19.454  0.00  0.00    +0.380 N 
ATOM     17  H   UNL     1      33.371 -20.756 -18.690  0.00  0.00    -0.089 HD
ATOM     18  H   UNL     1      33.072 -21.975 -19.785  0.00  0.00    -0.089 HD
ATOM     19  H   UNL     1      31.805 -21.119 -19.125  0.00  0.00    -0.089 HD
ENDBRANCH  15  16
ENDBRANCH  14  15
ENDBRANCH  13  14
ENDBRANCH   1  13
TORSDOF 8
ENDMDL
MODEL 4
REMARK VINA RESULT:      -5.4      2.368      2.809
REMARK  Name = 3009
REMARK  8 active torsions:
REMARK  status: ('A' for Active; 'I' for Inactive)
REMARK    1  A    between atoms: C_1  and  N_2
REMARK    2  A    between atoms: C_1  and  C_8
REMARK    3  A    between atoms: C_1  and  C_10
REMARK    4  A    between atoms: C_1  and  C_13
REMARK    5  A    between atoms: C_10  and  O_11
REMARK    6  A    between atoms: C_13  and  C_14
REMARK    7  A    between atoms: C_14  and  C_15
REMARK    8  A    between atoms: C_15  and  N_16
REMARK                            x       y       z     vdW  Elec       q    Type
REMARK                         _______ _______ _______ _____ _____    ______ ____
ROOT
ATOM      1  C   UNL     1      38.305 -25.367 -14.327  0.00  0.00    +0.105 C 
ENDROOT
BRANCH   1   2
ATOM      2  N   UNL     1      38.033 -24.349 -15.351  0.00  0.00    +0.393 N 
ATOM      3  H   UNL     1      38.660 -24.486 -16.142  0.00  0.00    -0.088 HD
ATOM      4  H   UNL     1      38.182 -23.420 -14.955  0.00  0.00    -0.088 HD
ATOM      5  H   UNL     1      37.066 -24.431 -15.664  0.00  0.00    -0.088 HD
ENDBRANCH   1   2
BRANCH   1   8
ATOM      6  F   UNL     1      40.200 -25.542 -15.746  0.00  0.00    -0.200 F 
ATOM      7  F   UNL     1      40.560 -25.080 -13.650  0.00  0.00    -0.200 F 
ATOM      8  C   UNL     1      39.765 -25.797 -14.486  0.00  0.00    +0.311 C 
ENDBRANCH   1   8
BRANCH   1  10
ATOM      9  O   UNL     1      37.091 -26.976 -15.723  0.00  0.00    -0.252 OA
ATOM     10  C   UNL     1      37.356 -26.541 -14.608  0.00  0.00    +0.300 C 
BRANCH  10  11
ATOM     11  O   UNL     1      36.800 -27.063 -13.483  0.00  0.00    -0.481 OA
ATOM     12  H   UNL     1      35.955 -27.466 -13.524  0.00  0.00    +0.295 HD
ENDBRANCH  10  11
ENDBRANCH   1  10
BRANCH   1  13
ATOM     13  C   UNL     1      37.987 -24.789 -12.927  0.00  0.00    -0.006 C 
BRANCH  13  14
ATOM     14  C   UNL     1      37.098 -23.535 -12.925  0.00  0.00    -0.025 C 
BRANCH  14  15
ATOM     15  C   UNL     1      35.808 -23.707 -12.117  0.00  0.00    -0.086 C 
BRANCH  15  16
ATOM     16  N   UNL     1      34.941 -24.742 -12.665  0.00  0.00    +0.380 N 
ATOM     17  H   UNL     1      34.796 -25.471 -11.965  0.00  0.00    -0.089 HD
ATOM     18  H   UNL     1      35.378 -25.149 -13.493  0.00  0.00    -0.089 HD
ATOM     19  H   UNL     1      34.043 -24.332 -12.921  0.00  0.00    -0.089 HD
ENDBRANCH  15  16
ENDBRANCH  14  15
ENDBRANCH  13  14
ENDBRANCH   1  13
TORSDOF 8
ENDMDL
MODEL 5
REMARK VINA RESULT:      -5.4     10.283     11.405
REMARK  Name = 3009
REMARK  8 active torsions:
REMARK  status: ('A' for Active; 'I' for Inactive)
REMARK    1  A    between atoms: C_1  and  N_2
REMARK    2  A    between atoms: C_1  and  C_8
REMARK    3  A    between atoms: C_1  and  C_10
REMARK    4  A    between atoms: C_1  and  C_13
REMARK    5  A    between atoms: C_10  and  O_11
REMARK    6  A    between atoms: C_13  and  C_14
REMARK    7  A    between atoms: C_14  and  C_15
REMARK    8  A    between atoms: C_15  and  N_16
REMARK                            x       y       z     vdW  Elec       q    Type
REMARK                         _______ _______ _______ _____ _____    ______ ____
ROOT
ATOM      1  C   UNL     1      35.253 -18.557 -21.720  0.00  0.00    +0.105 C 
ENDROOT
BRANCH   1   2
ATOM      2  N   UNL     1      33.998 -19.321 -21.677  0.00  0.00    +0.393 N 
ATOM      3  H   UNL     1      34.091 -20.159 -22.250  0.00  0.00    -0.088 HD
ATOM      4  H   UNL     1      33.237 -18.744 -22.037  0.00  0.00    -0.088 HD
ATOM      5  H   UNL     1      33.795 -19.587 -20.714  0.00  0.00    -0.088 HD
ENDBRANCH   1   2
BRANCH   1   8
ATOM      6  F   UNL     1      36.020 -20.562 -20.704  0.00  0.00    -0.200 F 
ATOM      7  F   UNL     1      37.506 -19.038 -21.154  0.00  0.00    -0.200 F 
ATOM      8  C   UNL     1      36.226 -19.222 -20.741  0.00  0.00    +0.311 C 
ENDBRANCH   1   8
BRANCH   1  10
ATOM      9  O   UNL     1      35.291 -16.618 -20.219  0.00  0.00    -0.252 OA
ATOM     10  C   UNL     1      34.917 -17.128 -21.270  0.00  0.00    +0.300 C 
BRANCH  10  11
ATOM     11  O   UNL     1      34.127 -16.460 -22.150  0.00  0.00    -0.481 OA
ATOM     12  H   UNL     1      33.926 -16.843 -22.982  0.00  0.00    +0.295 HD
ENDBRANCH  10  11
ENDBRANCH   1  10
BRANCH   1  13
ATOM     13  C   UNL     1      35.782 -18.514 -23.173  0.00  0.00    -0.006 C 
BRANCH  13  14
ATOM     14  C   UNL     1      34.829 -19.090 -24.232  0.00  0.00    -0.025 C 
BRANCH  14  15
ATOM     15  C   UNL     1      34.316 -18.039 -25.222  0.00  0.00    -0.086 C 
BRANCH  15  16
ATOM     16  N   UNL     1      35.033 -16.775 -25.113  0.00  0.00    +0.380 N 
ATOM     17  H   UNL     1      34.961 -16.424 -24.158  0.00  0.00    -0.089 HD
ATOM     18  H   UNL     1      34.623 -16.096 -25.756  0.00  0.00    -0.089 HD
ATOM     19  H   UNL     1      36.014 -16.918 -25.350  0.00  0.00    -0.089 HD
ENDBRANCH  15  16
ENDBRANCH  14  15
ENDBRANCH  13  14
ENDBRANCH   1  13
TORSDOF 8
ENDMDL
MODEL 6
REMARK VINA RESULT:      -5.3      1.896      2.059
REMARK  Name = 3009
REMARK  8 active torsions:
REMARK  status: ('A' for Active; 'I' for Inactive)
REMARK    1  A    between atoms: C_1  and  N_2
REMARK    2  A    between atoms: C_1  and  C_8
REMARK    3  A    between atoms: C_1  and  C_10
REMARK    4  A    between atoms: C_1  and  C_13
REMARK    5  A    between atoms: C_10  and  O_11
REMARK    6  A    between atoms: C_13  and  C_14
REMARK    7  A    between atoms: C_14  and  C_15
REMARK    8  A    between atoms: C_15  and  N_16
REMARK                            x       y       z     vdW  Elec       q    Type
REMARK                         _______ _______ _______ _____ _____    ______ ____
ROOT
ATOM      1  C   UNL     1      36.999 -25.416 -14.216  0.00  0.00    +0.105 C 
ENDROOT
BRANCH   1   2
ATOM      2  N   UNL     1      35.537 -25.418 -14.365  0.00  0.00    +0.393 N 
ATOM      3  H   UNL     1      35.278 -25.984 -15.172  0.00  0.00    -0.088 HD
ATOM      4  H   UNL     1      35.208 -24.461 -14.500  0.00  0.00    -0.088 HD
ATOM      5  H   UNL     1      35.110 -25.807 -13.525  0.00  0.00    -0.088 HD
ENDBRANCH   1   2
BRANCH   1   8
ATOM      6  F   UNL     1      38.783 -24.298 -15.314  0.00  0.00    -0.200 F 
ATOM      7  F   UNL     1      36.756 -23.778 -15.913  0.00  0.00    -0.200 F 
ATOM      8  C   UNL     1      37.521 -24.123 -14.846  0.00  0.00    +0.311 C 
ENDBRANCH   1   8
BRANCH   1  10
ATOM      9  O   UNL     1      38.527 -27.279 -14.674  0.00  0.00    -0.252 OA
ATOM     10  C   UNL     1      37.522 -26.644 -14.976  0.00  0.00    +0.300 C 
BRANCH  10  11
ATOM     11  O   UNL     1      36.768 -26.966 -16.059  0.00  0.00    -0.481 OA
ATOM     12  H   UNL     1      35.833 -26.971 -15.992  0.00  0.00    +0.295 HD
ENDBRANCH  10  11
ENDBRANCH   1  10
BRANCH   1  13
ATOM     13  C   UNL     1      37.366 -25.559 -12.719  0.00  0.00    -0.006 C 
BRANCH  13  14
ATOM     14  C   UNL     1      37.901 -24.281 -12.054  0.00  0.00    -0.025 C 
BRANCH  14  15
ATOM     15  C   UNL     1      36.811 -23.452 -11.368  0.00  0.00    -0.086 C 
BRANCH  15  16
ATOM     16  N   UNL     1      35.680 -24.265 -10.938  0.00  0.00    +0.380 N 
ATOM     17  H   UNL     1      34.891 -23.659 -10.711  0.00  0.00    -0.089 HD
ATOM     18  H   UNL     1      35.943 -24.804 -10.112  0.00  0.00    -0.089 HD
ATOM     19  H   UNL     1      35.415 -24.902 -11.689  0.00  0.00    -0.089 HD
ENDBRANCH  15  16
ENDBRANCH  14  15
ENDBRANCH  13  14
ENDBRANCH   1  13
TORSDOF 8
ENDMDL
MODEL 7
REMARK VINA RESULT:      -5.3      3.844      4.466
REMARK  Name = 3009
REMARK  8 active torsions:
REMARK  status: ('A' for Active; 'I' for Inactive)
REMARK    1  A    between atoms: C_1  and  N_2
REMARK    2  A    between atoms: C_1  and  C_8
REMARK    3  A    between atoms: C_1  and  C_10
REMARK    4  A    between atoms: C_1  and  C_13
REMARK    5  A    between atoms: C_10  and  O_11
REMARK    6  A    between atoms: C_13  and  C_14
REMARK    7  A    between atoms: C_14  and  C_15
REMARK    8  A    between atoms: C_15  and  N_16
REMARK                            x       y       z     vdW  Elec       q    Type
REMARK                         _______ _______ _______ _____ _____    ______ ____
ROOT
ATOM      1  C   UNL     1      36.610 -24.678 -12.620  0.00  0.00    +0.105 C 
ENDROOT
BRANCH   1   2
ATOM      2  N   UNL     1      37.276 -25.941 -12.269  0.00  0.00    +0.393 N 
ATOM      3  H   UNL     1      37.737 -25.842 -11.365  0.00  0.00    -0.088 HD
ATOM      4  H   UNL     1      37.970 -26.169 -12.982  0.00  0.00    -0.088 HD
ATOM      5  H   UNL     1      36.584 -26.688 -12.219  0.00  0.00    -0.088 HD
ENDBRANCH   1   2
BRANCH   1   8
ATOM      6  F   UNL     1      37.147 -22.634 -11.537  0.00  0.00    -0.200 F 
ATOM      7  F   UNL     1      38.770 -24.045 -11.869  0.00  0.00    -0.200 F 
ATOM      8  C   UNL     1      37.627 -23.553 -12.413  0.00  0.00    +0.311 C 
ENDBRANCH   1   8
BRANCH   1  10
ATOM      9  O   UNL     1      35.325 -25.075 -10.569  0.00  0.00    -0.252 OA
ATOM     10  C   UNL     1      35.422 -24.524 -11.661  0.00  0.00    +0.300 C 
BRANCH  10  11
ATOM     11  O   UNL     1      34.442 -23.717 -12.146  0.00  0.00    -0.481 OA
ATOM     12  H   UNL     1      34.051 -23.071 -11.591  0.00  0.00    +0.295 HD
ENDBRANCH  10  11
ENDBRANCH   1  10
BRANCH   1  13
ATOM     13  C   UNL     1      36.077 -24.762 -14.071  0.00  0.00    -0.006 C 
BRANCH  13  14
ATOM     14  C   UNL     1      36.760 -23.817 -15.072  0.00  0.00    -0.025 C 
BRANCH  14  15
ATOM     15  C   UNL     1      35.819 -22.746 -15.633  0.00  0.00    -0.086 C 
BRANCH  15  16
ATOM     16  N   UNL     1      34.569 -22.657 -14.889  0.00  0.00    +0.380 N 
ATOM     17  H   UNL     1      34.668 -21.974 -14.137  0.00  0.00    -0.089 HD
ATOM     18  H   UNL     1      34.345 -23.570 -14.491  0.00  0.00    -0.089 HD
ATOM     19  H   UNL     1      33.820 -22.366 -15.517  0.00  0.00    -0.089 HD
ENDBRANCH  15  16
ENDBRANCH  14  15
ENDBRANCH  13  14
ENDBRANCH   1  13
TORSDOF 8
ENDMDL
MODEL 8
REMARK VINA RESULT:      -5.3     10.186     11.149
REMARK  Name = 3009
REMARK  8 active torsions:
REMARK  status: ('A' for Active; 'I' for Inactive)
REMARK    1  A    between atoms: C_1  and  N_2
REMARK    2  A    between atoms: C_1  and  C_8
REMARK    3  A    between atoms: C_1  and  C_10
REMARK    4  A    between atoms: C_1  and  C_13
REMARK    5  A    between atoms: C_10  and  O_11
REMARK    6  A    between atoms: C_13  and  C_14
REMARK    7  A    between atoms: C_14  and  C_15
REMARK    8  A    between atoms: C_15  and  N_16
REMARK                            x       y       z     vdW  Elec       q    Type
REMARK                         _______ _______ _______ _____ _____    ______ ____
ROOT
ATOM      1  C   UNL     1      34.671 -18.482 -21.495  0.00  0.00    +0.105 C 
ENDROOT
BRANCH   1   2
ATOM      2  N   UNL     1      35.886 -18.404 -20.671  0.00  0.00    +0.393 N 
ATOM      3  H   UNL     1      35.835 -19.096 -19.925  0.00  0.00    -0.088 HD
ATOM      4  H   UNL     1      35.962 -17.470 -20.266  0.00  0.00    -0.088 HD
ATOM      5  H   UNL     1      36.703 -18.588 -21.252  0.00  0.00    -0.088 HD
ENDBRANCH   1   2
BRANCH   1   8
ATOM      6  F   UNL     1      34.546 -20.352 -20.036  0.00  0.00    -0.200 F 
ATOM      7  F   UNL     1      32.675 -19.385 -20.585  0.00  0.00    -0.200 F 
ATOM      8  C   UNL     1      33.901 -19.730 -21.056  0.00  0.00    +0.311 C 
ENDBRANCH   1   8
BRANCH   1  10
ATOM      9  O   UNL     1      34.775 -19.493 -23.727  0.00  0.00    -0.252 OA
ATOM     10  C   UNL     1      35.134 -18.611 -22.953  0.00  0.00    +0.300 C 
BRANCH  10  11
ATOM     11  O   UNL     1      36.018 -17.649 -23.323  0.00  0.00    -0.481 OA
ATOM     12  H   UNL     1      36.763 -17.467 -22.784  0.00  0.00    +0.295 HD
ENDBRANCH  10  11
ENDBRANCH   1  10
BRANCH   1  13
ATOM     13  C   UNL     1      33.857 -17.175 -21.340  0.00  0.00    -0.006 C 
BRANCH  13  14
ATOM     14  C   UNL     1      34.631 -15.993 -20.735  0.00  0.00    -0.025 C 
BRANCH  14  15
ATOM     15  C   UNL     1      34.516 -14.707 -21.560  0.00  0.00    -0.086 C 
BRANCH  15  16
ATOM     16  N   UNL     1      34.606 -14.955 -22.994  0.00  0.00    +0.380 N 
ATOM     17  H   UNL     1      33.703 -15.279 -23.341  0.00  0.00    -0.089 HD
ATOM     18  H   UNL     1      35.314 -15.669 -23.171  0.00  0.00    -0.089 HD
ATOM     19  H   UNL     1      34.865 -14.093 -23.472  0.00  0.00    -0.089 HD
ENDBRANCH  15  16
ENDBRANCH  14  15
ENDBRANCH  13  14
ENDBRANCH   1  13
TORSDOF 8
ENDMDL
MODEL 9
REMARK VINA RESULT:      -5.3      2.883      3.621
REMARK  Name = 3009
REMARK  8 active torsions:
REMARK  status: ('A' for Active; 'I' for Inactive)
REMARK    1  A    between atoms: C_1  and  N_2
REMARK    2  A    between atoms: C_1  and  C_8
REMARK    3  A    between atoms: C_1  and  C_10
REMARK    4  A    between atoms: C_1  and  C_13
REMARK    5  A    between atoms: C_10  and  O_11
REMARK    6  A    between atoms: C_13  and  C_14
REMARK    7  A    between atoms: C_14  and  C_15
REMARK    8  A    between atoms: C_15  and  N_16
REMARK                            x       y       z     vdW  Elec       q    Type
REMARK                         _______ _______ _______ _____ _____    ______ ____
ROOT
ATOM      1  C   UNL     1      37.747 -25.329 -14.433  0.00  0.00    +0.105 C 
ENDROOT
BRANCH   1   2
ATOM      2  N   UNL     1      38.920 -25.429 -15.312  0.00  0.00    +0.393 N 
ATOM      3  H   UNL     1      39.680 -25.889 -14.814  0.00  0.00    -0.088 HD
ATOM      4  H   UNL     1      39.214 -24.494 -15.594  0.00  0.00    -0.088 HD
ATOM      5  H   UNL     1      38.678 -25.972 -16.141  0.00  0.00    -0.088 HD
ENDBRANCH   1   2
BRANCH   1   8
ATOM      6  F   UNL     1      38.361 -24.964 -12.168  0.00  0.00    -0.200 F 
ATOM      7  F   UNL     1      37.114 -26.695 -12.600  0.00  0.00    -0.200 F 
ATOM      8  C   UNL     1      38.134 -25.940 -13.084  0.00  0.00    +0.311 C 
ENDBRANCH   1   8
BRANCH   1  10
ATOM      9  O   UNL     1      36.800 -27.074 -15.873  0.00  0.00    -0.252 OA
ATOM     10  C   UNL     1      36.625 -26.139 -15.098  0.00  0.00    +0.300 C 
BRANCH  10  11
ATOM     11  O   UNL     1      35.381 -25.709 -14.763  0.00  0.00    -0.481 OA
ATOM     12  H   UNL     1      34.708 -26.331 -14.565  0.00  0.00    +0.295 HD
ENDBRANCH  10  11
ENDBRANCH   1  10
BRANCH   1  13
ATOM     13  C   UNL     1      37.303 -23.850 -14.330  0.00  0.00    -0.006 C 
BRANCH  13  14
ATOM     14  C   UNL     1      37.380 -23.053 -15.642  0.00  0.00    -0.025 C 
BRANCH  14  15
ATOM     15  C   UNL     1      36.028 -22.487 -16.088  0.00  0.00    -0.086 C 
BRANCH  15  16
ATOM     16  N   UNL     1      35.000 -22.627 -15.064  0.00  0.00    +0.380 N 
ATOM     17  H   UNL     1      34.213 -22.018 -15.287  0.00  0.00    -0.089 HD
ATOM     18  H   UNL     1      35.387 -22.364 -14.156  0.00  0.00    -0.089 HD
ATOM     19  H   UNL     1      34.684 -23.596 -15.030  0.00  0.00    -0.089 HD
ENDBRANCH  15  16
ENDBRANCH  14  15
ENDBRANCH  13  14
ENDBRANCH   1  13
TORSDOF 8
ENDMDL
