MODEL 1
REMARK VINA RESULT:      -6.1      0.000      0.000
REMARK  Name = 448254
REMARK  9 active torsions:
REMARK  status: ('A' for Active; 'I' for Inactive)
REMARK    1  A    between atoms: C_1  and  S_2
REMARK    2  A    between atoms: C_1  and  C_11
REMARK    3  A    between atoms: S_2  and  C_3
REMARK    4  A    between atoms: C_3  and  C_4
REMARK    5  A    between atoms: C_4  and  S_5
REMARK    6  A    between atoms: S_5  and  N_8
REMARK    7  A    between atoms: C_11  and  N_12
REMARK    8  A    between atoms: C_11  and  C_17
REMARK    9  A    between atoms: C_17  and  O_18
REMARK                            x       y       z     vdW  Elec       q    Type
REMARK                         _______ _______ _______ _____ _____    ______ ____
ROOT
ATOM      1  C   UNK     1      37.788 -25.692 -14.939  0.00  0.00    +0.047 C 
ENDROOT
BRANCH   1   2
ATOM      2  S   UNK     1      36.956 -24.097 -14.654  0.00  0.00    -0.140 S 
BRANCH   2   3
ATOM      3  C   UNK     1      35.507 -24.717 -13.771  0.00  0.00    +0.084 C 
BRANCH   3   4
ATOM      4  C   UNK     1      35.235 -23.874 -12.539  0.00  0.00    +0.180 C 
BRANCH   4   5
ATOM      5  S   UNK     1      36.099 -24.511 -11.135  0.00  0.00    +0.039 S 
ATOM      6  O   UNK     1      35.218 -24.420  -9.983  0.00  0.00    -0.158 OA
ATOM      7  O   UNK     1      36.706 -25.775 -11.512  0.00  0.00    -0.158 OA
BRANCH   5   8
ATOM      8  N   UNK     1      37.322 -23.334 -10.988  0.00  0.00    -0.207 NA
ATOM      9  H   UNK     1      37.591 -23.242 -10.008  0.00  0.00    +0.144 HD
ATOM     10  H   UNK     1      36.975 -22.438 -11.331  0.00  0.00    +0.144 HD
ENDBRANCH   5   8
ENDBRANCH   4   5
ENDBRANCH   3   4
ENDBRANCH   2   3
ENDBRANCH   1   2
BRANCH   1  11
ATOM     11  C   UNK     1      38.957 -25.908 -13.976  0.00  0.00    +0.047 C 
BRANCH  11  12
ATOM     12  N   UNK     1      39.127 -24.730 -13.122  0.00  0.00    +0.389 N 
ATOM     13  H   UNK     1      38.881 -23.892 -13.647  0.00  0.00    -0.088 HD
ATOM     14  H   UNK     1      40.099 -24.669 -12.819  0.00  0.00    -0.088 HD
ATOM     15  H   UNK     1      38.521 -24.812 -12.306  0.00  0.00    -0.088 HD
ENDBRANCH  11  12
BRANCH  11  17
ATOM     16  O   UNK     1      41.260 -26.620 -14.173  0.00  0.00    -0.253 OA
ATOM     17  C   UNK     1      40.268 -26.137 -14.705  0.00  0.00    +0.294 C 
BRANCH  17  18
ATOM     18  O   UNK     1      40.253 -25.724 -15.997  0.00  0.00    -0.482 OA
ATOM     19  H   UNK     1      40.622 -26.267 -16.667  0.00  0.00    +0.295 HD
ENDBRANCH  17  18
ENDBRANCH  11  17
ENDBRANCH   1  11
TORSDOF 9
ENDMDL
MODEL 2
REMARK VINA RESULT:      -5.9      2.165      5.158
REMARK  Name = 448254
REMARK  9 active torsions:
REMARK  status: ('A' for Active; 'I' for Inactive)
REMARK    1  A    between atoms: C_1  and  S_2
REMARK    2  A    between atoms: C_1  and  C_11
REMARK    3  A    between atoms: S_2  and  C_3
REMARK    4  A    between atoms: C_3  and  C_4
REMARK    5  A    between atoms: C_4  and  S_5
REMARK    6  A    between atoms: S_5  and  N_8
REMARK    7  A    between atoms: C_11  and  N_12
REMARK    8  A    between atoms: C_11  and  C_17
REMARK    9  A    between atoms: C_17  and  O_18
REMARK                            x       y       z     vdW  Elec       q    Type
REMARK                         _______ _______ _______ _____ _____    ______ ____
ROOT
ATOM      1  C   UNK     1      36.856 -24.129 -13.627  0.00  0.00    +0.047 C 
ENDROOT
BRANCH   1   2
ATOM      2  S   UNK     1      36.462 -25.404 -14.867  0.00  0.00    -0.140 S 
BRANCH   2   3
ATOM      3  C   UNK     1      37.952 -26.409 -14.685  0.00  0.00    +0.084 C 
BRANCH   3   4
ATOM      4  C   UNK     1      38.915 -25.759 -13.708  0.00  0.00    +0.180 C 
BRANCH   4   5
ATOM      5  S   UNK     1      40.546 -25.688 -14.382  0.00  0.00    +0.039 S 
ATOM      6  O   UNK     1      41.094 -24.372 -14.100  0.00  0.00    -0.158 OA
ATOM      7  O   UNK     1      41.253 -26.891 -13.984  0.00  0.00    -0.158 OA
BRANCH   5   8
ATOM      8  N   UNK     1      40.179 -25.788 -16.043  0.00  0.00    -0.207 NA
ATOM      9  H   UNK     1      39.242 -25.420 -16.208  0.00  0.00    +0.144 HD
ATOM     10  H   UNK     1      40.218 -26.763 -16.342  0.00  0.00    +0.144 HD
ENDBRANCH   5   8
ENDBRANCH   4   5
ENDBRANCH   3   4
ENDBRANCH   2   3
ENDBRANCH   1   2
BRANCH   1  11
ATOM     11  C   UNK     1      35.986 -24.259 -12.376  0.00  0.00    +0.047 C 
BRANCH  11  12
ATOM     12  N   UNK     1      34.709 -23.571 -12.580  0.00  0.00    +0.389 N 
ATOM     13  H   UNK     1      34.408 -23.694 -13.546  0.00  0.00    -0.088 HD
ATOM     14  H   UNK     1      34.823 -22.577 -12.384  0.00  0.00    -0.088 HD
ATOM     15  H   UNK     1      34.008 -23.964 -11.952  0.00  0.00    -0.088 HD
ENDBRANCH  11  12
BRANCH  11  17
ATOM     16  O   UNK     1      37.532 -22.806 -11.214  0.00  0.00    -0.253 OA
ATOM     17  C   UNK     1      36.644 -23.647 -11.153  0.00  0.00    +0.294 C 
BRANCH  17  18
ATOM     18  O   UNK     1      36.181 -24.144  -9.978  0.00  0.00    -0.482 OA
ATOM     19  H   UNK     1      36.439 -25.000  -9.697  0.00  0.00    +0.295 HD
ENDBRANCH  17  18
ENDBRANCH  11  17
ENDBRANCH   1  11
TORSDOF 9
ENDMDL
MODEL 3
REMARK VINA RESULT:      -5.9      1.452      1.647
REMARK  Name = 448254
REMARK  9 active torsions:
REMARK  status: ('A' for Active; 'I' for Inactive)
REMARK    1  A    between atoms: C_1  and  S_2
REMARK    2  A    between atoms: C_1  and  C_11
REMARK    3  A    between atoms: S_2  and  C_3
REMARK    4  A    between atoms: C_3  and  C_4
REMARK    5  A    between atoms: C_4  and  S_5
REMARK    6  A    between atoms: S_5  and  N_8
REMARK    7  A    between atoms: C_11  and  N_12
REMARK    8  A    between atoms: C_11  and  C_17
REMARK    9  A    between atoms: C_17  and  O_18
REMARK                            x       y       z     vdW  Elec       q    Type
REMARK                         _______ _______ _______ _____ _____    ______ ____
ROOT
ATOM      1  C   UNK     1      38.044 -24.149 -14.195  0.00  0.00    +0.047 C 
ENDROOT
BRANCH   1   2
ATOM      2  S   UNK     1      36.418 -23.676 -14.867  0.00  0.00    -0.140 S 
BRANCH   2   3
ATOM      3  C   UNK     1      35.384 -24.616 -13.722  0.00  0.00    +0.084 C 
BRANCH   3   4
ATOM      4  C   UNK     1      35.207 -23.855 -12.420  0.00  0.00    +0.180 C 
BRANCH   4   5
ATOM      5  S   UNK     1      36.307 -24.462 -11.178  0.00  0.00    +0.039 S 
ATOM      6  O   UNK     1      36.787 -25.767 -11.598  0.00  0.00    -0.158 OA
ATOM      7  O   UNK     1      37.235 -23.399 -10.838  0.00  0.00    -0.158 OA
BRANCH   5   8
ATOM      8  N   UNK     1      35.208 -24.667  -9.892  0.00  0.00    -0.207 NA
ATOM      9  H   UNK     1      34.893 -25.636  -9.864  0.00  0.00    +0.144 HD
ATOM     10  H   UNK     1      34.405 -24.052 -10.030  0.00  0.00    +0.144 HD
ENDBRANCH   5   8
ENDBRANCH   4   5
ENDBRANCH   3   4
ENDBRANCH   2   3
ENDBRANCH   1   2
BRANCH   1  11
ATOM     11  C   UNK     1      38.603 -25.400 -14.876  0.00  0.00    +0.047 C 
BRANCH  11  12
ATOM     12  N   UNK     1      38.250 -26.592 -14.101  0.00  0.00    +0.389 N 
ATOM     13  H   UNK     1      37.307 -26.488 -13.729  0.00  0.00    -0.088 HD
ATOM     14  H   UNK     1      38.909 -26.704 -13.331  0.00  0.00    -0.088 HD
ATOM     15  H   UNK     1      38.289 -27.413 -14.705  0.00  0.00    -0.088 HD
ENDBRANCH  11  12
BRANCH  11  17
ATOM     16  O   UNK     1      40.838 -24.760 -14.210  0.00  0.00    -0.253 OA
ATOM     17  C   UNK     1      40.115 -25.363 -14.994  0.00  0.00    +0.294 C 
BRANCH  17  18
ATOM     18  O   UNK     1      40.595 -26.032 -16.072  0.00  0.00    -0.482 OA
ATOM     19  H   UNK     1      41.490 -25.926 -16.330  0.00  0.00    +0.295 HD
ENDBRANCH  17  18
ENDBRANCH  11  17
ENDBRANCH   1  11
TORSDOF 9
ENDMDL
MODEL 4
REMARK VINA RESULT:      -5.8      1.802      5.280
REMARK  Name = 448254
REMARK  9 active torsions:
REMARK  status: ('A' for Active; 'I' for Inactive)
REMARK    1  A    between atoms: C_1  and  S_2
REMARK    2  A    between atoms: C_1  and  C_11
REMARK    3  A    between atoms: S_2  and  C_3
REMARK    4  A    between atoms: C_3  and  C_4
REMARK    5  A    between atoms: C_4  and  S_5
REMARK    6  A    between atoms: S_5  and  N_8
REMARK    7  A    between atoms: C_11  and  N_12
REMARK    8  A    between atoms: C_11  and  C_17
REMARK    9  A    between atoms: C_17  and  O_18
REMARK                            x       y       z     vdW  Elec       q    Type
REMARK                         _______ _______ _______ _____ _____    ______ ____
ROOT
ATOM      1  C   UNK     1      36.139 -23.891 -13.404  0.00  0.00    +0.047 C 
ENDROOT
BRANCH   1   2
ATOM      2  S   UNK     1      37.536 -23.696 -14.555  0.00  0.00    -0.140 S 
BRANCH   2   3
ATOM      3  C   UNK     1      37.812 -25.443 -14.924  0.00  0.00    +0.084 C 
BRANCH   3   4
ATOM      4  C   UNK     1      38.883 -26.015 -14.015  0.00  0.00    +0.180 C 
BRANCH   4   5
ATOM      5  S   UNK     1      40.496 -25.710 -14.667  0.00  0.00    +0.039 S 
ATOM      6  O   UNK     1      40.461 -25.965 -16.097  0.00  0.00    -0.158 OA
ATOM      7  O   UNK     1      40.960 -24.436 -14.149  0.00  0.00    -0.158 OA
BRANCH   5   8
ATOM      8  N   UNK     1      41.361 -26.964 -13.904  0.00  0.00    -0.207 NA
ATOM      9  H   UNK     1      40.767 -27.790 -13.827  0.00  0.00    +0.144 HD
ATOM     10  H   UNK     1      41.645 -26.662 -12.971  0.00  0.00    +0.144 HD
ENDBRANCH   5   8
ENDBRANCH   4   5
ENDBRANCH   3   4
ENDBRANCH   2   3
ENDBRANCH   1   2
BRANCH   1  11
ATOM     11  C   UNK     1      36.485 -23.404 -11.996  0.00  0.00    +0.047 C 
BRANCH  11  12
ATOM     12  N   UNK     1      37.933 -23.468 -11.785  0.00  0.00    +0.389 N 
ATOM     13  H   UNK     1      38.231 -22.666 -11.230  0.00  0.00    -0.088 HD
ATOM     14  H   UNK     1      38.408 -23.453 -12.687  0.00  0.00    -0.088 HD
ATOM     15  H   UNK     1      38.167 -24.329 -11.291  0.00  0.00    -0.088 HD
ENDBRANCH  11  12
BRANCH  11  17
ATOM     16  O   UNK     1      36.121 -24.172  -9.731  0.00  0.00    -0.253 OA
ATOM     17  C   UNK     1      35.828 -24.248 -10.918  0.00  0.00    +0.294 C 
BRANCH  17  18
ATOM     18  O   UNK     1      34.909 -25.124 -11.395  0.00  0.00    -0.482 OA
ATOM     19  H   UNK     1      34.563 -25.017 -12.259  0.00  0.00    +0.295 HD
ENDBRANCH  17  18
ENDBRANCH  11  17
ENDBRANCH   1  11
TORSDOF 9
ENDMDL
MODEL 5
REMARK VINA RESULT:      -5.7      2.678      2.994
REMARK  Name = 448254
REMARK  9 active torsions:
REMARK  status: ('A' for Active; 'I' for Inactive)
REMARK    1  A    between atoms: C_1  and  S_2
REMARK    2  A    between atoms: C_1  and  C_11
REMARK    3  A    between atoms: S_2  and  C_3
REMARK    4  A    between atoms: C_3  and  C_4
REMARK    5  A    between atoms: C_4  and  S_5
REMARK    6  A    between atoms: S_5  and  N_8
REMARK    7  A    between atoms: C_11  and  N_12
REMARK    8  A    between atoms: C_11  and  C_17
REMARK    9  A    between atoms: C_17  and  O_18
REMARK                            x       y       z     vdW  Elec       q    Type
REMARK                         _______ _______ _______ _____ _____    ______ ____
ROOT
ATOM      1  C   UNK     1      38.571 -25.730 -13.134  0.00  0.00    +0.047 C 
ENDROOT
BRANCH   1   2
ATOM      2  S   UNK     1      37.799 -24.513 -12.022  0.00  0.00    -0.140 S 
BRANCH   2   3
ATOM      3  C   UNK     1      36.091 -24.700 -12.580  0.00  0.00    +0.084 C 
BRANCH   3   4
ATOM      4  C   UNK     1      35.713 -23.572 -13.522  0.00  0.00    +0.180 C 
BRANCH   4   5
ATOM      5  S   UNK     1      35.033 -24.204 -15.025  0.00  0.00    +0.039 S 
ATOM      6  O   UNK     1      33.585 -24.157 -14.920  0.00  0.00    -0.158 OA
ATOM      7  O   UNK     1      35.721 -23.570 -16.135  0.00  0.00    -0.158 OA
BRANCH   5   8
ATOM      8  N   UNK     1      35.542 -25.827 -14.914  0.00  0.00    -0.207 NA
ATOM      9  H   UNK     1      36.403 -25.877 -14.371  0.00  0.00    +0.144 HD
ATOM     10  H   UNK     1      35.708 -26.195 -15.851  0.00  0.00    +0.144 HD
ENDBRANCH   5   8
ENDBRANCH   4   5
ENDBRANCH   3   4
ENDBRANCH   2   3
ENDBRANCH   1   2
BRANCH   1  11
ATOM     11  C   UNK     1      39.433 -25.061 -14.205  0.00  0.00    +0.047 C 
BRANCH  11  12
ATOM     12  N   UNK     1      38.593 -24.611 -15.317  0.00  0.00    +0.389 N 
ATOM     13  H   UNK     1      38.357 -23.628 -15.189  0.00  0.00    -0.088 HD
ATOM     14  H   UNK     1      37.737 -25.166 -15.342  0.00  0.00    -0.088 HD
ATOM     15  H   UNK     1      39.099 -24.729 -16.195  0.00  0.00    -0.088 HD
ENDBRANCH  11  12
BRANCH  11  17
ATOM     16  O   UNK     1      41.216 -26.692 -14.079  0.00  0.00    -0.253 OA
ATOM     17  C   UNK     1      40.478 -26.004 -14.774  0.00  0.00    +0.294 C 
BRANCH  17  18
ATOM     18  O   UNK     1      40.546 -25.991 -16.129  0.00  0.00    -0.482 OA
ATOM     19  H   UNK     1      40.979 -25.286 -16.570  0.00  0.00    +0.295 HD
ENDBRANCH  17  18
ENDBRANCH  11  17
ENDBRANCH   1  11
TORSDOF 9
ENDMDL
MODEL 6
REMARK VINA RESULT:      -5.7      2.829      4.680
REMARK  Name = 448254
REMARK  9 active torsions:
REMARK  status: ('A' for Active; 'I' for Inactive)
REMARK    1  A    between atoms: C_1  and  S_2
REMARK    2  A    between atoms: C_1  and  C_11
REMARK    3  A    between atoms: S_2  and  C_3
REMARK    4  A    between atoms: C_3  and  C_4
REMARK    5  A    between atoms: C_4  and  S_5
REMARK    6  A    between atoms: S_5  and  N_8
REMARK    7  A    between atoms: C_11  and  N_12
REMARK    8  A    between atoms: C_11  and  C_17
REMARK    9  A    between atoms: C_17  and  O_18
REMARK                            x       y       z     vdW  Elec       q    Type
REMARK                         _______ _______ _______ _____ _____    ______ ____
ROOT
ATOM      1  C   UNK     1      36.347 -23.462 -13.026  0.00  0.00    +0.047 C 
ENDROOT
BRANCH   1   2
ATOM      2  S   UNK     1      36.344 -24.804 -11.794  0.00  0.00    -0.140 S 
BRANCH   2   3
ATOM      3  C   UNK     1      37.634 -25.832 -12.531  0.00  0.00    +0.084 C 
BRANCH   3   4
ATOM      4  C   UNK     1      38.804 -24.976 -12.979  0.00  0.00    +0.180 C 
BRANCH   4   5
ATOM      5  S   UNK     1      39.498 -25.591 -14.483  0.00  0.00    +0.039 S 
ATOM      6  O   UNK     1      40.939 -25.667 -14.318  0.00  0.00    -0.158 OA
ATOM      7  O   UNK     1      38.732 -26.754 -14.892  0.00  0.00    -0.158 OA
BRANCH   5   8
ATOM      8  N   UNK     1      39.130 -24.293 -15.524  0.00  0.00    -0.207 NA
ATOM      9  H   UNK     1      39.708 -23.488 -15.284  0.00  0.00    +0.144 HD
ATOM     10  H   UNK     1      38.145 -24.046 -15.424  0.00  0.00    +0.144 HD
ENDBRANCH   5   8
ENDBRANCH   4   5
ENDBRANCH   3   4
ENDBRANCH   2   3
ENDBRANCH   1   2
BRANCH   1  11
ATOM     11  C   UNK     1      35.283 -23.673 -14.104  0.00  0.00    +0.047 C 
BRANCH  11  12
ATOM     12  N   UNK     1      34.371 -24.748 -13.706  0.00  0.00    +0.389 N 
ATOM     13  H   UNK     1      34.648 -25.615 -14.164  0.00  0.00    -0.088 HD
ATOM     14  H   UNK     1      33.420 -24.506 -13.982  0.00  0.00    -0.088 HD
ATOM     15  H   UNK     1      34.411 -24.869 -12.694  0.00  0.00    -0.088 HD
ENDBRANCH  11  12
BRANCH  11  17
ATOM     16  O   UNK     1      36.174 -23.246 -16.312  0.00  0.00    -0.253 OA
ATOM     17  C   UNK     1      35.888 -24.059 -15.441  0.00  0.00    +0.294 C 
BRANCH  17  18
ATOM     18  O   UNK     1      36.052 -25.396 -15.601  0.00  0.00    -0.482 OA
ATOM     19  H   UNK     1      35.320 -25.974 -15.501  0.00  0.00    +0.295 HD
ENDBRANCH  17  18
ENDBRANCH  11  17
ENDBRANCH   1  11
TORSDOF 9
ENDMDL
MODEL 7
REMARK VINA RESULT:      -5.6      1.934      4.461
REMARK  Name = 448254
REMARK  9 active torsions:
REMARK  status: ('A' for Active; 'I' for Inactive)
REMARK    1  A    between atoms: C_1  and  S_2
REMARK    2  A    between atoms: C_1  and  C_11
REMARK    3  A    between atoms: S_2  and  C_3
REMARK    4  A    between atoms: C_3  and  C_4
REMARK    5  A    between atoms: C_4  and  S_5
REMARK    6  A    between atoms: S_5  and  N_8
REMARK    7  A    between atoms: C_11  and  N_12
REMARK    8  A    between atoms: C_11  and  C_17
REMARK    9  A    between atoms: C_17  and  O_18
REMARK                            x       y       z     vdW  Elec       q    Type
REMARK                         _______ _______ _______ _____ _____    ______ ____
ROOT
ATOM      1  C   UNK     1      34.488 -24.449 -13.072  0.00  0.00    +0.047 C 
ENDROOT
BRANCH   1   2
ATOM      2  S   UNK     1      34.963 -24.111 -14.798  0.00  0.00    -0.140 S 
BRANCH   2   3
ATOM      3  C   UNK     1      35.984 -25.575 -15.075  0.00  0.00    +0.084 C 
BRANCH   3   4
ATOM      4  C   UNK     1      37.446 -25.186 -15.206  0.00  0.00    +0.180 C 
BRANCH   4   5
ATOM      5  S   UNK     1      38.421 -25.960 -13.953  0.00  0.00    +0.039 S 
ATOM      6  O   UNK     1      37.521 -26.629 -13.029  0.00  0.00    -0.158 OA
ATOM      7  O   UNK     1      39.499 -26.685 -14.601  0.00  0.00    -0.158 OA
BRANCH   5   8
ATOM      8  N   UNK     1      39.065 -24.578 -13.192  0.00  0.00    -0.207 NA
ATOM      9  H   UNK     1      38.771 -23.742 -13.697  0.00  0.00    +0.144 HD
ATOM     10  H   UNK     1      40.084 -24.634 -13.191  0.00  0.00    +0.144 HD
ENDBRANCH   5   8
ENDBRANCH   4   5
ENDBRANCH   3   4
ENDBRANCH   2   3
ENDBRANCH   1   2
BRANCH   1  11
ATOM     11  C   UNK     1      35.301 -23.617 -12.080  0.00  0.00    +0.047 C 
BRANCH  11  12
ATOM     12  N   UNK     1      36.408 -22.952 -12.773  0.00  0.00    +0.389 N 
ATOM     13  H   UNK     1      36.328 -21.943 -12.651  0.00  0.00    -0.088 HD
ATOM     14  H   UNK     1      36.372 -23.179 -13.766  0.00  0.00    -0.088 HD
ATOM     15  H   UNK     1      37.294 -23.273 -12.383  0.00  0.00    -0.088 HD
ENDBRANCH  11  12
BRANCH  11  17
ATOM     16  O   UNK     1      35.224 -25.117 -10.185  0.00  0.00    -0.253 OA
ATOM     17  C   UNK     1      35.898 -24.464 -10.972  0.00  0.00    +0.294 C 
BRANCH  17  18
ATOM     18  O   UNK     1      37.252 -24.406 -10.909  0.00  0.00    -0.482 OA
ATOM     19  H   UNK     1      37.718 -23.767 -11.412  0.00  0.00    +0.295 HD
ENDBRANCH  17  18
ENDBRANCH  11  17
ENDBRANCH   1  11
TORSDOF 9
ENDMDL
MODEL 8
REMARK VINA RESULT:      -5.4      3.984      4.631
REMARK  Name = 448254
REMARK  9 active torsions:
REMARK  status: ('A' for Active; 'I' for Inactive)
REMARK    1  A    between atoms: C_1  and  S_2
REMARK    2  A    between atoms: C_1  and  C_11
REMARK    3  A    between atoms: S_2  and  C_3
REMARK    4  A    between atoms: C_3  and  C_4
REMARK    5  A    between atoms: C_4  and  S_5
REMARK    6  A    between atoms: S_5  and  N_8
REMARK    7  A    between atoms: C_11  and  N_12
REMARK    8  A    between atoms: C_11  and  C_17
REMARK    9  A    between atoms: C_17  and  O_18
REMARK                            x       y       z     vdW  Elec       q    Type
REMARK                         _______ _______ _______ _____ _____    ______ ____
ROOT
ATOM      1  C   UNK     1      36.034 -22.713 -16.267  0.00  0.00    +0.047 C 
ENDROOT
BRANCH   1   2
ATOM      2  S   UNK     1      37.013 -23.167 -14.800  0.00  0.00    -0.140 S 
BRANCH   2   3
ATOM      3  C   UNK     1      35.923 -24.452 -14.150  0.00  0.00    +0.084 C 
BRANCH   3   4
ATOM      4  C   UNK     1      35.304 -24.008 -12.837  0.00  0.00    +0.180 C 
BRANCH   4   5
ATOM      5  S   UNK     1      36.204 -24.658 -11.463  0.00  0.00    +0.039 S 
ATOM      6  O   UNK     1      37.341 -23.787 -11.215  0.00  0.00    -0.158 OA
ATOM      7  O   UNK     1      35.258 -24.966 -10.406  0.00  0.00    -0.158 OA
BRANCH   5   8
ATOM      8  N   UNK     1      36.764 -26.116 -12.145  0.00  0.00    -0.207 NA
ATOM      9  H   UNK     1      37.761 -26.037 -12.346  0.00  0.00    +0.144 HD
ATOM     10  H   UNK     1      36.257 -26.303 -13.010  0.00  0.00    +0.144 HD
ENDBRANCH   5   8
ENDBRANCH   4   5
ENDBRANCH   3   4
ENDBRANCH   2   3
ENDBRANCH   1   2
BRANCH   1  11
ATOM     11  C   UNK     1      36.885 -22.019 -17.332  0.00  0.00    +0.047 C 
BRANCH  11  12
ATOM     12  N   UNK     1      37.391 -20.744 -16.817  0.00  0.00    +0.389 N 
ATOM     13  H   UNK     1      37.654 -20.144 -17.597  0.00  0.00    -0.088 HD
ATOM     14  H   UNK     1      38.206 -20.916 -16.229  0.00  0.00    -0.088 HD
ATOM     15  H   UNK     1      36.664 -20.288 -16.266  0.00  0.00    -0.088 HD
ENDBRANCH  11  12
BRANCH  11  17
ATOM     16  O   UNK     1      35.231 -22.466 -19.040  0.00  0.00    -0.253 OA
ATOM     17  C   UNK     1      36.096 -21.722 -18.594  0.00  0.00    +0.294 C 
BRANCH  17  18
ATOM     18  O   UNK     1      36.462 -20.569 -19.207  0.00  0.00    -0.482 OA
ATOM     19  H   UNK     1      35.912 -20.193 -19.867  0.00  0.00    +0.295 HD
ENDBRANCH  17  18
ENDBRANCH  11  17
ENDBRANCH   1  11
TORSDOF 9
ENDMDL
MODEL 9
REMARK VINA RESULT:      -5.3      2.980      5.013
REMARK  Name = 448254
REMARK  9 active torsions:
REMARK  status: ('A' for Active; 'I' for Inactive)
REMARK    1  A    between atoms: C_1  and  S_2
REMARK    2  A    between atoms: C_1  and  C_11
REMARK    3  A    between atoms: S_2  and  C_3
REMARK    4  A    between atoms: C_3  and  C_4
REMARK    5  A    between atoms: C_4  and  S_5
REMARK    6  A    between atoms: S_5  and  N_8
REMARK    7  A    between atoms: C_11  and  N_12
REMARK    8  A    between atoms: C_11  and  C_17
REMARK    9  A    between atoms: C_17  and  O_18
REMARK                            x       y       z     vdW  Elec       q    Type
REMARK                         _______ _______ _______ _____ _____    ______ ____
ROOT
ATOM      1  C   UNK     1      36.609 -23.433 -13.675  0.00  0.00    +0.047 C 
ENDROOT
BRANCH   1   2
ATOM      2  S   UNK     1      36.124 -24.742 -12.504  0.00  0.00    -0.140 S 
BRANCH   2   3
ATOM      3  C   UNK     1      37.421 -25.935 -12.900  0.00  0.00    +0.084 C 
BRANCH   3   4
ATOM      4  C   UNK     1      38.786 -25.273 -12.848  0.00  0.00    +0.180 C 
BRANCH   4   5
ATOM      5  S   UNK     1      39.726 -25.647 -14.297  0.00  0.00    +0.039 S 
ATOM      6  O   UNK     1      39.896 -24.420 -15.055  0.00  0.00    -0.158 OA
ATOM      7  O   UNK     1      40.873 -26.443 -13.899  0.00  0.00    -0.158 OA
BRANCH   5   8
ATOM      8  N   UNK     1      38.616 -26.650 -15.112  0.00  0.00    -0.207 NA
ATOM      9  H   UNK     1      37.840 -26.087 -15.461  0.00  0.00    +0.144 HD
ATOM     10  H   UNK     1      38.260 -27.358 -14.469  0.00  0.00    +0.144 HD
ENDBRANCH   5   8
ENDBRANCH   4   5
ENDBRANCH   3   4
ENDBRANCH   2   3
ENDBRANCH   1   2
BRANCH   1  11
ATOM     11  C   UNK     1      36.379 -23.851 -15.128  0.00  0.00    +0.047 C 
BRANCH  11  12
ATOM     12  N   UNK     1      37.377 -23.221 -15.995  0.00  0.00    +0.389 N 
ATOM     13  H   UNK     1      38.238 -23.072 -15.469  0.00  0.00    -0.088 HD
ATOM     14  H   UNK     1      37.022 -22.323 -16.326  0.00  0.00    -0.088 HD
ATOM     15  H   UNK     1      37.565 -23.827 -16.793  0.00  0.00    -0.088 HD
ENDBRANCH  11  12
BRANCH  11  17
ATOM     16  O   UNK     1      34.552 -23.800 -16.712  0.00  0.00    -0.253 OA
ATOM     17  C   UNK     1      35.009 -23.439 -15.634  0.00  0.00    +0.294 C 
BRANCH  17  18
ATOM     18  O   UNK     1      34.346 -22.602 -14.798  0.00  0.00    -0.482 OA
ATOM     19  H   UNK     1      33.695 -22.019 -15.136  0.00  0.00    +0.295 HD
ENDBRANCH  17  18
ENDBRANCH  11  17
ENDBRANCH   1  11
TORSDOF 9
ENDMDL
