MODEL 1
REMARK VINA RESULT:      -8.0      0.000      0.000
REMARK  Name = 107985
REMARK  2 active torsions:
REMARK  status: ('A' for Active; 'I' for Inactive)
REMARK    1  A    between atoms: C_10  and  C_23
REMARK    2  A    between atoms: C_13  and  O_26
REMARK                            x       y       z     vdW  Elec       q    Type
REMARK                         _______ _______ _______ _____ _____    ______ ____
ROOT
ATOM      1  O   UNL     1      34.770 -22.348 -15.133  0.00  0.00    -0.351 OA
ATOM      2  O   UNL     1      33.526 -23.645 -12.323  0.00  0.00    -0.351 OA
ATOM      3  O   UNL     1      35.877 -25.734 -15.363  0.00  0.00    -0.351 OA
ATOM      4  O   UNL     1      28.012 -24.984 -15.836  0.00  0.00    -0.441 OA
ATOM      5  O   UNL     1      27.728 -23.420 -17.502  0.00  0.00    -0.245 OA
ATOM      6  C   UNL     1      33.873 -23.431 -14.833  0.00  0.00    +0.147 C 
ATOM      7  C   UNL     1      34.175 -24.177 -13.494  0.00  0.00    +0.169 C 
ATOM      8  C   UNL     1      34.930 -23.517 -15.945  0.00  0.00    +0.172 C 
ATOM      9  C   UNL     1      32.386 -23.164 -15.173  0.00  0.00    +0.032 C 
ATOM     10  C   UNL     1      36.473 -24.928 -14.346  0.00  0.00    +0.147 C 
ATOM     11  C   UNL     1      36.162 -24.359 -15.702  0.00  0.00    +0.172 C 
ATOM     12  C   UNL     1      33.031 -24.899 -12.788  0.00  0.00    +0.145 C 
ATOM     13  C   UNL     1      35.607 -24.588 -13.172  0.00  0.00    +0.167 C 
ATOM     14  C   UNL     1      31.590 -24.486 -14.816  0.00  0.00    +0.027 C 
ATOM     15  C   UNL     1      31.628 -24.818 -13.312  0.00  0.00    +0.036 C 
ATOM     16  C   UNL     1      32.146 -22.866 -16.691  0.00  0.00    +0.008 C 
ATOM     17  C   UNL     1      31.896 -21.931 -14.368  0.00  0.00    +0.003 C 
ATOM     18  C   UNL     1      30.194 -24.468 -15.377  0.00  0.00    +0.001 C 
ATOM     19  C   UNL     1      30.664 -22.667 -17.057  0.00  0.00    +0.032 C 
ATOM     20  C   UNL     1      29.811 -23.656 -16.359  0.00  0.00    +0.049 C 
ATOM     21  C   UNL     1      29.097 -25.368 -14.978  0.00  0.00    +0.231 C 
ATOM     22  C   UNL     1      28.415 -23.969 -16.658  0.00  0.00    +0.337 C 
ENDROOT
BRANCH  10  23
ATOM     23  C   UNL     1      37.875 -25.338 -14.050  0.00  0.00    +0.030 C 
ATOM     24  C   UNL     1      38.071 -25.682 -12.561  0.00  0.00    +0.003 C 
ATOM     25  C   UNL     1      38.315 -26.538 -14.910  0.00  0.00    +0.003 C 
ENDBRANCH  10  23
BRANCH  13  26
ATOM     26  O   UNL     1      36.235 -23.520 -12.452  0.00  0.00    -0.379 OA
ATOM     27  H   UNL     1      37.162 -23.747 -12.280  0.00  0.00    +0.211 HD
ENDBRANCH  13  26
TORSDOF 2
ENDMDL
MODEL 2
REMARK VINA RESULT:      -7.8     15.872     18.036
REMARK  Name = 107985
REMARK  2 active torsions:
REMARK  status: ('A' for Active; 'I' for Inactive)
REMARK    1  A    between atoms: C_10  and  C_23
REMARK    2  A    between atoms: C_13  and  O_26
REMARK                            x       y       z     vdW  Elec       q    Type
REMARK                         _______ _______ _______ _____ _____    ______ ____
ROOT
ATOM      1  O   UNL     1      35.338 -10.162 -24.001  0.00  0.00    -0.351 OA
ATOM      2  O   UNL     1      32.695 -10.412 -21.981  0.00  0.00    -0.351 OA
ATOM      3  O   UNL     1      33.069 -12.026 -26.030  0.00  0.00    -0.351 OA
ATOM      4  O   UNL     1      30.627  -4.634 -24.602  0.00  0.00    -0.441 OA
ATOM      5  O   UNL     1      32.433  -3.350 -25.227  0.00  0.00    -0.245 OA
ATOM      6  C   UNL     1      33.956  -9.775 -24.095  0.00  0.00    +0.147 C 
ATOM      7  C   UNL     1      32.960 -10.728 -23.362  0.00  0.00    +0.169 C 
ATOM      8  C   UNL     1      34.738 -10.349 -25.287  0.00  0.00    +0.172 C 
ATOM      9  C   UNL     1      33.693  -8.253 -23.980  0.00  0.00    +0.032 C 
ATOM     10  C   UNL     1      33.602 -12.689 -24.883  0.00  0.00    +0.147 C 
ATOM     11  C   UNL     1      34.455 -11.771 -25.714  0.00  0.00    +0.172 C 
ATOM     12  C   UNL     1      31.624 -10.161 -22.889  0.00  0.00    +0.145 C 
ATOM     13  C   UNL     1      33.088 -12.235 -23.551  0.00  0.00    +0.167 C 
ATOM     14  C   UNL     1      32.133  -8.043 -24.160  0.00  0.00    +0.027 C 
ATOM     15  C   UNL     1      31.310  -8.703 -23.037  0.00  0.00    +0.036 C 
ATOM     16  C   UNL     1      34.410  -7.418 -25.093  0.00  0.00    +0.008 C 
ATOM     17  C   UNL     1      34.213  -7.751 -22.607  0.00  0.00    +0.003 C 
ATOM     18  C   UNL     1      31.782  -6.596 -24.370  0.00  0.00    +0.001 C 
ATOM     19  C   UNL     1      34.102  -5.910 -25.034  0.00  0.00    +0.032 C 
ATOM     20  C   UNL     1      32.667  -5.678 -24.751  0.00  0.00    +0.049 C 
ATOM     21  C   UNL     1      30.433  -6.013 -24.254  0.00  0.00    +0.231 C 
ATOM     22  C   UNL     1      31.944  -4.415 -24.896  0.00  0.00    +0.337 C 
ENDROOT
BRANCH  10  23
ATOM     23  C   UNL     1      33.730 -14.159 -25.088  0.00  0.00    +0.030 C 
ATOM     24  C   UNL     1      33.444 -14.947 -23.795  0.00  0.00    +0.003 C 
ATOM     25  C   UNL     1      32.797 -14.665 -26.206  0.00  0.00    +0.003 C 
ENDBRANCH  10  23
BRANCH  13  26
ATOM     26  O   UNL     1      33.964 -12.747 -22.539  0.00  0.00    -0.379 OA
ATOM     27  H   UNL     1      34.688 -13.239 -22.956  0.00  0.00    +0.211 HD
ENDBRANCH  13  26
TORSDOF 2
ENDMDL
MODEL 3
REMARK VINA RESULT:      -7.7     14.906     17.535
REMARK  Name = 107985
REMARK  2 active torsions:
REMARK  status: ('A' for Active; 'I' for Inactive)
REMARK    1  A    between atoms: C_10  and  C_23
REMARK    2  A    between atoms: C_13  and  O_26
REMARK                            x       y       z     vdW  Elec       q    Type
REMARK                         _______ _______ _______ _____ _____    ______ ____
ROOT
ATOM      1  O   UNL     1      32.709 -10.128 -21.914  0.00  0.00    -0.351 OA
ATOM      2  O   UNL     1      35.352  -9.383 -23.806  0.00  0.00    -0.351 OA
ATOM      3  O   UNL     1      31.276  -7.864 -24.273  0.00  0.00    -0.351 OA
ATOM      4  O   UNL     1      33.686 -14.660 -27.536  0.00  0.00    -0.441 OA
ATOM      5  O   UNL     1      32.662 -16.264 -26.238  0.00  0.00    -0.245 OA
ATOM      6  C   UNL     1      33.011 -10.246 -23.314  0.00  0.00    +0.147 C 
ATOM      7  C   UNL     1      33.937  -9.122 -23.879  0.00  0.00    +0.169 C 
ATOM      8  C   UNL     1      31.624  -9.829 -22.800  0.00  0.00    +0.172 C 
ATOM      9  C   UNL     1      33.270 -11.690 -23.810  0.00  0.00    +0.032 C 
ATOM     10  C   UNL     1      32.201  -7.317 -23.333  0.00  0.00    +0.147 C 
ATOM     11  C   UNL     1      31.218  -8.378 -22.924  0.00  0.00    +0.172 C 
ATOM     12  C   UNL     1      34.782  -9.425 -25.113  0.00  0.00    +0.145 C 
ATOM     13  C   UNL     1      33.643  -7.666 -23.534  0.00  0.00    +0.167 C 
ATOM     14  C   UNL     1      33.531 -11.600 -25.369  0.00  0.00    +0.027 C 
ATOM     15  C   UNL     1      34.799 -10.798 -25.717  0.00  0.00    +0.036 C 
ATOM     16  C   UNL     1      32.049 -12.644 -23.591  0.00  0.00    +0.008 C 
ATOM     17  C   UNL     1      34.476 -12.283 -23.032  0.00  0.00    +0.003 C 
ATOM     18  C   UNL     1      33.497 -12.954 -26.023  0.00  0.00    +0.001 C 
ATOM     19  C   UNL     1      32.266 -14.066 -24.142  0.00  0.00    +0.032 C 
ATOM     20  C   UNL     1      32.939 -14.023 -25.461  0.00  0.00    +0.049 C 
ATOM     21  C   UNL     1      34.003 -13.270 -27.371  0.00  0.00    +0.231 C 
ATOM     22  C   UNL     1      33.059 -15.125 -26.414  0.00  0.00    +0.337 C 
ENDROOT
BRANCH  10  23
ATOM     23  C   UNL     1      31.894  -5.897 -23.001  0.00  0.00    +0.030 C 
ATOM     24  C   UNL     1      31.041  -5.223 -24.092  0.00  0.00    +0.003 C 
ATOM     25  C   UNL     1      31.175  -5.767 -21.644  0.00  0.00    +0.003 C 
ENDBRANCH  10  23
BRANCH  13  26
ATOM     26  O   UNL     1      34.354  -7.331 -22.336  0.00  0.00    -0.379 OA
ATOM     27  H   UNL     1      34.395  -6.366 -22.243  0.00  0.00    +0.211 HD
ENDBRANCH  13  26
TORSDOF 2
ENDMDL
MODEL 4
REMARK VINA RESULT:      -7.6     13.051     15.698
REMARK  Name = 107985
REMARK  2 active torsions:
REMARK  status: ('A' for Active; 'I' for Inactive)
REMARK    1  A    between atoms: C_10  and  C_23
REMARK    2  A    between atoms: C_13  and  O_26
REMARK                            x       y       z     vdW  Elec       q    Type
REMARK                         _______ _______ _______ _____ _____    ______ ____
ROOT
ATOM      1  O   UNL     1      32.752 -11.027 -24.865  0.00  0.00    -0.351 OA
ATOM      2  O   UNL     1      30.814 -11.328 -22.168  0.00  0.00    -0.351 OA
ATOM      3  O   UNL     1      34.433  -8.900 -22.543  0.00  0.00    -0.351 OA
ATOM      4  O   UNL     1      34.627 -16.539 -20.483  0.00  0.00    -0.441 OA
ATOM      5  O   UNL     1      35.440 -17.577 -22.371  0.00  0.00    -0.245 OA
ATOM      6  C   UNL     1      32.970 -11.454 -23.510  0.00  0.00    +0.147 C 
ATOM      7  C   UNL     1      32.092 -10.723 -22.446  0.00  0.00    +0.169 C 
ATOM      8  C   UNL     1      33.993 -10.609 -24.285  0.00  0.00    +0.172 C 
ATOM      9  C   UNL     1      33.177 -12.978 -23.329  0.00  0.00    +0.032 C 
ATOM     10  C   UNL     1      33.157  -8.462 -23.013  0.00  0.00    +0.147 C 
ATOM     11  C   UNL     1      34.129  -9.145 -23.933  0.00  0.00    +0.172 C 
ATOM     12  C   UNL     1      31.789 -11.440 -21.133  0.00  0.00    +0.145 C 
ATOM     13  C   UNL     1      31.965  -9.205 -22.495  0.00  0.00    +0.167 C 
ATOM     14  C   UNL     1      33.447 -13.223 -21.788  0.00  0.00    +0.027 C 
ATOM     15  C   UNL     1      32.242 -12.851 -20.904  0.00  0.00    +0.036 C 
ATOM     16  C   UNL     1      34.412 -13.529 -24.116  0.00  0.00    +0.008 C 
ATOM     17  C   UNL     1      31.918 -13.725 -23.846  0.00  0.00    +0.003 C 
ATOM     18  C   UNL     1      33.960 -14.613 -21.522  0.00  0.00    +0.001 C 
ATOM     19  C   UNL     1      34.673 -15.030 -23.891  0.00  0.00    +0.032 C 
ATOM     20  C   UNL     1      34.491 -15.388 -22.465  0.00  0.00    +0.049 C 
ATOM     21  C   UNL     1      34.011 -15.273 -20.205  0.00  0.00    +0.231 C 
ATOM     22  C   UNL     1      34.915 -16.627 -21.817  0.00  0.00    +0.337 C 
ENDROOT
BRANCH  10  23
ATOM     23  C   UNL     1      33.054  -6.976 -23.063  0.00  0.00    +0.030 C 
ATOM     24  C   UNL     1      32.334  -6.492 -24.336  0.00  0.00    +0.003 C 
ATOM     25  C   UNL     1      32.331  -6.409 -21.826  0.00  0.00    +0.003 C 
ENDBRANCH  10  23
BRANCH  13  26
ATOM     26  O   UNL     1      30.840  -8.869 -23.317  0.00  0.00    -0.379 OA
ATOM     27  H   UNL     1      30.039  -9.279 -22.955  0.00  0.00    +0.211 HD
ENDBRANCH  13  26
TORSDOF 2
ENDMDL
MODEL 5
REMARK VINA RESULT:      -7.6      1.717      6.913
REMARK  Name = 107985
REMARK  2 active torsions:
REMARK  status: ('A' for Active; 'I' for Inactive)
REMARK    1  A    between atoms: C_10  and  C_23
REMARK    2  A    between atoms: C_13  and  O_26
REMARK                            x       y       z     vdW  Elec       q    Type
REMARK                         _______ _______ _______ _____ _____    ______ ____
ROOT
ATOM      1  O   UNL     1      32.243 -22.349 -13.934  0.00  0.00    -0.351 OA
ATOM      2  O   UNL     1      33.179 -22.864 -17.093  0.00  0.00    -0.351 OA
ATOM      3  O   UNL     1      30.234 -25.164 -14.819  0.00  0.00    -0.351 OA
ATOM      4  O   UNL     1      37.977 -26.793 -14.626  0.00  0.00    -0.441 OA
ATOM      5  O   UNL     1      38.622 -26.052 -12.543  0.00  0.00    -0.245 OA
ATOM      6  C   UNL     1      32.815 -23.458 -14.648  0.00  0.00    +0.147 C 
ATOM      7  C   UNL     1      32.367 -23.576 -16.139  0.00  0.00    +0.169 C 
ATOM      8  C   UNL     1      31.736 -23.638 -13.568  0.00  0.00    +0.172 C 
ATOM      9  C   UNL     1      34.304 -23.742 -14.333  0.00  0.00    +0.032 C 
ATOM     10  C   UNL     1      29.921 -23.923 -15.453  0.00  0.00    +0.147 C 
ATOM     11  C   UNL     1      30.328 -23.973 -14.007  0.00  0.00    +0.172 C 
ATOM     12  C   UNL     1      33.291 -24.286 -17.124  0.00  0.00    +0.145 C 
ATOM     13  C   UNL     1      30.889 -23.442 -16.490  0.00  0.00    +0.167 C 
ATOM     14  C   UNL     1      34.716 -25.018 -15.176  0.00  0.00    +0.027 C 
ATOM     15  C   UNL     1      34.641 -24.778 -16.696  0.00  0.00    +0.036 C 
ATOM     16  C   UNL     1      34.563 -24.071 -12.825  0.00  0.00    +0.008 C 
ATOM     17  C   UNL     1      35.145 -22.487 -14.691  0.00  0.00    +0.003 C 
ATOM     18  C   UNL     1      36.041 -25.577 -14.736  0.00  0.00    +0.001 C 
ATOM     19  C   UNL     1      36.028 -24.424 -12.509  0.00  0.00    +0.032 C 
ATOM     20  C   UNL     1      36.598 -25.298 -13.560  0.00  0.00    +0.049 C 
ATOM     21  C   UNL     1      36.860 -26.542 -15.492  0.00  0.00    +0.231 C 
ATOM     22  C   UNL     1      37.841 -26.062 -13.479  0.00  0.00    +0.337 C 
ENDROOT
BRANCH  10  23
ATOM     23  C   UNL     1      28.473 -23.806 -15.781  0.00  0.00    +0.030 C 
ATOM     24  C   UNL     1      27.958 -22.364 -15.605  0.00  0.00    +0.003 C 
ATOM     25  C   UNL     1      28.168 -24.280 -17.215  0.00  0.00    +0.003 C 
ENDBRANCH  10  23
BRANCH  13  26
ATOM     26  O   UNL     1      30.608 -22.062 -16.754  0.00  0.00    -0.379 OA
ATOM     27  H   UNL     1      31.148 -21.504 -16.172  0.00  0.00    +0.211 HD
ENDBRANCH  13  26
TORSDOF 2
ENDMDL
MODEL 6
REMARK VINA RESULT:      -7.4      1.934      7.286
REMARK  Name = 107985
REMARK  2 active torsions:
REMARK  status: ('A' for Active; 'I' for Inactive)
REMARK    1  A    between atoms: C_10  and  C_23
REMARK    2  A    between atoms: C_13  and  O_26
REMARK                            x       y       z     vdW  Elec       q    Type
REMARK                         _______ _______ _______ _____ _____    ______ ____
ROOT
ATOM      1  O   UNL     1      34.249 -23.742 -12.283  0.00  0.00    -0.351 OA
ATOM      2  O   UNL     1      35.090 -21.913 -14.941  0.00  0.00    -0.351 OA
ATOM      3  O   UNL     1      32.573 -25.490 -14.905  0.00  0.00    -0.351 OA
ATOM      4  O   UNL     1      40.460 -25.839 -15.467  0.00  0.00    -0.441 OA
ATOM      5  O   UNL     1      41.107 -26.589 -13.387  0.00  0.00    -0.245 OA
ATOM      6  C   UNL     1      34.922 -24.016 -13.523  0.00  0.00    +0.147 C 
ATOM      7  C   UNL     1      34.421 -23.173 -14.738  0.00  0.00    +0.169 C 
ATOM      8  C   UNL     1      33.928 -25.001 -12.887  0.00  0.00    +0.172 C 
ATOM      9  C   UNL     1      36.449 -24.246 -13.404  0.00  0.00    +0.032 C 
ATOM     10  C   UNL     1      32.076 -24.193 -14.573  0.00  0.00    +0.147 C 
ATOM     11  C   UNL     1      32.555 -25.136 -13.505  0.00  0.00    +0.172 C 
ATOM     12  C   UNL     1      35.379 -22.928 -15.900  0.00  0.00    +0.145 C 
ATOM     13  C   UNL     1      32.924 -23.029 -14.983  0.00  0.00    +0.167 C 
ATOM     14  C   UNL     1      36.978 -24.577 -14.860  0.00  0.00    +0.027 C 
ATOM     15  C   UNL     1      36.800 -23.403 -15.841  0.00  0.00    +0.036 C 
ATOM     16  C   UNL     1      36.820 -25.455 -12.482  0.00  0.00    +0.008 C 
ATOM     17  C   UNL     1      37.106 -22.975 -12.800  0.00  0.00    +0.003 C 
ATOM     18  C   UNL     1      38.383 -25.114 -14.837  0.00  0.00    +0.001 C 
ATOM     19  C   UNL     1      38.332 -25.739 -12.408  0.00  0.00    +0.032 C 
ATOM     20  C   UNL     1      38.956 -25.615 -13.746  0.00  0.00    +0.049 C 
ATOM     21  C   UNL     1      39.280 -25.222 -16.002  0.00  0.00    +0.231 C 
ATOM     22  C   UNL     1      40.289 -26.076 -14.131  0.00  0.00    +0.337 C 
ENDROOT
BRANCH  10  23
ATOM     23  C   UNL     1      30.610 -24.074 -14.810  0.00  0.00    +0.030 C 
ATOM     24  C   UNL     1      30.298 -23.287 -16.098  0.00  0.00    +0.003 C 
ATOM     25  C   UNL     1      29.925 -25.452 -14.881  0.00  0.00    +0.003 C 
ENDBRANCH  10  23
BRANCH  13  26
ATOM     26  O   UNL     1      32.457 -21.870 -14.280  0.00  0.00    -0.379 OA
ATOM     27  H   UNL     1      32.912 -21.805 -13.426  0.00  0.00    +0.211 HD
ENDBRANCH  13  26
TORSDOF 2
ENDMDL
MODEL 7
REMARK VINA RESULT:      -7.2     12.584     14.844
REMARK  Name = 107985
REMARK  2 active torsions:
REMARK  status: ('A' for Active; 'I' for Inactive)
REMARK    1  A    between atoms: C_10  and  C_23
REMARK    2  A    between atoms: C_13  and  O_26
REMARK                            x       y       z     vdW  Elec       q    Type
REMARK                         _______ _______ _______ _____ _____    ______ ____
ROOT
ATOM      1  O   UNL     1      31.775 -14.058 -21.669  0.00  0.00    -0.351 OA
ATOM      2  O   UNL     1      32.722 -13.169 -24.741  0.00  0.00    -0.351 OA
ATOM      3  O   UNL     1      35.312 -14.500 -21.477  0.00  0.00    -0.351 OA
ATOM      4  O   UNL     1      33.157  -6.939 -22.390  0.00  0.00    -0.441 OA
ATOM      5  O   UNL     1      31.629  -6.616 -20.698  0.00  0.00    -0.245 OA
ATOM      6  C   UNL     1      32.665 -13.062 -22.201  0.00  0.00    +0.147 C 
ATOM      7  C   UNL     1      33.405 -13.480 -23.511  0.00  0.00    +0.169 C 
ATOM      8  C   UNL     1      32.982 -13.856 -20.924  0.00  0.00    +0.172 C 
ATOM      9  C   UNL     1      32.144 -11.606 -22.118  0.00  0.00    +0.032 C 
ATOM     10  C   UNL     1      34.593 -15.409 -22.311  0.00  0.00    +0.147 C 
ATOM     11  C   UNL     1      34.026 -14.948 -20.997  0.00  0.00    +0.172 C 
ATOM     12  C   UNL     1      33.880 -12.385 -24.462  0.00  0.00    +0.145 C 
ATOM     13  C   UNL     1      34.058 -14.855 -23.595  0.00  0.00    +0.167 C 
ATOM     14  C   UNL     1      33.284 -10.677 -22.705  0.00  0.00    +0.027 C 
ATOM     15  C   UNL     1      33.563 -10.944 -24.196  0.00  0.00    +0.036 C 
ATOM     16  C   UNL     1      31.861 -11.135 -20.653  0.00  0.00    +0.008 C 
ATOM     17  C   UNL     1      30.813 -11.499 -22.912  0.00  0.00    +0.003 C 
ATOM     18  C   UNL     1      33.032  -9.224 -22.408  0.00  0.00    +0.001 C 
ATOM     19  C   UNL     1      31.408  -9.667 -20.549  0.00  0.00    +0.032 C 
ATOM     20  C   UNL     1      32.200  -8.806 -21.457  0.00  0.00    +0.049 C 
ATOM     21  C   UNL     1      33.702  -8.084 -23.061  0.00  0.00    +0.231 C 
ATOM     22  C   UNL     1      32.263  -7.346 -21.439  0.00  0.00    +0.337 C 
ENDROOT
BRANCH  10  23
ATOM     23  C   UNL     1      35.240 -16.749 -22.374  0.00  0.00    +0.030 C 
ATOM     24  C   UNL     1      34.454 -17.806 -21.574  0.00  0.00    +0.003 C 
ATOM     25  C   UNL     1      35.410 -17.237 -23.826  0.00  0.00    +0.003 C 
ENDBRANCH  10  23
BRANCH  13  26
ATOM     26  O   UNL     1      33.098 -15.784 -24.114  0.00  0.00    -0.379 OA
ATOM     27  H   UNL     1      32.887 -16.444 -23.436  0.00  0.00    +0.211 HD
ENDBRANCH  13  26
TORSDOF 2
ENDMDL
MODEL 8
REMARK VINA RESULT:      -5.7      1.729      3.171
REMARK  Name = 107985
REMARK  2 active torsions:
REMARK  status: ('A' for Active; 'I' for Inactive)
REMARK    1  A    between atoms: C_10  and  C_23
REMARK    2  A    between atoms: C_13  and  O_26
REMARK                            x       y       z     vdW  Elec       q    Type
REMARK                         _______ _______ _______ _____ _____    ______ ____
ROOT
ATOM      1  O   UNL     1      34.348 -25.068 -11.974  0.00  0.00    -0.351 OA
ATOM      2  O   UNL     1      35.011 -26.160 -15.054  0.00  0.00    -0.351 OA
ATOM      3  O   UNL     1      36.882 -22.777 -13.009  0.00  0.00    -0.351 OA
ATOM      4  O   UNL     1      30.164 -22.071 -17.132  0.00  0.00    -0.441 OA
ATOM      5  O   UNL     1      28.560 -21.838 -15.496  0.00  0.00    -0.245 OA
ATOM      6  C   UNL     1      34.307 -24.477 -13.284  0.00  0.00    +0.147 C 
ATOM      7  C   UNL     1      35.390 -25.009 -14.275  0.00  0.00    +0.169 C 
ATOM      8  C   UNL     1      34.796 -23.710 -12.045  0.00  0.00    +0.172 C 
ATOM      9  C   UNL     1      32.885 -24.240 -13.850  0.00  0.00    +0.032 C 
ATOM     10  C   UNL     1      37.285 -24.130 -12.791  0.00  0.00    +0.147 C 
ATOM     11  C   UNL     1      36.281 -23.466 -11.892  0.00  0.00    +0.172 C 
ATOM     12  C   UNL     1      35.108 -24.932 -15.773  0.00  0.00    +0.145 C 
ATOM     13  C   UNL     1      36.836 -25.132 -13.809  0.00  0.00    +0.167 C 
ATOM     14  C   UNL     1      33.065 -23.544 -15.262  0.00  0.00    +0.027 C 
ATOM     15  C   UNL     1      33.785 -24.445 -16.284  0.00  0.00    +0.036 C 
ATOM     16  C   UNL     1      32.019 -23.285 -12.963  0.00  0.00    +0.008 C 
ATOM     17  C   UNL     1      32.143 -25.600 -13.941  0.00  0.00    +0.003 C 
ATOM     18  C   UNL     1      31.768 -22.989 -15.783  0.00  0.00    +0.001 C 
ATOM     19  C   UNL     1      30.627 -22.984 -13.549  0.00  0.00    +0.032 C 
ATOM     20  C   UNL     1      30.710 -22.756 -15.010  0.00  0.00    +0.049 C 
ATOM     21  C   UNL     1      31.508 -22.570 -17.172  0.00  0.00    +0.231 C 
ATOM     22  C   UNL     1      29.673 -22.175 -15.861  0.00  0.00    +0.337 C 
ENDROOT
BRANCH  10  23
ATOM     23  C   UNL     1      38.698 -24.230 -12.328  0.00  0.00    +0.030 C 
ATOM     24  C   UNL     1      39.614 -24.844 -13.404  0.00  0.00    +0.003 C 
ATOM     25  C   UNL     1      39.262 -22.860 -11.905  0.00  0.00    +0.003 C 
ENDBRANCH  10  23
BRANCH  13  26
ATOM     26  O   UNL     1      37.027 -26.441 -13.258  0.00  0.00    -0.379 OA
ATOM     27  H   UNL     1      36.372 -26.597 -12.559  0.00  0.00    +0.211 HD
ENDBRANCH  13  26
TORSDOF 2
ENDMDL
MODEL 9
REMARK VINA RESULT:      -5.5      1.973      6.798
REMARK  Name = 107985
REMARK  2 active torsions:
REMARK  status: ('A' for Active; 'I' for Inactive)
REMARK    1  A    between atoms: C_10  and  C_23
REMARK    2  A    between atoms: C_13  and  O_26
REMARK                            x       y       z     vdW  Elec       q    Type
REMARK                         _______ _______ _______ _____ _____    ______ ____
ROOT
ATOM      1  O   UNL     1      33.051 -24.080 -16.881  0.00  0.00    -0.351 OA
ATOM      2  O   UNL     1      32.000 -25.971 -14.343  0.00  0.00    -0.351 OA
ATOM      3  O   UNL     1      30.639 -21.938 -15.353  0.00  0.00    -0.351 OA
ATOM      4  O   UNL     1      36.961 -23.277 -10.784  0.00  0.00    -0.441 OA
ATOM      5  O   UNL     1      38.730 -22.743 -12.159  0.00  0.00    -0.245 OA
ATOM      6  C   UNL     1      33.017 -23.921 -15.453  0.00  0.00    +0.147 C 
ATOM      7  C   UNL     1      31.801 -24.603 -14.749  0.00  0.00    +0.169 C 
ATOM      8  C   UNL     1      32.719 -22.765 -16.420  0.00  0.00    +0.172 C 
ATOM      9  C   UNL     1      34.392 -24.029 -14.749  0.00  0.00    +0.032 C 
ATOM     10  C   UNL     1      30.142 -23.107 -16.007  0.00  0.00    +0.147 C 
ATOM     11  C   UNL     1      31.283 -22.321 -16.588  0.00  0.00    +0.172 C 
ATOM     12  C   UNL     1      31.942 -25.014 -13.287  0.00  0.00    +0.145 C 
ATOM     13  C   UNL     1      30.401 -24.414 -15.324  0.00  0.00    +0.167 C 
ATOM     14  C   UNL     1      34.138 -23.777 -13.206  0.00  0.00    +0.027 C 
ATOM     15  C   UNL     1      33.246 -24.857 -12.564  0.00  0.00    +0.036 C 
ATOM     16  C   UNL     1      35.420 -22.955 -15.237  0.00  0.00    +0.008 C 
ATOM     17  C   UNL     1      35.001 -25.428 -15.037  0.00  0.00    +0.003 C 
ATOM     18  C   UNL     1      35.422 -23.556 -12.454  0.00  0.00    +0.001 C 
ATOM     19  C   UNL     1      36.770 -23.005 -14.497  0.00  0.00    +0.032 C 
ATOM     20  C   UNL     1      36.566 -23.221 -13.046  0.00  0.00    +0.049 C 
ATOM     21  C   UNL     1      35.581 -23.610 -10.990  0.00  0.00    +0.231 C 
ATOM     22  C   UNL     1      37.562 -23.046 -11.990  0.00  0.00    +0.337 C 
ENDROOT
BRANCH  10  23
ATOM     23  C   UNL     1      28.778 -22.902 -16.570  0.00  0.00    +0.030 C 
ATOM     24  C   UNL     1      28.157 -24.222 -17.067  0.00  0.00    +0.003 C 
ATOM     25  C   UNL     1      27.827 -22.249 -15.548  0.00  0.00    +0.003 C 
ENDBRANCH  10  23
BRANCH  13  26
ATOM     26  O   UNL     1      30.151 -25.465 -16.265  0.00  0.00    -0.379 OA
ATOM     27  H   UNL     1      29.272 -25.347 -16.657  0.00  0.00    +0.211 HD
ENDBRANCH  13  26
TORSDOF 2
ENDMDL
