MODEL 1
REMARK VINA RESULT:      -9.7      0.000      0.000
REMARK  Name = 24883477
REMARK  6 active torsions:
REMARK  status: ('A' for Active; 'I' for Inactive)
REMARK    1  A    between atoms: N_2  and  C_17
REMARK    2  A    between atoms: C_3  and  C_9
REMARK    3  A    between atoms: C_16  and  C_22
REMARK    4  A    between atoms: C_22  and  O_23
REMARK    5  A    between atoms: C_22  and  C_25
REMARK    6  A    between atoms: C_25  and  O_26
REMARK                            x       y       z     vdW  Elec       q    Type
REMARK                         _______ _______ _______ _____ _____    ______ ____
ROOT
ATOM      1  O   UNL     1      34.196 -23.277 -18.125  0.00  0.00    -0.268 OA
ATOM      2  N   UNL     1      35.892 -22.142 -16.968  0.00  0.00    -0.279 N 
ATOM      3  C   UNL     1      35.038 -22.349 -18.074  0.00  0.00    +0.263 C 
ATOM      4  H   UNL     1      36.509 -21.379 -17.049  0.00  0.00    +0.155 HD
ENDROOT
BRANCH   3   9
ATOM      5 CL   UNL     1      34.589 -17.603 -24.080  0.00  0.00    -0.082 Cl
ATOM      6  N   UNL     1      36.300 -20.747 -19.463  0.00  0.00    -0.309 N 
ATOM      7  C   UNL     1      34.767 -20.098 -20.948  0.00  0.00    +0.016 C 
ATOM      8  C   UNL     1      36.096 -19.931 -20.552  0.00  0.00    +0.048 C 
ATOM      9  C   UNL     1      35.149 -21.421 -19.156  0.00  0.00    +0.103 C 
ATOM     10  C   UNL     1      34.182 -21.041 -20.058  0.00  0.00    +0.020 C 
ATOM     11  C   UNL     1      34.292 -19.368 -22.055  0.00  0.00    +0.013 C 
ATOM     12  C   UNL     1      36.978 -19.067 -21.212  0.00  0.00    +0.015 C 
ATOM     13  C   UNL     1      35.162 -18.499 -22.725  0.00  0.00    +0.058 C 
ATOM     14  C   UNL     1      36.484 -18.352 -22.307  0.00  0.00    +0.013 C 
ATOM     15  H   UNL     1      37.150 -20.831 -18.974  0.00  0.00    +0.152 HD
ENDBRANCH   3   9
BRANCH   2  17
ATOM     16  C   UNL     1      36.189 -24.315 -13.378  0.00  0.00    +0.007 C 
ATOM     17  C   UNL     1      35.992 -22.874 -15.759  0.00  0.00    +0.051 C 
ATOM     18  C   UNL     1      37.325 -24.098 -14.158  0.00  0.00    -0.001 C 
ATOM     19  C   UNL     1      34.954 -23.812 -13.790  0.00  0.00    -0.001 C 
ATOM     20  C   UNL     1      37.227 -23.377 -15.348  0.00  0.00    +0.014 C 
ATOM     21  C   UNL     1      34.855 -23.092 -14.979  0.00  0.00    +0.014 C 
BRANCH  16  22
ATOM     22  C   UNL     1      36.296 -25.085 -12.105  0.00  0.00    +0.162 C 
BRANCH  22  23
ATOM     23  O   UNL     1      37.600 -25.672 -12.009  0.00  0.00    -0.377 OA
ATOM     24  H   UNL     1      38.133 -25.171 -11.372  0.00  0.00    +0.211 HD
ENDBRANCH  22  23
BRANCH  22  25
ATOM     25  C   UNL     1      36.056 -24.226 -10.853  0.00  0.00    +0.171 C 
BRANCH  25  26
ATOM     26  O   UNL     1      35.272 -24.955  -9.919  0.00  0.00    -0.379 OA
ATOM     27  H   UNL     1      35.845 -25.305  -9.220  0.00  0.00    +0.211 HD
ENDBRANCH  25  26
ENDBRANCH  22  25
ENDBRANCH  16  22
ENDBRANCH   2  17
TORSDOF 6
ENDMDL
MODEL 2
REMARK VINA RESULT:      -9.7      4.134      6.585
REMARK  Name = 24883477
REMARK  6 active torsions:
REMARK  status: ('A' for Active; 'I' for Inactive)
REMARK    1  A    between atoms: N_2  and  C_17
REMARK    2  A    between atoms: C_3  and  C_9
REMARK    3  A    between atoms: C_16  and  C_22
REMARK    4  A    between atoms: C_22  and  O_23
REMARK    5  A    between atoms: C_22  and  C_25
REMARK    6  A    between atoms: C_25  and  O_26
REMARK                            x       y       z     vdW  Elec       q    Type
REMARK                         _______ _______ _______ _____ _____    ______ ____
ROOT
ATOM      1  O   UNL     1      35.321 -16.830 -20.467  0.00  0.00    -0.268 OA
ATOM      2  N   UNL     1      34.038 -18.436 -21.597  0.00  0.00    -0.279 N 
ATOM      3  C   UNL     1      34.594 -17.147 -21.438  0.00  0.00    +0.263 C 
ATOM      4  H   UNL     1      33.484 -18.560 -22.401  0.00  0.00    +0.155 HD
ENDROOT
BRANCH   3   9
ATOM      5 CL   UNL     1      32.945 -12.892 -27.600  0.00  0.00    -0.082 Cl
ATOM      6  N   UNL     1      34.330 -14.839 -22.269  0.00  0.00    -0.309 N 
ATOM      7  C   UNL     1      33.799 -15.164 -24.411  0.00  0.00    +0.016 C 
ATOM      8  C   UNL     1      34.020 -14.185 -23.440  0.00  0.00    +0.048 C 
ATOM      9  C   UNL     1      34.311 -16.193 -22.465  0.00  0.00    +0.103 C 
ATOM     10  C   UNL     1      33.986 -16.427 -23.780  0.00  0.00    +0.020 C 
ATOM     11  C   UNL     1      33.461 -14.760 -25.717  0.00  0.00    +0.013 C 
ATOM     12  C   UNL     1      33.922 -12.815 -23.712  0.00  0.00    +0.015 C 
ATOM     13  C   UNL     1      33.357 -13.394 -26.004  0.00  0.00    +0.058 C 
ATOM     14  C   UNL     1      33.584 -12.438 -25.015  0.00  0.00    +0.013 C 
ATOM     15  H   UNL     1      34.535 -14.395 -21.414  0.00  0.00    +0.152 HD
ENDBRANCH   3   9
BRANCH   2  17
ATOM     16  C   UNL     1      34.404 -21.825 -19.132  0.00  0.00    +0.007 C 
ATOM     17  C   UNL     1      34.161 -19.577 -20.766  0.00  0.00    +0.051 C 
ATOM     18  C   UNL     1      33.143 -21.293 -19.404  0.00  0.00    -0.001 C 
ATOM     19  C   UNL     1      35.543 -21.233 -19.676  0.00  0.00    -0.001 C 
ATOM     20  C   UNL     1      33.022 -20.169 -20.221  0.00  0.00    +0.014 C 
ATOM     21  C   UNL     1      35.422 -20.109 -20.494  0.00  0.00    +0.014 C 
BRANCH  16  22
ATOM     22  C   UNL     1      34.531 -23.027 -18.258  0.00  0.00    +0.162 C 
BRANCH  22  23
ATOM     23  O   UNL     1      35.583 -22.818 -17.307  0.00  0.00    -0.377 OA
ATOM     24  H   UNL     1      35.382 -23.303 -16.491  0.00  0.00    +0.211 HD
ENDBRANCH  22  23
BRANCH  22  25
ATOM     25  C   UNL     1      33.242 -23.362 -17.492  0.00  0.00    +0.171 C 
BRANCH  25  26
ATOM     26  O   UNL     1      33.476 -23.251 -16.095  0.00  0.00    -0.379 OA
ATOM     27  H   UNL     1      34.425 -23.136 -15.935  0.00  0.00    +0.211 HD
ENDBRANCH  25  26
ENDBRANCH  22  25
ENDBRANCH  16  22
ENDBRANCH   2  17
TORSDOF 6
ENDMDL
MODEL 3
REMARK VINA RESULT:      -9.7      7.652     10.988
REMARK  Name = 24883477
REMARK  6 active torsions:
REMARK  status: ('A' for Active; 'I' for Inactive)
REMARK    1  A    between atoms: N_2  and  C_17
REMARK    2  A    between atoms: C_3  and  C_9
REMARK    3  A    between atoms: C_16  and  C_22
REMARK    4  A    between atoms: C_22  and  O_23
REMARK    5  A    between atoms: C_22  and  C_25
REMARK    6  A    between atoms: C_25  and  O_26
REMARK                            x       y       z     vdW  Elec       q    Type
REMARK                         _______ _______ _______ _____ _____    ______ ____
ROOT
ATOM      1  O   UNL     1      32.753 -13.806 -24.316  0.00  0.00    -0.268 OA
ATOM      2  N   UNL     1      34.374 -13.697 -22.624  0.00  0.00    -0.279 N 
ATOM      3  C   UNL     1      33.483 -13.123 -23.559  0.00  0.00    +0.263 C 
ATOM      4  H   UNL     1      34.893 -13.054 -22.088  0.00  0.00    +0.155 HD
ENDROOT
BRANCH   3   9
ATOM      5 CL   UNL     1      32.124  -5.579 -23.401  0.00  0.00    -0.082 Cl
ATOM      6  N   UNL     1      34.456 -10.901 -24.007  0.00  0.00    -0.309 N 
ATOM      7  C   UNL     1      32.780  -9.532 -23.463  0.00  0.00    +0.016 C 
ATOM      8  C   UNL     1      34.095  -9.575 -23.935  0.00  0.00    +0.048 C 
ATOM      9  C   UNL     1      33.420 -11.696 -23.597  0.00  0.00    +0.103 C 
ATOM     10  C   UNL     1      32.368 -10.879 -23.255  0.00  0.00    +0.020 C 
ATOM     11  C   UNL     1      32.160  -8.279 -23.294  0.00  0.00    +0.013 C 
ATOM     12  C   UNL     1      34.822  -8.421 -24.249  0.00  0.00    +0.015 C 
ATOM     13  C   UNL     1      32.876  -7.116 -23.603  0.00  0.00    +0.058 C 
ATOM     14  C   UNL     1      34.186  -7.188 -24.073  0.00  0.00    +0.013 C 
ATOM     15  H   UNL     1      35.334 -11.229 -24.308  0.00  0.00    +0.152 HD
ENDBRANCH   3   9
BRANCH   2  17
ATOM     16  C   UNL     1      35.140 -17.750 -21.799  0.00  0.00    +0.007 C 
ATOM     17  C   UNL     1      34.632 -15.062 -22.346  0.00  0.00    +0.051 C 
ATOM     18  C   UNL     1      35.278 -17.264 -23.100  0.00  0.00    -0.001 C 
ATOM     19  C   UNL     1      34.746 -16.891 -20.772  0.00  0.00    -0.001 C 
ATOM     20  C   UNL     1      35.025 -15.920 -23.373  0.00  0.00    +0.014 C 
ATOM     21  C   UNL     1      34.492 -15.547 -21.045  0.00  0.00    +0.014 C 
BRANCH  16  22
ATOM     22  C   UNL     1      35.412 -19.187 -21.507  0.00  0.00    +0.162 C 
BRANCH  22  23
ATOM     23  O   UNL     1      36.464 -19.288 -20.539  0.00  0.00    -0.377 OA
ATOM     24  H   UNL     1      37.309 -19.060 -20.955  0.00  0.00    +0.211 HD
ENDBRANCH  22  23
BRANCH  22  25
ATOM     25  C   UNL     1      34.185 -19.942 -20.973  0.00  0.00    +0.171 C 
BRANCH  25  26
ATOM     26  O   UNL     1      34.565 -20.745 -19.865  0.00  0.00    -0.379 OA
ATOM     27  H   UNL     1      33.788 -20.921 -19.312  0.00  0.00    +0.211 HD
ENDBRANCH  25  26
ENDBRANCH  22  25
ENDBRANCH  16  22
ENDBRANCH   2  17
TORSDOF 6
ENDMDL
MODEL 4
REMARK VINA RESULT:      -9.5      4.512     10.003
REMARK  Name = 24883477
REMARK  6 active torsions:
REMARK  status: ('A' for Active; 'I' for Inactive)
REMARK    1  A    between atoms: N_2  and  C_17
REMARK    2  A    between atoms: C_3  and  C_9
REMARK    3  A    between atoms: C_16  and  C_22
REMARK    4  A    between atoms: C_22  and  O_23
REMARK    5  A    between atoms: C_22  and  C_25
REMARK    6  A    between atoms: C_25  and  O_26
REMARK                            x       y       z     vdW  Elec       q    Type
REMARK                         _______ _______ _______ _____ _____    ______ ____
ROOT
ATOM      1  O   UNL     1      37.071 -21.161 -20.566  0.00  0.00    -0.268 OA
ATOM      2  N   UNL     1      35.115 -19.925 -20.174  0.00  0.00    -0.279 N 
ATOM      3  C   UNL     1      36.077 -20.907 -19.844  0.00  0.00    +0.263 C 
ATOM      4  H   UNL     1      34.381 -19.821 -19.525  0.00  0.00    +0.155 HD
ENDROOT
BRANCH   3   9
ATOM      5 CL   UNL     1      36.090 -24.369 -13.003  0.00  0.00    -0.082 Cl
ATOM      6  N   UNL     1      34.727 -22.246 -18.272  0.00  0.00    -0.309 N 
ATOM      7  C   UNL     1      36.138 -22.541 -16.569  0.00  0.00    +0.016 C 
ATOM      8  C   UNL     1      34.850 -22.826 -17.030  0.00  0.00    +0.048 C 
ATOM      9  C   UNL     1      35.888 -21.606 -18.612  0.00  0.00    +0.103 C 
ATOM     10  C   UNL     1      36.781 -21.771 -17.579  0.00  0.00    +0.020 C 
ATOM     11  C   UNL     1      36.529 -23.024 -15.305  0.00  0.00    +0.013 C 
ATOM     12  C   UNL     1      33.931 -23.575 -16.286  0.00  0.00    +0.015 C 
ATOM     13  C   UNL     1      35.619 -23.773 -14.550  0.00  0.00    +0.058 C 
ATOM     14  C   UNL     1      34.340 -24.043 -15.035  0.00  0.00    +0.013 C 
ATOM     15  H   UNL     1      33.920 -22.286 -18.834  0.00  0.00    +0.152 HD
ENDBRANCH   3   9
BRANCH   2  17
ATOM     16  C   UNL     1      34.930 -17.385 -23.521  0.00  0.00    +0.007 C 
ATOM     17  C   UNL     1      35.053 -19.070 -21.301  0.00  0.00    +0.051 C 
ATOM     18  C   UNL     1      35.094 -16.846 -22.244  0.00  0.00    -0.001 C 
ATOM     19  C   UNL     1      34.825 -18.766 -23.687  0.00  0.00    -0.001 C 
ATOM     20  C   UNL     1      35.156 -17.689 -21.135  0.00  0.00    +0.014 C 
ATOM     21  C   UNL     1      34.887 -19.609 -22.578  0.00  0.00    +0.014 C 
BRANCH  16  22
ATOM     22  C   UNL     1      34.864 -16.483 -24.707  0.00  0.00    +0.162 C 
BRANCH  22  23
ATOM     23  O   UNL     1      34.686 -17.266 -25.895  0.00  0.00    -0.377 OA
ATOM     24  H   UNL     1      35.552 -17.531 -26.240  0.00  0.00    +0.211 HD
ENDBRANCH  22  23
BRANCH  22  25
ATOM     25  C   UNL     1      33.725 -15.455 -24.627  0.00  0.00    +0.171 C 
BRANCH  25  26
ATOM     26  O   UNL     1      33.135 -15.296 -25.909  0.00  0.00    -0.379 OA
ATOM     27  H   UNL     1      33.228 -14.374 -26.196  0.00  0.00    +0.211 HD
ENDBRANCH  25  26
ENDBRANCH  22  25
ENDBRANCH  16  22
ENDBRANCH   2  17
TORSDOF 6
ENDMDL
MODEL 5
REMARK VINA RESULT:      -9.4      4.525      9.966
REMARK  Name = 24883477
REMARK  6 active torsions:
REMARK  status: ('A' for Active; 'I' for Inactive)
REMARK    1  A    between atoms: N_2  and  C_17
REMARK    2  A    between atoms: C_3  and  C_9
REMARK    3  A    between atoms: C_16  and  C_22
REMARK    4  A    between atoms: C_22  and  O_23
REMARK    5  A    between atoms: C_22  and  C_25
REMARK    6  A    between atoms: C_25  and  O_26
REMARK                            x       y       z     vdW  Elec       q    Type
REMARK                         _______ _______ _______ _____ _____    ______ ____
ROOT
ATOM      1  O   UNL     1      33.389 -21.141 -20.428  0.00  0.00    -0.268 OA
ATOM      2  N   UNL     1      35.305 -19.787 -20.431  0.00  0.00    -0.279 N 
ATOM      3  C   UNL     1      34.489 -20.821 -19.919  0.00  0.00    +0.263 C 
ATOM      4  H   UNL     1      36.145 -19.632 -19.942  0.00  0.00    +0.155 HD
ENDROOT
BRANCH   3   9
ATOM      5 CL   UNL     1      36.168 -25.072 -13.762  0.00  0.00    -0.082 Cl
ATOM      6  N   UNL     1      36.257 -21.385 -18.293  0.00  0.00    -0.309 N 
ATOM      7  C   UNL     1      35.237 -22.873 -16.981  0.00  0.00    +0.016 C 
ATOM      8  C   UNL     1      36.439 -22.194 -17.194  0.00  0.00    +0.048 C 
ATOM      9  C   UNL     1      34.987 -21.529 -18.781  0.00  0.00    +0.103 C 
ATOM     10  C   UNL     1      34.330 -22.443 -17.991  0.00  0.00    +0.020 C 
ATOM     11  C   UNL     1      35.150 -23.778 -15.905  0.00  0.00    +0.013 C 
ATOM     12  C   UNL     1      37.563 -22.374 -16.379  0.00  0.00    +0.015 C 
ATOM     13  C   UNL     1      36.266 -23.969 -15.082  0.00  0.00    +0.058 C 
ATOM     14  C   UNL     1      37.453 -23.277 -15.318  0.00  0.00    +0.013 C 
ATOM     15  H   UNL     1      36.943 -20.790 -18.673  0.00  0.00    +0.152 HD
ENDBRANCH   3   9
BRANCH   2  17
ATOM     16  C   UNL     1      34.664 -17.270 -23.740  0.00  0.00    +0.007 C 
ATOM     17  C   UNL     1      35.088 -18.939 -21.545  0.00  0.00    +0.051 C 
ATOM     18  C   UNL     1      34.752 -16.727 -22.458  0.00  0.00    -0.001 C 
ATOM     19  C   UNL     1      34.786 -18.647 -23.925  0.00  0.00    -0.001 C 
ATOM     20  C   UNL     1      34.965 -17.562 -21.361  0.00  0.00    +0.014 C 
ATOM     21  C   UNL     1      34.999 -19.482 -22.828  0.00  0.00    +0.014 C 
BRANCH  16  22
ATOM     22  C   UNL     1      34.437 -16.376 -24.913  0.00  0.00    +0.162 C 
BRANCH  22  23
ATOM     23  O   UNL     1      33.741 -17.098 -25.937  0.00  0.00    -0.377 OA
ATOM     24  H   UNL     1      34.249 -17.888 -26.178  0.00  0.00    +0.211 HD
ENDBRANCH  22  23
BRANCH  22  25
ATOM     25  C   UNL     1      33.626 -15.117 -24.569  0.00  0.00    +0.171 C 
BRANCH  25  26
ATOM     26  O   UNL     1      32.879 -14.707 -25.706  0.00  0.00    -0.379 OA
ATOM     27  H   UNL     1      32.143 -15.322 -25.848  0.00  0.00    +0.211 HD
ENDBRANCH  25  26
ENDBRANCH  22  25
ENDBRANCH  16  22
ENDBRANCH   2  17
TORSDOF 6
ENDMDL
MODEL 6
REMARK VINA RESULT:      -9.3     10.371     15.053
REMARK  Name = 24883477
REMARK  6 active torsions:
REMARK  status: ('A' for Active; 'I' for Inactive)
REMARK    1  A    between atoms: N_2  and  C_17
REMARK    2  A    between atoms: C_3  and  C_9
REMARK    3  A    between atoms: C_16  and  C_22
REMARK    4  A    between atoms: C_22  and  O_23
REMARK    5  A    between atoms: C_22  and  C_25
REMARK    6  A    between atoms: C_25  and  O_26
REMARK                            x       y       z     vdW  Elec       q    Type
REMARK                         _______ _______ _______ _____ _____    ______ ____
ROOT
ATOM      1  O   UNL     1      31.733 -11.695 -21.862  0.00  0.00    -0.268 OA
ATOM      2  N   UNL     1      33.039 -10.716 -23.547  0.00  0.00    -0.279 N 
ATOM      3  C   UNL     1      32.575 -11.811 -22.784  0.00  0.00    +0.263 C 
ATOM      4  H   UNL     1      33.700 -10.938 -24.242  0.00  0.00    +0.155 HD
ENDROOT
BRANCH   3   9
ATOM      5 CL   UNL     1      35.687 -18.774 -23.573  0.00  0.00    -0.082 Cl
ATOM      6  N   UNL     1      32.999 -13.649 -24.373  0.00  0.00    -0.309 N 
ATOM      7  C   UNL     1      34.075 -15.134 -23.104  0.00  0.00    +0.016 C 
ATOM      8  C   UNL     1      33.590 -14.892 -24.391  0.00  0.00    +0.048 C 
ATOM      9  C   UNL     1      33.093 -13.099 -23.124  0.00  0.00    +0.103 C 
ATOM     10  C   UNL     1      33.754 -13.994 -22.315  0.00  0.00    +0.020 C 
ATOM     11  C   UNL     1      34.733 -16.353 -22.845  0.00  0.00    +0.013 C 
ATOM     12  C   UNL     1      33.733 -15.811 -25.437  0.00  0.00    +0.015 C 
ATOM     13  C   UNL     1      34.882 -17.282 -23.881  0.00  0.00    +0.058 C 
ATOM     14  C   UNL     1      34.388 -17.013 -25.156  0.00  0.00    +0.013 C 
ATOM     15  H   UNL     1      32.571 -13.219 -25.148  0.00  0.00    +0.152 HD
ENDBRANCH   3   9
BRANCH   2  17
ATOM     16  C   UNL     1      32.011  -6.646 -23.281  0.00  0.00    +0.007 C 
ATOM     17  C   UNL     1      32.693  -9.345 -23.457  0.00  0.00    +0.051 C 
ATOM     18  C   UNL     1      33.346  -7.037 -23.173  0.00  0.00    -0.001 C 
ATOM     19  C   UNL     1      31.017  -7.605 -23.475  0.00  0.00    -0.001 C 
ATOM     20  C   UNL     1      33.687  -8.386 -23.262  0.00  0.00    +0.014 C 
ATOM     21  C   UNL     1      31.357  -8.955 -23.564  0.00  0.00    +0.014 C 
BRANCH  16  22
ATOM     22  C   UNL     1      31.648  -5.202 -23.187  0.00  0.00    +0.162 C 
BRANCH  22  23
ATOM     23  O   UNL     1      31.097  -4.765 -24.436  0.00  0.00    -0.377 OA
ATOM     24  H   UNL     1      31.799  -4.381 -24.983  0.00  0.00    +0.211 HD
ENDBRANCH  22  23
BRANCH  22  25
ATOM     25  C   UNL     1      30.631  -4.902 -22.076  0.00  0.00    +0.171 C 
BRANCH  25  26
ATOM     26  O   UNL     1      30.289  -3.524 -22.101  0.00  0.00    -0.379 OA
ATOM     27  H   UNL     1      29.404  -3.403 -21.725  0.00  0.00    +0.211 HD
ENDBRANCH  25  26
ENDBRANCH  22  25
ENDBRANCH  16  22
ENDBRANCH   2  17
TORSDOF 6
ENDMDL
MODEL 7
REMARK VINA RESULT:      -9.3     10.055     14.719
REMARK  Name = 24883477
REMARK  6 active torsions:
REMARK  status: ('A' for Active; 'I' for Inactive)
REMARK    1  A    between atoms: N_2  and  C_17
REMARK    2  A    between atoms: C_3  and  C_9
REMARK    3  A    between atoms: C_16  and  C_22
REMARK    4  A    between atoms: C_22  and  O_23
REMARK    5  A    between atoms: C_22  and  C_25
REMARK    6  A    between atoms: C_25  and  O_26
REMARK                            x       y       z     vdW  Elec       q    Type
REMARK                         _______ _______ _______ _____ _____    ______ ____
ROOT
ATOM      1  O   UNL     1      33.585 -11.785 -25.622  0.00  0.00    -0.268 OA
ATOM      2  N   UNL     1      33.249 -11.365 -23.339  0.00  0.00    -0.279 N 
ATOM      3  C   UNL     1      33.557 -12.197 -24.438  0.00  0.00    +0.263 C 
ATOM      4  H   UNL     1      33.259 -11.808 -22.459  0.00  0.00    +0.155 HD
ENDROOT
BRANCH   3   9
ATOM      5 CL   UNL     1      35.413 -19.172 -21.850  0.00  0.00    -0.082 Cl
ATOM      6  N   UNL     1      33.843 -14.563 -25.078  0.00  0.00    -0.309 N 
ATOM      7  C   UNL     1      34.450 -15.504 -23.149  0.00  0.00    +0.016 C 
ATOM      8  C   UNL     1      34.192 -15.761 -24.498  0.00  0.00    +0.048 C 
ATOM      9  C   UNL     1      33.870 -13.561 -24.146  0.00  0.00    +0.103 C 
ATOM     10  C   UNL     1      34.243 -14.112 -22.942  0.00  0.00    +0.020 C 
ATOM     11  C   UNL     1      34.833 -16.574 -22.316  0.00  0.00    +0.013 C 
ATOM     12  C   UNL     1      34.300 -17.039 -25.057  0.00  0.00    +0.015 C 
ATOM     13  C   UNL     1      34.944 -17.858 -22.862  0.00  0.00    +0.058 C 
ATOM     14  C   UNL     1      34.681 -18.085 -24.212  0.00  0.00    +0.013 C 
ATOM     15  H   UNL     1      33.606 -14.444 -26.026  0.00  0.00    +0.152 HD
ENDBRANCH   3   9
BRANCH   2  17
ATOM     16  C   UNL     1      32.290  -7.269 -23.273  0.00  0.00    +0.007 C 
ATOM     17  C   UNL     1      32.926  -9.986 -23.317  0.00  0.00    +0.051 C 
ATOM     18  C   UNL     1      31.311  -8.220 -22.980  0.00  0.00    -0.001 C 
ATOM     19  C   UNL     1      33.586  -7.678 -23.589  0.00  0.00    -0.001 C 
ATOM     20  C   UNL     1      31.630  -9.578 -23.002  0.00  0.00    +0.014 C 
ATOM     21  C   UNL     1      33.904  -9.035 -23.611  0.00  0.00    +0.014 C 
BRANCH  16  22
ATOM     22  C   UNL     1      31.949  -5.818 -23.249  0.00  0.00    +0.162 C 
BRANCH  22  23
ATOM     23  O   UNL     1      31.461  -5.419 -24.536  0.00  0.00    -0.377 OA
ATOM     24  H   UNL     1      31.732  -6.071 -25.201  0.00  0.00    +0.211 HD
ENDBRANCH  22  23
BRANCH  22  25
ATOM     25  C   UNL     1      30.889  -5.460 -22.196  0.00  0.00    +0.171 C 
BRANCH  25  26
ATOM     26  O   UNL     1      30.530  -4.092 -22.326  0.00  0.00    -0.379 OA
ATOM     27  H   UNL     1      31.244  -3.612 -22.774  0.00  0.00    +0.211 HD
ENDBRANCH  25  26
ENDBRANCH  22  25
ENDBRANCH  16  22
ENDBRANCH   2  17
TORSDOF 6
ENDMDL
MODEL 8
REMARK VINA RESULT:      -9.2     10.623     15.092
REMARK  Name = 24883477
REMARK  6 active torsions:
REMARK  status: ('A' for Active; 'I' for Inactive)
REMARK    1  A    between atoms: N_2  and  C_17
REMARK    2  A    between atoms: C_3  and  C_9
REMARK    3  A    between atoms: C_16  and  C_22
REMARK    4  A    between atoms: C_22  and  O_23
REMARK    5  A    between atoms: C_22  and  C_25
REMARK    6  A    between atoms: C_25  and  O_26
REMARK                            x       y       z     vdW  Elec       q    Type
REMARK                         _______ _______ _______ _____ _____    ______ ____
ROOT
ATOM      1  O   UNL     1      30.522 -11.548 -21.345  0.00  0.00    -0.268 OA
ATOM      2  N   UNL     1      32.354 -10.488 -22.356  0.00  0.00    -0.279 N 
ATOM      3  C   UNL     1      31.672 -11.613 -21.839  0.00  0.00    +0.263 C 
ATOM      4  H   UNL     1      33.252 -10.670 -22.717  0.00  0.00    +0.155 HD
ENDROOT
BRANCH   3   9
ATOM      5 CL   UNL     1      35.077 -18.457 -21.237  0.00  0.00    -0.082 Cl
ATOM      6  N   UNL     1      32.896 -13.360 -23.079  0.00  0.00    -0.309 N 
ATOM      7  C   UNL     1      33.283 -14.882 -21.495  0.00  0.00    +0.016 C 
ATOM      8  C   UNL     1      33.475 -14.587 -22.847  0.00  0.00    +0.048 C 
ATOM      9  C   UNL     1      32.346 -12.871 -21.926  0.00  0.00    +0.103 C 
ATOM     10  C   UNL     1      32.569 -13.790 -20.927  0.00  0.00    +0.020 C 
ATOM     11  C   UNL     1      33.785 -16.097 -20.988  0.00  0.00    +0.013 C 
ATOM     12  C   UNL     1      34.148 -15.449 -23.720  0.00  0.00    +0.015 C 
ATOM     13  C   UNL     1      34.459 -16.969 -21.849  0.00  0.00    +0.058 C 
ATOM     14  C   UNL     1      34.636 -16.649 -23.195  0.00  0.00    +0.013 C 
ATOM     15  H   UNL     1      32.880 -12.901 -23.950  0.00  0.00    +0.152 HD
ENDBRANCH   3   9
BRANCH   2  17
ATOM     16  C   UNL     1      31.109  -6.476 -22.571  0.00  0.00    +0.007 C 
ATOM     17  C   UNL     1      31.935  -9.137 -22.429  0.00  0.00    +0.051 C 
ATOM     18  C   UNL     1      30.859  -7.343 -23.636  0.00  0.00    -0.001 C 
ATOM     19  C   UNL     1      31.774  -6.940 -21.436  0.00  0.00    -0.001 C 
ATOM     20  C   UNL     1      31.271  -8.673 -23.564  0.00  0.00    +0.014 C 
ATOM     21  C   UNL     1      32.186  -8.270 -21.364  0.00  0.00    +0.014 C 
BRANCH  16  22
ATOM     22  C   UNL     1      30.667  -5.054 -22.649  0.00  0.00    +0.162 C 
BRANCH  22  23
ATOM     23  O   UNL     1      30.445  -4.549 -21.326  0.00  0.00    -0.377 OA
ATOM     24  H   UNL     1      31.017  -5.019 -20.701  0.00  0.00    +0.211 HD
ENDBRANCH  22  23
BRANCH  22  25
ATOM     25  C   UNL     1      31.680  -4.140 -23.355  0.00  0.00    +0.171 C 
BRANCH  25  26
ATOM     26  O   UNL     1      31.628  -2.840 -22.784  0.00  0.00    -0.379 OA
ATOM     27  H   UNL     1      30.801  -2.406 -23.043  0.00  0.00    +0.211 HD
ENDBRANCH  25  26
ENDBRANCH  22  25
ENDBRANCH  16  22
ENDBRANCH   2  17
TORSDOF 6
ENDMDL
MODEL 9
REMARK VINA RESULT:      -9.2      9.600     13.388
REMARK  Name = 24883477
REMARK  6 active torsions:
REMARK  status: ('A' for Active; 'I' for Inactive)
REMARK    1  A    between atoms: N_2  and  C_17
REMARK    2  A    between atoms: C_3  and  C_9
REMARK    3  A    between atoms: C_16  and  C_22
REMARK    4  A    between atoms: C_22  and  O_23
REMARK    5  A    between atoms: C_22  and  C_25
REMARK    6  A    between atoms: C_25  and  O_26
REMARK                            x       y       z     vdW  Elec       q    Type
REMARK                         _______ _______ _______ _____ _____    ______ ____
ROOT
ATOM      1  O   UNL     1      31.595 -12.187 -21.710  0.00  0.00    -0.268 OA
ATOM      2  N   UNL     1      33.088 -11.965 -23.506  0.00  0.00    -0.279 N 
ATOM      3  C   UNL     1      32.223 -11.455 -22.511  0.00  0.00    +0.263 C 
ATOM      4  H   UNL     1      33.523 -11.287 -24.073  0.00  0.00    +0.155 HD
ENDROOT
BRANCH   3   9
ATOM      5 CL   UNL     1      31.433  -3.855 -23.148  0.00  0.00    -0.082 Cl
ATOM      6  N   UNL     1      32.213  -9.328 -21.261  0.00  0.00    -0.309 N 
ATOM      7  C   UNL     1      31.837  -7.833 -22.873  0.00  0.00    +0.016 C 
ATOM      8  C   UNL     1      32.054  -7.982 -21.501  0.00  0.00    +0.048 C 
ATOM      9  C   UNL     1      32.104 -10.033 -22.429  0.00  0.00    +0.103 C 
ATOM     10  C   UNL     1      31.871  -9.136 -23.445  0.00  0.00    +0.020 C 
ATOM     11  C   UNL     1      31.642  -6.538 -23.392  0.00  0.00    +0.013 C 
ATOM     12  C   UNL     1      32.087  -6.896 -20.619  0.00  0.00    +0.015 C 
ATOM     13  C   UNL     1      31.670  -5.442 -22.521  0.00  0.00    +0.058 C 
ATOM     14  C   UNL     1      31.889  -5.621 -21.156  0.00  0.00    +0.013 C 
ATOM     15  H   UNL     1      32.380  -9.726 -20.376  0.00  0.00    +0.152 HD
ENDBRANCH   3   9
BRANCH   2  17
ATOM     16  C   UNL     1      34.075 -15.954 -24.400  0.00  0.00    +0.007 C 
ATOM     17  C   UNL     1      33.420 -13.308 -23.807  0.00  0.00    +0.051 C 
ATOM     18  C   UNL     1      33.358 -15.190 -25.321  0.00  0.00    -0.001 C 
ATOM     19  C   UNL     1      34.464 -15.396 -23.182  0.00  0.00    -0.001 C 
ATOM     20  C   UNL     1      33.031 -13.867 -25.024  0.00  0.00    +0.014 C 
ATOM     21  C   UNL     1      34.137 -14.073 -22.886  0.00  0.00    +0.014 C 
BRANCH  16  22
ATOM     22  C   UNL     1      34.425 -17.369 -24.719  0.00  0.00    +0.162 C 
BRANCH  22  23
ATOM     23  O   UNL     1      35.058 -17.427 -26.004  0.00  0.00    -0.377 OA
ATOM     24  H   UNL     1      35.240 -18.352 -26.232  0.00  0.00    +0.211 HD
ENDBRANCH  22  23
BRANCH  22  25
ATOM     25  C   UNL     1      35.363 -18.011 -23.686  0.00  0.00    +0.171 C 
BRANCH  25  26
ATOM     26  O   UNL     1      34.649 -18.979 -22.930  0.00  0.00    -0.379 OA
ATOM     27  H   UNL     1      33.837 -18.580 -22.581  0.00  0.00    +0.211 HD
ENDBRANCH  25  26
ENDBRANCH  22  25
ENDBRANCH  16  22
ENDBRANCH   2  17
TORSDOF 6
ENDMDL
