MODEL 1
REMARK VINA RESULT:     -10.5      0.000      0.000
REMARK  Name = 54727980
REMARK  5 active torsions:
REMARK  status: ('A' for Active; 'I' for Inactive)
REMARK    1  A    between atoms: C_2  and  C_9
REMARK    2  A    between atoms: C_3  and  N_16
REMARK    3  A    between atoms: C_17  and  C_19
REMARK    4  A    between atoms: C_19  and  C_25
REMARK    5  A    between atoms: C_20  and  O_22
REMARK                            x       y       z     vdW  Elec       q    Type
REMARK                         _______ _______ _______ _____ _____    ______ ____
ROOT
ATOM      1 CL   UNL     1      34.783 -18.516 -24.136  0.00  0.00    -0.082 Cl
ATOM      2  C   UNL     1      34.450 -17.461 -21.632  0.00  0.00    +0.011 C 
ATOM      3  C   UNL     1      34.378 -14.851 -22.613  0.00  0.00    +0.051 C 
ATOM      4  C   UNL     1      34.578 -17.227 -23.001  0.00  0.00    +0.059 C 
ATOM      5  C   UNL     1      34.286 -16.390 -20.754  0.00  0.00    +0.002 C 
ATOM      6  C   UNL     1      34.542 -15.922 -23.492  0.00  0.00    +0.026 C 
ATOM      7  C   UNL     1      34.250 -15.085 -21.244  0.00  0.00    +0.015 C 
ENDROOT
BRANCH   2   9
ATOM      8 CL   UNL     1      37.203 -18.826 -21.367  0.00  0.00    -0.082 Cl
ATOM      9  C   UNL     1      34.482 -18.802 -21.080  0.00  0.00    +0.011 C 
ATOM     10  C   UNL     1      35.676 -19.504 -20.919  0.00  0.00    +0.058 C 
ATOM     11  C   UNL     1      33.273 -19.388 -20.704  0.00  0.00    +0.001 C 
ATOM     12  C   UNL     1      35.662 -20.791 -20.382  0.00  0.00    +0.011 C 
ATOM     13  C   UNL     1      33.259 -20.676 -20.167  0.00  0.00    +0.000 C 
ATOM     14  C   UNL     1      34.454 -21.377 -20.007  0.00  0.00    +0.001 C 
ENDBRANCH   2   9
BRANCH   3  16
ATOM     15  O   UNL     1      32.899 -13.700 -24.951  0.00  0.00    -0.269 OA
ATOM     16  N   UNL     1      34.342 -13.524 -23.111  0.00  0.00    -0.280 N 
ATOM     17  C   UNL     1      33.629 -13.054 -24.207  0.00  0.00    +0.262 C 
ATOM     18  H   UNL     1      34.883 -12.862 -22.625  0.00  0.00    +0.155 HD
BRANCH  17  19
ATOM     19  C   UNL     1      33.837 -11.580 -24.436  0.00  0.00    +0.151 C 
ATOM     20  C   UNL     1      33.209 -10.702 -23.626  0.00  0.00    +0.126 C 
ATOM     21  C   UNL     1      33.297  -9.203 -23.732  0.00  0.00    +0.072 C 
BRANCH  20  22
ATOM     22  O   UNL     1      32.419 -11.141 -22.576  0.00  0.00    -0.509 OA
ATOM     23  H   UNL     1      31.495 -10.982 -22.586  0.00  0.00    +0.292 HD
ENDBRANCH  20  22
BRANCH  19  25
ATOM     24  N   UNL     1      35.364 -10.797 -26.374  0.00  0.00    -0.191 NA
ATOM     25  C   UNL     1      34.677 -11.152 -25.509  0.00  0.00    +0.108 C 
ENDBRANCH  19  25
ENDBRANCH  17  19
ENDBRANCH   3  16
TORSDOF 5
ENDMDL
MODEL 2
REMARK VINA RESULT:     -10.5      1.204      1.706
REMARK  Name = 54727980
REMARK  5 active torsions:
REMARK  status: ('A' for Active; 'I' for Inactive)
REMARK    1  A    between atoms: C_2  and  C_9
REMARK    2  A    between atoms: C_3  and  N_16
REMARK    3  A    between atoms: C_17  and  C_19
REMARK    4  A    between atoms: C_19  and  C_25
REMARK    5  A    between atoms: C_20  and  O_22
REMARK                            x       y       z     vdW  Elec       q    Type
REMARK                         _______ _______ _______ _____ _____    ______ ____
ROOT
ATOM      1 CL   UNL     1      34.954 -18.739 -24.026  0.00  0.00    -0.082 Cl
ATOM      2  C   UNL     1      34.936 -17.607 -21.533  0.00  0.00    +0.011 C 
ATOM      3  C   UNL     1      34.490 -15.054 -22.567  0.00  0.00    +0.051 C 
ATOM      4  C   UNL     1      34.824 -17.422 -22.911  0.00  0.00    +0.059 C 
ATOM      5  C   UNL     1      34.823 -16.516 -20.672  0.00  0.00    +0.002 C 
ATOM      6  C   UNL     1      34.602 -16.146 -23.428  0.00  0.00    +0.026 C 
ATOM      7  C   UNL     1      34.602 -15.239 -21.189  0.00  0.00    +0.015 C 
ENDROOT
BRANCH   2   9
ATOM      8 CL   UNL     1      32.461 -19.304 -20.820  0.00  0.00    -0.082 Cl
ATOM      9  C   UNL     1      35.167 -18.916 -20.954  0.00  0.00    +0.011 C 
ATOM     10  C   UNL     1      34.114 -19.759 -20.596  0.00  0.00    +0.058 C 
ATOM     11  C   UNL     1      36.486 -19.326 -20.756  0.00  0.00    +0.001 C 
ATOM     12  C   UNL     1      34.380 -21.011 -20.042  0.00  0.00    +0.011 C 
ATOM     13  C   UNL     1      36.752 -20.578 -20.202  0.00  0.00    +0.000 C 
ATOM     14  C   UNL     1      35.699 -21.421 -19.845  0.00  0.00    +0.001 C 
ENDBRANCH   2   9
BRANCH   3  16
ATOM     15  O   UNL     1      32.034 -13.340 -22.499  0.00  0.00    -0.269 OA
ATOM     16  N   UNL     1      34.265 -13.757 -23.091  0.00  0.00    -0.280 N 
ATOM     17  C   UNL     1      33.093 -13.013 -23.024  0.00  0.00    +0.262 C 
ATOM     18  H   UNL     1      35.023 -13.337 -23.555  0.00  0.00    +0.155 HD
BRANCH  17  19
ATOM     19  C   UNL     1      33.228 -11.672 -23.697  0.00  0.00    +0.151 C 
ATOM     20  C   UNL     1      32.667 -10.592 -23.112  0.00  0.00    +0.126 C 
ATOM     21  C   UNL     1      32.696  -9.192 -23.662  0.00  0.00    +0.072 C 
BRANCH  20  22
ATOM     22  O   UNL     1      32.013 -10.700 -21.895  0.00  0.00    -0.509 OA
ATOM     23  H   UNL     1      31.893 -11.542 -21.501  0.00  0.00    +0.292 HD
ENDBRANCH  20  22
BRANCH  19  25
ATOM     24  N   UNL     1      34.492 -11.519 -25.950  0.00  0.00    -0.191 NA
ATOM     25  C   UNL     1      33.928 -11.582 -24.938  0.00  0.00    +0.108 C 
ENDBRANCH  19  25
ENDBRANCH  17  19
ENDBRANCH   3  16
TORSDOF 5
ENDMDL
MODEL 3
REMARK VINA RESULT:     -10.4      6.031     10.078
REMARK  Name = 54727980
REMARK  5 active torsions:
REMARK  status: ('A' for Active; 'I' for Inactive)
REMARK    1  A    between atoms: C_2  and  C_9
REMARK    2  A    between atoms: C_3  and  N_16
REMARK    3  A    between atoms: C_17  and  C_19
REMARK    4  A    between atoms: C_19  and  C_25
REMARK    5  A    between atoms: C_20  and  O_22
REMARK                            x       y       z     vdW  Elec       q    Type
REMARK                         _______ _______ _______ _____ _____    ______ ____
ROOT
ATOM      1 CL   UNL     1      32.333 -19.829 -21.055  0.00  0.00    -0.082 Cl
ATOM      2  C   UNL     1      35.062 -19.733 -21.247  0.00  0.00    +0.011 C 
ATOM      3  C   UNL     1      35.394 -21.422 -19.052  0.00  0.00    +0.051 C 
ATOM      4  C   UNL     1      33.946 -20.229 -20.574  0.00  0.00    +0.059 C 
ATOM      5  C   UNL     1      36.344 -20.083 -20.824  0.00  0.00    +0.002 C 
ATOM      6  C   UNL     1      34.112 -21.073 -19.475  0.00  0.00    +0.026 C 
ATOM      7  C   UNL     1      36.510 -20.927 -19.726  0.00  0.00    +0.015 C 
ENDROOT
BRANCH   2   9
ATOM      8 CL   UNL     1      34.999 -16.697 -20.708  0.00  0.00    -0.082 Cl
ATOM      9  C   UNL     1      34.936 -18.853 -22.393  0.00  0.00    +0.011 C 
ATOM     10  C   UNL     1      34.898 -17.465 -22.254  0.00  0.00    +0.058 C 
ATOM     11  C   UNL     1      34.851 -19.429 -23.660  0.00  0.00    +0.001 C 
ATOM     12  C   UNL     1      34.776 -16.654 -23.382  0.00  0.00    +0.011 C 
ATOM     13  C   UNL     1      34.729 -18.618 -24.789  0.00  0.00    +0.000 C 
ATOM     14  C   UNL     1      34.692 -17.230 -24.649  0.00  0.00    +0.001 C 
ENDBRANCH   2   9
BRANCH   3  16
ATOM     15  O   UNL     1      37.283 -21.232 -16.734  0.00  0.00    -0.269 OA
ATOM     16  N   UNL     1      35.564 -22.280 -17.937  0.00  0.00    -0.280 N 
ATOM     17  C   UNL     1      36.464 -22.132 -16.889  0.00  0.00    +0.262 C 
ATOM     18  H   UNL     1      34.977 -23.069 -17.901  0.00  0.00    +0.155 HD
BRANCH  17  19
ATOM     19  C   UNL     1      36.356 -23.246 -15.880  0.00  0.00    +0.151 C 
ATOM     20  C   UNL     1      37.486 -23.836 -15.440  0.00  0.00    +0.126 C 
ATOM     21  C   UNL     1      37.549 -24.969 -14.451  0.00  0.00    +0.072 C 
BRANCH  20  22
ATOM     22  O   UNL     1      38.730 -23.405 -15.873  0.00  0.00    -0.509 OA
ATOM     23  H   UNL     1      38.920 -22.488 -15.916  0.00  0.00    +0.292 HD
ENDBRANCH  20  22
BRANCH  19  25
ATOM     24  N   UNL     1      34.013 -23.978 -15.056  0.00  0.00    -0.191 NA
ATOM     25  C   UNL     1      35.063 -23.655 -15.429  0.00  0.00    +0.108 C 
ENDBRANCH  19  25
ENDBRANCH  17  19
ENDBRANCH   3  16
TORSDOF 5
ENDMDL
MODEL 4
REMARK VINA RESULT:     -10.3      5.952      9.903
REMARK  Name = 54727980
REMARK  5 active torsions:
REMARK  status: ('A' for Active; 'I' for Inactive)
REMARK    1  A    between atoms: C_2  and  C_9
REMARK    2  A    between atoms: C_3  and  N_16
REMARK    3  A    between atoms: C_17  and  C_19
REMARK    4  A    between atoms: C_19  and  C_25
REMARK    5  A    between atoms: C_20  and  O_22
REMARK                            x       y       z     vdW  Elec       q    Type
REMARK                         _______ _______ _______ _____ _____    ______ ____
ROOT
ATOM      1 CL   UNL     1      32.398 -19.802 -21.006  0.00  0.00    -0.082 Cl
ATOM      2  C   UNL     1      35.116 -19.659 -21.294  0.00  0.00    +0.011 C 
ATOM      3  C   UNL     1      35.554 -21.348 -19.117  0.00  0.00    +0.051 C 
ATOM      4  C   UNL     1      34.033 -20.175 -20.583  0.00  0.00    +0.059 C 
ATOM      5  C   UNL     1      36.418 -19.988 -20.917  0.00  0.00    +0.002 C 
ATOM      6  C   UNL     1      34.252 -21.019 -19.494  0.00  0.00    +0.026 C 
ATOM      7  C   UNL     1      36.637 -20.832 -19.828  0.00  0.00    +0.015 C 
ENDROOT
BRANCH   2   9
ATOM      8 CL   UNL     1      35.004 -16.627 -20.741  0.00  0.00    -0.082 Cl
ATOM      9  C   UNL     1      34.935 -18.778 -22.431  0.00  0.00    +0.011 C 
ATOM     10  C   UNL     1      34.871 -17.392 -22.286  0.00  0.00    +0.058 C 
ATOM     11  C   UNL     1      34.823 -19.352 -23.698  0.00  0.00    +0.001 C 
ATOM     12  C   UNL     1      34.697 -16.581 -23.407  0.00  0.00    +0.011 C 
ATOM     13  C   UNL     1      34.648 -18.540 -24.820  0.00  0.00    +0.000 C 
ATOM     14  C   UNL     1      34.585 -17.154 -24.673  0.00  0.00    +0.001 C 
ENDBRANCH   2   9
BRANCH   3  16
ATOM     15  O   UNL     1      37.332 -21.005 -16.730  0.00  0.00    -0.269 OA
ATOM     16  N   UNL     1      35.776 -22.205 -18.011  0.00  0.00    -0.280 N 
ATOM     17  C   UNL     1      36.620 -21.984 -16.929  0.00  0.00    +0.262 C 
ATOM     18  H   UNL     1      35.277 -23.053 -18.009  0.00  0.00    +0.155 HD
BRANCH  17  19
ATOM     19  C   UNL     1      36.598 -23.123 -15.943  0.00  0.00    +0.151 C 
ATOM     20  C   UNL     1      35.406 -23.586 -15.513  0.00  0.00    +0.126 C 
ATOM     21  C   UNL     1      35.213 -24.701 -14.520  0.00  0.00    +0.072 C 
BRANCH  20  22
ATOM     22  O   UNL     1      34.219 -23.057 -15.995  0.00  0.00    -0.509 OA
ATOM     23  H   UNL     1      33.577 -23.621 -16.380  0.00  0.00    +0.292 HD
ENDBRANCH  20  22
BRANCH  19  25
ATOM     24  N   UNL     1      38.844 -24.102 -15.108  0.00  0.00    -0.191 NA
ATOM     25  C   UNL     1      37.834 -23.669 -15.480  0.00  0.00    +0.108 C 
ENDBRANCH  19  25
ENDBRANCH  17  19
ENDBRANCH   3  16
TORSDOF 5
ENDMDL
MODEL 5
REMARK VINA RESULT:     -10.1      1.628      2.526
REMARK  Name = 54727980
REMARK  5 active torsions:
REMARK  status: ('A' for Active; 'I' for Inactive)
REMARK    1  A    between atoms: C_2  and  C_9
REMARK    2  A    between atoms: C_3  and  N_16
REMARK    3  A    between atoms: C_17  and  C_19
REMARK    4  A    between atoms: C_19  and  C_25
REMARK    5  A    between atoms: C_20  and  O_22
REMARK                            x       y       z     vdW  Elec       q    Type
REMARK                         _______ _______ _______ _____ _____    ______ ____
ROOT
ATOM      1 CL   UNL     1      35.038 -19.955 -23.816  0.00  0.00    -0.082 Cl
ATOM      2  C   UNL     1      35.023 -18.388 -21.571  0.00  0.00    +0.011 C 
ATOM      3  C   UNL     1      34.643 -16.058 -23.058  0.00  0.00    +0.051 C 
ATOM      4  C   UNL     1      34.927 -18.455 -22.961  0.00  0.00    +0.059 C 
ATOM      5  C   UNL     1      34.927 -17.156 -20.925  0.00  0.00    +0.002 C 
ATOM      6  C   UNL     1      34.738 -17.290 -23.704  0.00  0.00    +0.026 C 
ATOM      7  C   UNL     1      34.738 -15.990 -21.668  0.00  0.00    +0.015 C 
ENDROOT
BRANCH   2   9
ATOM      8 CL   UNL     1      32.510 -19.950 -20.701  0.00  0.00    -0.082 Cl
ATOM      9  C   UNL     1      35.220 -19.573 -20.760  0.00  0.00    +0.011 C 
ATOM     10  C   UNL     1      34.148 -20.348 -20.316  0.00  0.00    +0.058 C 
ATOM     11  C   UNL     1      36.526 -19.933 -20.425  0.00  0.00    +0.001 C 
ATOM     12  C   UNL     1      34.382 -21.482 -19.538  0.00  0.00    +0.011 C 
ATOM     13  C   UNL     1      36.760 -21.067 -19.647  0.00  0.00    +0.000 C 
ATOM     14  C   UNL     1      35.687 -21.842 -19.204  0.00  0.00    +0.001 C 
ENDBRANCH   2   9
BRANCH   3  16
ATOM     15  O   UNL     1      32.516 -13.956 -22.852  0.00  0.00    -0.269 OA
ATOM     16  N   UNL     1      34.450 -14.874 -23.812  0.00  0.00    -0.280 N 
ATOM     17  C   UNL     1      33.436 -13.935 -23.664  0.00  0.00    +0.262 C 
ATOM     18  H   UNL     1      35.108 -14.697 -24.521  0.00  0.00    +0.155 HD
BRANCH  17  19
ATOM     19  C   UNL     1      33.556 -12.802 -24.650  0.00  0.00    +0.151 C 
ATOM     20  C   UNL     1      33.516 -13.083 -25.969  0.00  0.00    +0.126 C 
ATOM     21  C   UNL     1      33.639 -12.073 -27.078  0.00  0.00    +0.072 C 
BRANCH  20  22
ATOM     22  O   UNL     1      33.328 -14.382 -26.416  0.00  0.00    -0.509 OA
ATOM     23  H   UNL     1      32.536 -14.614 -26.860  0.00  0.00    +0.292 HD
ENDBRANCH  20  22
BRANCH  19  25
ATOM     24  N   UNL     1      33.870 -10.387 -23.775  0.00  0.00    -0.191 NA
ATOM     25  C   UNL     1      33.723 -11.469 -24.164  0.00  0.00    +0.108 C 
ENDBRANCH  19  25
ENDBRANCH  17  19
ENDBRANCH   3  16
TORSDOF 5
ENDMDL
MODEL 6
REMARK VINA RESULT:      -9.9      4.238      8.961
REMARK  Name = 54727980
REMARK  5 active torsions:
REMARK  status: ('A' for Active; 'I' for Inactive)
REMARK    1  A    between atoms: C_2  and  C_9
REMARK    2  A    between atoms: C_3  and  N_16
REMARK    3  A    between atoms: C_17  and  C_19
REMARK    4  A    between atoms: C_19  and  C_25
REMARK    5  A    between atoms: C_20  and  O_22
REMARK                            x       y       z     vdW  Elec       q    Type
REMARK                         _______ _______ _______ _____ _____    ______ ____
ROOT
ATOM      1 CL   UNL     1      34.505  -8.451 -24.087  0.00  0.00    -0.082 Cl
ATOM      2  C   UNL     1      32.510  -9.569 -22.583  0.00  0.00    +0.011 C 
ATOM      3  C   UNL     1      33.094 -12.137 -23.503  0.00  0.00    +0.051 C 
ATOM      4  C   UNL     1      33.548  -9.764 -23.494  0.00  0.00    +0.059 C 
ATOM      5  C   UNL     1      31.764 -10.658 -22.131  0.00  0.00    +0.002 C 
ATOM      6  C   UNL     1      33.839 -11.048 -23.955  0.00  0.00    +0.026 C 
ATOM      7  C   UNL     1      32.056 -11.942 -22.592  0.00  0.00    +0.015 C 
ENDROOT
BRANCH   2   9
ATOM      8 CL   UNL     1      30.796  -7.750 -24.390  0.00  0.00    -0.082 Cl
ATOM      9  C   UNL     1      32.173  -8.252 -22.079  0.00  0.00    +0.011 C 
ATOM     10  C   UNL     1      31.403  -7.355 -22.820  0.00  0.00    +0.058 C 
ATOM     11  C   UNL     1      32.640  -7.891 -20.815  0.00  0.00    +0.001 C 
ATOM     12  C   UNL     1      31.100  -6.098 -22.297  0.00  0.00    +0.011 C 
ATOM     13  C   UNL     1      32.338  -6.633 -20.292  0.00  0.00    +0.000 C 
ATOM     14  C   UNL     1      31.567  -5.737 -21.033  0.00  0.00    +0.001 C 
ENDBRANCH   2   9
BRANCH   3  16
ATOM     15  O   UNL     1      34.609 -14.365 -22.193  0.00  0.00    -0.269 OA
ATOM     16  N   UNL     1      33.389 -13.442 -23.971  0.00  0.00    -0.280 N 
ATOM     17  C   UNL     1      34.101 -14.434 -23.308  0.00  0.00    +0.262 C 
ATOM     18  H   UNL     1      33.053 -13.670 -24.867  0.00  0.00    +0.155 HD
BRANCH  17  19
ATOM     19  C   UNL     1      34.216 -15.697 -24.121  0.00  0.00    +0.151 C 
ATOM     20  C   UNL     1      34.810 -16.774 -23.567  0.00  0.00    +0.126 C 
ATOM     21  C   UNL     1      35.019 -18.100 -24.248  0.00  0.00    +0.072 C 
BRANCH  20  22
ATOM     22  O   UNL     1      35.272 -16.740 -22.260  0.00  0.00    -0.509 OA
ATOM     23  H   UNL     1      35.800 -16.023 -21.968  0.00  0.00    +0.292 HD
ENDBRANCH  20  22
BRANCH  19  25
ATOM     24  N   UNL     1      33.291 -15.721 -26.538  0.00  0.00    -0.191 NA
ATOM     25  C   UNL     1      33.710 -15.715 -25.456  0.00  0.00    +0.108 C 
ENDBRANCH  19  25
ENDBRANCH  17  19
ENDBRANCH   3  16
TORSDOF 5
ENDMDL
MODEL 7
REMARK VINA RESULT:      -9.8      4.323      9.182
REMARK  Name = 54727980
REMARK  5 active torsions:
REMARK  status: ('A' for Active; 'I' for Inactive)
REMARK    1  A    between atoms: C_2  and  C_9
REMARK    2  A    between atoms: C_3  and  N_16
REMARK    3  A    between atoms: C_17  and  C_19
REMARK    4  A    between atoms: C_19  and  C_25
REMARK    5  A    between atoms: C_20  and  O_22
REMARK                            x       y       z     vdW  Elec       q    Type
REMARK                         _______ _______ _______ _____ _____    ______ ____
ROOT
ATOM      1 CL   UNL     1      34.611  -8.375 -24.353  0.00  0.00    -0.082 Cl
ATOM      2  C   UNL     1      32.403  -9.269 -23.004  0.00  0.00    +0.011 C 
ATOM      3  C   UNL     1      33.225 -11.929 -23.184  0.00  0.00    +0.051 C 
ATOM      4  C   UNL     1      33.599  -9.587 -23.648  0.00  0.00    +0.059 C 
ATOM      5  C   UNL     1      31.619 -10.281 -22.449  0.00  0.00    +0.002 C 
ATOM      6  C   UNL     1      34.009 -10.918 -23.739  0.00  0.00    +0.026 C 
ATOM      7  C   UNL     1      32.030 -11.611 -22.540  0.00  0.00    +0.015 C 
ENDROOT
BRANCH   2   9
ATOM      8 CL   UNL     1      32.899  -7.823 -20.325  0.00  0.00    -0.082 Cl
ATOM      9  C   UNL     1      31.939  -7.900 -22.887  0.00  0.00    +0.011 C 
ATOM     10  C   UNL     1      32.114  -7.161 -21.717  0.00  0.00    +0.058 C 
ATOM     11  C   UNL     1      31.300  -7.325 -23.986  0.00  0.00    +0.001 C 
ATOM     12  C   UNL     1      31.653  -5.847 -21.647  0.00  0.00    +0.011 C 
ATOM     13  C   UNL     1      30.838  -6.010 -23.916  0.00  0.00    +0.000 C 
ATOM     14  C   UNL     1      31.015  -5.271 -22.746  0.00  0.00    +0.001 C 
ENDBRANCH   2   9
BRANCH   3  16
ATOM     15  O   UNL     1      32.638 -13.998 -25.270  0.00  0.00    -0.269 OA
ATOM     16  N   UNL     1      33.642 -13.280 -23.276  0.00  0.00    -0.280 N 
ATOM     17  C   UNL     1      33.333 -14.192 -24.278  0.00  0.00    +0.262 C 
ATOM     18  H   UNL     1      34.215 -13.610 -22.547  0.00  0.00    +0.155 HD
BRANCH  17  19
ATOM     19  C   UNL     1      33.957 -15.542 -24.037  0.00  0.00    +0.151 C 
ATOM     20  C   UNL     1      34.089 -16.391 -25.077  0.00  0.00    +0.126 C 
ATOM     21  C   UNL     1      34.673 -17.776 -25.001  0.00  0.00    +0.072 C 
BRANCH  20  22
ATOM     22  O   UNL     1      33.698 -16.020 -26.354  0.00  0.00    -0.509 OA
ATOM     23  H   UNL     1      32.885 -15.572 -26.483  0.00  0.00    +0.292 HD
ENDBRANCH  20  22
BRANCH  19  25
ATOM     24  N   UNL     1      34.727 -16.171 -21.647  0.00  0.00    -0.191 NA
ATOM     25  C   UNL     1      34.376 -15.891 -22.717  0.00  0.00    +0.108 C 
ENDBRANCH  19  25
ENDBRANCH  17  19
ENDBRANCH   3  16
TORSDOF 5
ENDMDL
MODEL 8
REMARK VINA RESULT:      -9.7      3.909      8.864
REMARK  Name = 54727980
REMARK  5 active torsions:
REMARK  status: ('A' for Active; 'I' for Inactive)
REMARK    1  A    between atoms: C_2  and  C_9
REMARK    2  A    between atoms: C_3  and  N_16
REMARK    3  A    between atoms: C_17  and  C_19
REMARK    4  A    between atoms: C_19  and  C_25
REMARK    5  A    between atoms: C_20  and  O_22
REMARK                            x       y       z     vdW  Elec       q    Type
REMARK                         _______ _______ _______ _____ _____    ______ ____
ROOT
ATOM      1 CL   UNL     1      34.554  -8.838 -24.332  0.00  0.00    -0.082 Cl
ATOM      2  C   UNL     1      32.374  -9.833 -23.008  0.00  0.00    +0.011 C 
ATOM      3  C   UNL     1      33.186 -12.471 -23.408  0.00  0.00    +0.051 C 
ATOM      4  C   UNL     1      33.554 -10.101 -23.700  0.00  0.00    +0.059 C 
ATOM      5  C   UNL     1      31.600 -10.883 -22.515  0.00  0.00    +0.002 C 
ATOM      6  C   UNL     1      33.960 -11.421 -23.901  0.00  0.00    +0.026 C 
ATOM      7  C   UNL     1      32.006 -12.203 -22.716  0.00  0.00    +0.015 C 
ENDROOT
BRANCH   2   9
ATOM      8 CL   UNL     1      32.637  -8.710 -20.147  0.00  0.00    -0.082 Cl
ATOM      9  C   UNL     1      31.914  -8.477 -22.777  0.00  0.00    +0.011 C 
ATOM     10  C   UNL     1      31.990  -7.879 -21.519  0.00  0.00    +0.058 C 
ATOM     11  C   UNL     1      31.385  -7.768 -23.855  0.00  0.00    +0.001 C 
ATOM     12  C   UNL     1      31.538  -6.571 -21.340  0.00  0.00    +0.011 C 
ATOM     13  C   UNL     1      30.932  -6.460 -23.676  0.00  0.00    +0.000 C 
ATOM     14  C   UNL     1      31.009  -5.862 -22.418  0.00  0.00    +0.001 C 
ENDBRANCH   2   9
BRANCH   3  16
ATOM     15  O   UNL     1      34.667 -14.338 -21.592  0.00  0.00    -0.269 OA
ATOM     16  N   UNL     1      33.598 -13.812 -23.612  0.00  0.00    -0.280 N 
ATOM     17  C   UNL     1      34.286 -14.627 -22.722  0.00  0.00    +0.262 C 
ATOM     18  H   UNL     1      33.372 -14.210 -24.483  0.00  0.00    +0.155 HD
BRANCH  17  19
ATOM     19  C   UNL     1      34.553 -15.997 -23.289  0.00  0.00    +0.151 C 
ATOM     20  C   UNL     1      34.969 -16.974 -22.457  0.00  0.00    +0.126 C 
ATOM     21  C   UNL     1      35.295 -18.386 -22.866  0.00  0.00    +0.072 C 
BRANCH  20  22
ATOM     22  O   UNL     1      35.111 -16.741 -21.098  0.00  0.00    -0.509 OA
ATOM     23  H   UNL     1      35.389 -17.434 -20.530  0.00  0.00    +0.292 HD
ENDBRANCH  20  22
BRANCH  19  25
ATOM     24  N   UNL     1      34.224 -16.390 -25.826  0.00  0.00    -0.191 NA
ATOM     25  C   UNL     1      34.375 -16.219 -24.688  0.00  0.00    +0.108 C 
ENDBRANCH  19  25
ENDBRANCH  17  19
ENDBRANCH   3  16
TORSDOF 5
ENDMDL
MODEL 9
REMARK VINA RESULT:      -9.6      1.219      1.684
REMARK  Name = 54727980
REMARK  5 active torsions:
REMARK  status: ('A' for Active; 'I' for Inactive)
REMARK    1  A    between atoms: C_2  and  C_9
REMARK    2  A    between atoms: C_3  and  N_16
REMARK    3  A    between atoms: C_17  and  C_19
REMARK    4  A    between atoms: C_19  and  C_25
REMARK    5  A    between atoms: C_20  and  O_22
REMARK                            x       y       z     vdW  Elec       q    Type
REMARK                         _______ _______ _______ _____ _____    ______ ____
ROOT
ATOM      1 CL   UNL     1      34.732 -18.799 -24.052  0.00  0.00    -0.082 Cl
ATOM      2  C   UNL     1      34.454 -17.679 -21.570  0.00  0.00    +0.011 C 
ATOM      3  C   UNL     1      34.369 -15.094 -22.616  0.00  0.00    +0.051 C 
ATOM      4  C   UNL     1      34.554 -17.480 -22.947  0.00  0.00    +0.059 C 
ATOM      5  C   UNL     1      34.311 -16.585 -20.716  0.00  0.00    +0.002 C 
ATOM      6  C   UNL     1      34.512 -16.188 -23.470  0.00  0.00    +0.026 C 
ATOM      7  C   UNL     1      34.269 -15.292 -21.240  0.00  0.00    +0.015 C 
ENDROOT
BRANCH   2   9
ATOM      8 CL   UNL     1      37.224 -18.979 -21.180  0.00  0.00    -0.082 Cl
ATOM      9  C   UNL     1      34.494 -19.004 -20.984  0.00  0.00    +0.011 C 
ATOM     10  C   UNL     1      35.696 -19.677 -20.767  0.00  0.00    +0.058 C 
ATOM     11  C   UNL     1      33.285 -19.606 -20.634  0.00  0.00    +0.001 C 
ATOM     12  C   UNL     1      35.690 -20.951 -20.199  0.00  0.00    +0.011 C 
ATOM     13  C   UNL     1      33.279 -20.881 -20.066  0.00  0.00    +0.000 C 
ATOM     14  C   UNL     1      34.482 -21.553 -19.848  0.00  0.00    +0.001 C 
ENDBRANCH   2   9
BRANCH   3  16
ATOM     15  O   UNL     1      32.047 -13.243 -23.015  0.00  0.00    -0.269 OA
ATOM     16  N   UNL     1      34.326 -13.781 -23.147  0.00  0.00    -0.280 N 
ATOM     17  C   UNL     1      33.208 -12.971 -23.305  0.00  0.00    +0.262 C 
ATOM     18  H   UNL     1      35.185 -13.400 -23.437  0.00  0.00    +0.155 HD
BRANCH  17  19
ATOM     19  C   UNL     1      33.550 -11.633 -23.907  0.00  0.00    +0.151 C 
ATOM     20  C   UNL     1      34.189 -11.599 -25.094  0.00  0.00    +0.126 C 
ATOM     21  C   UNL     1      34.615 -10.350 -25.818  0.00  0.00    +0.072 C 
BRANCH  20  22
ATOM     22  O   UNL     1      34.493 -12.769 -25.774  0.00  0.00    -0.509 OA
ATOM     23  H   UNL     1      35.354 -13.134 -25.715  0.00  0.00    +0.292 HD
ENDBRANCH  20  22
BRANCH  19  25
ATOM     24  N   UNL     1      32.912  -9.473 -22.630  0.00  0.00    -0.191 NA
ATOM     25  C   UNL     1      33.204 -10.441 -23.199  0.00  0.00    +0.108 C 
ENDBRANCH  19  25
ENDBRANCH  17  19
ENDBRANCH   3  16
TORSDOF 5
ENDMDL
