MODEL 1
REMARK VINA RESULT:      -9.0      0.000      0.000
REMARK  Name = 448436
REMARK  6 active torsions:
REMARK  status: ('A' for Active; 'I' for Inactive)
REMARK    1  A    between atoms: C_4  and  C_28
REMARK    2  A    between atoms: C_5  and  C_12
REMARK    3  A    between atoms: C_6  and  C_18
REMARK    4  A    between atoms: C_21  and  O_24
REMARK    5  A    between atoms: C_22  and  O_26
REMARK    6  A    between atoms: C_28  and  N_29
REMARK                            x       y       z     vdW  Elec       q    Type
REMARK                         _______ _______ _______ _____ _____    ______ ____
ROOT
ATOM      1  N   UNL     1      32.568 -10.535 -23.139  0.00  0.00    -0.344 NA
ATOM      2  N   UNL     1      32.323 -11.765 -21.082  0.00  0.00    -0.329 NA
ATOM      3  N   UNL     1      31.750 -10.641 -19.075  0.00  0.00    -0.335 N 
ATOM      4  C   UNL     1      31.987  -9.382 -21.107  0.00  0.00    +0.099 C 
ATOM      5  C   UNL     1      32.266  -9.413 -22.456  0.00  0.00    +0.128 C 
ATOM      6  C   UNL     1      32.577 -11.660 -22.399  0.00  0.00    +0.139 C 
ATOM      7  C   UNL     1      32.030 -10.602 -20.464  0.00  0.00    +0.170 C 
ATOM      8  H   UNL     1      31.774 -11.498 -18.592  0.00  0.00    +0.144 HD
ATOM      9  H   UNL     1      31.531  -9.810 -18.594  0.00  0.00    +0.144 HD
ENDROOT
BRANCH   5  12
ATOM     10 CL   UNL     1      34.997  -8.260 -23.309  0.00  0.00    -0.082 Cl
ATOM     11 CL   UNL     1      32.097  -4.481 -25.799  0.00  0.00    -0.082 Cl
ATOM     12  C   UNL     1      32.260  -8.213 -23.271  0.00  0.00    +0.037 C 
ATOM     13  C   UNL     1      33.442  -7.614 -23.707  0.00  0.00    +0.061 C 
ATOM     14  C   UNL     1      31.029  -7.658 -23.615  0.00  0.00    +0.004 C 
ATOM     15  C   UNL     1      33.392  -6.461 -24.489  0.00  0.00    +0.023 C 
ATOM     16  C   UNL     1      30.979  -6.504 -24.397  0.00  0.00    +0.012 C 
ATOM     17  C   UNL     1      32.160  -5.906 -24.834  0.00  0.00    +0.059 C 
ENDBRANCH   5  12
BRANCH   6  18
ATOM     18  C   UNL     1      32.895 -12.882 -23.091  0.00  0.00    +0.092 C 
ATOM     19  C   UNL     1      33.372 -13.990 -22.383  0.00  0.00    +0.049 C 
ATOM     20  C   UNL     1      32.729 -12.971 -24.477  0.00  0.00    +0.049 C 
ATOM     21  C   UNL     1      33.037 -14.154 -25.147  0.00  0.00    +0.142 C 
ATOM     22  C   UNL     1      33.680 -15.174 -23.053  0.00  0.00    +0.142 C 
ATOM     23  C   UNL     1      33.512 -15.256 -24.436  0.00  0.00    +0.074 C 
BRANCH  21  24
ATOM     24  O   UNL     1      32.873 -14.235 -26.496  0.00  0.00    -0.471 OA
ATOM     25  C   UNL     1      33.424 -13.173 -27.266  0.00  0.00    +0.252 C 
ENDBRANCH  21  24
BRANCH  22  26
ATOM     26  O   UNL     1      34.141 -16.249 -22.359  0.00  0.00    -0.471 OA
ATOM     27  C   UNL     1      34.554 -16.008 -21.019  0.00  0.00    +0.252 C 
ENDBRANCH  22  26
ENDBRANCH   6  18
BRANCH   4  28
ATOM     28  C   UNL     1      31.658  -8.117 -20.391  0.00  0.00    -0.070 C 
BRANCH  28  29
ATOM     29  N   UNL     1      32.823  -7.494 -19.816  0.00  0.00    +0.381 N 
ATOM     30  H   UNL     1      33.045  -7.942 -18.926  0.00  0.00    -0.089 HD
ATOM     31  H   UNL     1      32.638  -6.503 -19.661  0.00  0.00    -0.089 HD
ATOM     32  H   UNL     1      33.613  -7.596 -20.453  0.00  0.00    -0.089 HD
ENDBRANCH  28  29
ENDBRANCH   4  28
TORSDOF 6
ENDMDL
MODEL 2
REMARK VINA RESULT:      -8.9      0.091      2.477
REMARK  Name = 448436
REMARK  6 active torsions:
REMARK  status: ('A' for Active; 'I' for Inactive)
REMARK    1  A    between atoms: C_4  and  C_28
REMARK    2  A    between atoms: C_5  and  C_12
REMARK    3  A    between atoms: C_6  and  C_18
REMARK    4  A    between atoms: C_21  and  O_24
REMARK    5  A    between atoms: C_22  and  O_26
REMARK    6  A    between atoms: C_28  and  N_29
REMARK                            x       y       z     vdW  Elec       q    Type
REMARK                         _______ _______ _______ _____ _____    ______ ____
ROOT
ATOM      1  N   UNL     1      32.545 -10.463 -23.109  0.00  0.00    -0.344 NA
ATOM      2  N   UNL     1      32.293 -11.673 -21.041  0.00  0.00    -0.329 NA
ATOM      3  N   UNL     1      31.723 -10.529 -19.045  0.00  0.00    -0.335 N 
ATOM      4  C   UNL     1      31.968  -9.289 -21.088  0.00  0.00    +0.099 C 
ATOM      5  C   UNL     1      32.249  -9.333 -22.436  0.00  0.00    +0.128 C 
ATOM      6  C   UNL     1      32.549 -11.582 -22.359  0.00  0.00    +0.139 C 
ATOM      7  C   UNL     1      32.005 -10.504 -20.434  0.00  0.00    +0.170 C 
ATOM      8  H   UNL     1      31.743 -11.382 -18.554  0.00  0.00    +0.144 HD
ATOM      9  H   UNL     1      31.508  -9.693 -18.572  0.00  0.00    +0.144 HD
ENDROOT
BRANCH   5  12
ATOM     10 CL   UNL     1      34.983  -8.233 -23.344  0.00  0.00    -0.082 Cl
ATOM     11 CL   UNL     1      32.105  -4.429 -25.820  0.00  0.00    -0.082 Cl
ATOM     12  C   UNL     1      32.249  -8.140 -23.261  0.00  0.00    +0.037 C 
ATOM     13  C   UNL     1      33.433  -7.565 -23.723  0.00  0.00    +0.061 C 
ATOM     14  C   UNL     1      31.021  -7.568 -23.590  0.00  0.00    +0.004 C 
ATOM     15  C   UNL     1      33.389  -6.418 -24.513  0.00  0.00    +0.023 C 
ATOM     16  C   UNL     1      30.977  -6.420 -24.382  0.00  0.00    +0.012 C 
ATOM     17  C   UNL     1      32.160  -5.846 -24.843  0.00  0.00    +0.059 C 
ENDBRANCH   5  12
BRANCH   6  18
ATOM     18  C   UNL     1      32.862 -12.810 -23.040  0.00  0.00    +0.092 C 
ATOM     19  C   UNL     1      32.687 -12.915 -24.424  0.00  0.00    +0.049 C 
ATOM     20  C   UNL     1      33.346 -13.910 -22.325  0.00  0.00    +0.049 C 
ATOM     21  C   UNL     1      33.650 -15.100 -22.985  0.00  0.00    +0.142 C 
ATOM     22  C   UNL     1      32.990 -14.105 -25.084  0.00  0.00    +0.142 C 
ATOM     23  C   UNL     1      33.472 -15.198 -24.364  0.00  0.00    +0.074 C 
BRANCH  21  24
ATOM     24  O   UNL     1      34.121 -16.167 -22.282  0.00  0.00    -0.471 OA
ATOM     25  C   UNL     1      34.590 -15.902 -20.966  0.00  0.00    +0.252 C 
ENDBRANCH  21  24
BRANCH  22  26
ATOM     26  O   UNL     1      32.818 -14.200 -26.431  0.00  0.00    -0.471 OA
ATOM     27  C   UNL     1      33.361 -13.143 -27.215  0.00  0.00    +0.252 C 
ENDBRANCH  22  26
ENDBRANCH   6  18
BRANCH   4  28
ATOM     28  C   UNL     1      31.644  -8.017 -20.384  0.00  0.00    -0.070 C 
BRANCH  28  29
ATOM     29  N   UNL     1      32.797  -7.436 -19.743  0.00  0.00    +0.381 N 
ATOM     30  H   UNL     1      33.271  -6.812 -20.397  0.00  0.00    -0.089 HD
ATOM     31  H   UNL     1      33.437  -8.177 -19.456  0.00  0.00    -0.089 HD
ATOM     32  H   UNL     1      32.500  -6.907 -18.924  0.00  0.00    -0.089 HD
ENDBRANCH  28  29
ENDBRANCH   4  28
TORSDOF 6
ENDMDL
MODEL 3
REMARK VINA RESULT:      -8.7      1.529      2.949
REMARK  Name = 448436
REMARK  6 active torsions:
REMARK  status: ('A' for Active; 'I' for Inactive)
REMARK    1  A    between atoms: C_4  and  C_28
REMARK    2  A    between atoms: C_5  and  C_12
REMARK    3  A    between atoms: C_6  and  C_18
REMARK    4  A    between atoms: C_21  and  O_24
REMARK    5  A    between atoms: C_22  and  O_26
REMARK    6  A    between atoms: C_28  and  N_29
REMARK                            x       y       z     vdW  Elec       q    Type
REMARK                         _______ _______ _______ _____ _____    ______ ____
ROOT
ATOM      1  N   UNL     1      32.409  -8.897 -23.340  0.00  0.00    -0.344 NA
ATOM      2  N   UNL     1      32.289  -9.677 -21.064  0.00  0.00    -0.329 NA
ATOM      3  N   UNL     1      32.004  -8.137 -19.284  0.00  0.00    -0.335 N 
ATOM      4  C   UNL     1      32.121  -7.324 -21.541  0.00  0.00    +0.099 C 
ATOM      5  C   UNL     1      32.259  -7.641 -22.875  0.00  0.00    +0.128 C 
ATOM      6  C   UNL     1      32.415  -9.853 -22.392  0.00  0.00    +0.139 C 
ATOM      7  C   UNL     1      32.144  -8.395 -20.671  0.00  0.00    +0.170 C 
ATOM      8  H   UNL     1      32.017  -8.883 -18.642  0.00  0.00    +0.144 HD
ATOM      9  H   UNL     1      31.895  -7.213 -18.964  0.00  0.00    +0.144 HD
ENDROOT
BRANCH   5  12
ATOM     10 CL   UNL     1      34.926  -7.063 -24.310  0.00  0.00    -0.082 Cl
ATOM     11 CL   UNL     1      32.098  -3.451 -27.110  0.00  0.00    -0.082 Cl
ATOM     12  C   UNL     1      32.254  -6.626 -23.911  0.00  0.00    +0.037 C 
ATOM     13  C   UNL     1      33.409  -6.293 -24.619  0.00  0.00    +0.061 C 
ATOM     14  C   UNL     1      31.052  -5.979 -24.193  0.00  0.00    +0.004 C 
ATOM     15  C   UNL     1      33.361  -5.310 -25.607  0.00  0.00    +0.023 C 
ATOM     16  C   UNL     1      31.004  -4.997 -25.182  0.00  0.00    +0.012 C 
ATOM     17  C   UNL     1      32.158  -4.663 -25.890  0.00  0.00    +0.059 C 
ENDBRANCH   5  12
BRANCH   6  18
ATOM     18  C   UNL     1      32.574 -11.209 -22.848  0.00  0.00    +0.092 C 
ATOM     19  C   UNL     1      33.097 -11.470 -24.119  0.00  0.00    +0.049 C 
ATOM     20  C   UNL     1      32.208 -12.278 -22.024  0.00  0.00    +0.049 C 
ATOM     21  C   UNL     1      32.362 -13.592 -22.466  0.00  0.00    +0.142 C 
ATOM     22  C   UNL     1      33.251 -12.783 -24.561  0.00  0.00    +0.142 C 
ATOM     23  C   UNL     1      32.884 -13.845 -23.734  0.00  0.00    +0.074 C 
BRANCH  21  24
ATOM     24  O   UNL     1      32.004 -14.628 -21.659  0.00  0.00    -0.471 OA
ATOM     25  C   UNL     1      33.024 -15.160 -20.821  0.00  0.00    +0.252 C 
ENDBRANCH  21  24
BRANCH  22  26
ATOM     26  O   UNL     1      33.762 -13.030 -25.799  0.00  0.00    -0.471 OA
ATOM     27  C   UNL     1      33.087 -14.010 -26.578  0.00  0.00    +0.252 C 
ENDBRANCH  22  26
ENDBRANCH   6  18
BRANCH   4  28
ATOM     28  C   UNL     1      31.957  -5.920 -21.070  0.00  0.00    -0.070 C 
BRANCH  28  29
ATOM     29  N   UNL     1      30.575  -5.512 -21.033  0.00  0.00    +0.381 N 
ATOM     30  H   UNL     1      30.120  -5.923 -20.217  0.00  0.00    -0.089 HD
ATOM     31  H   UNL     1      30.103  -5.829 -21.880  0.00  0.00    -0.089 HD
ATOM     32  H   UNL     1      30.522  -4.496 -20.975  0.00  0.00    -0.089 HD
ENDBRANCH  28  29
ENDBRANCH   4  28
TORSDOF 6
ENDMDL
MODEL 4
REMARK VINA RESULT:      -8.7      1.463      1.846
REMARK  Name = 448436
REMARK  6 active torsions:
REMARK  status: ('A' for Active; 'I' for Inactive)
REMARK    1  A    between atoms: C_4  and  C_28
REMARK    2  A    between atoms: C_5  and  C_12
REMARK    3  A    between atoms: C_6  and  C_18
REMARK    4  A    between atoms: C_21  and  O_24
REMARK    5  A    between atoms: C_22  and  O_26
REMARK    6  A    between atoms: C_28  and  N_29
REMARK                            x       y       z     vdW  Elec       q    Type
REMARK                         _______ _______ _______ _____ _____    ______ ____
ROOT
ATOM      1  N   UNL     1      32.441  -9.044 -23.284  0.00  0.00    -0.344 NA
ATOM      2  N   UNL     1      32.250  -9.790 -21.001  0.00  0.00    -0.329 NA
ATOM      3  N   UNL     1      31.958  -8.220 -19.249  0.00  0.00    -0.335 N 
ATOM      4  C   UNL     1      32.147  -7.440 -21.513  0.00  0.00    +0.099 C 
ATOM      5  C   UNL     1      32.308  -7.779 -22.839  0.00  0.00    +0.128 C 
ATOM      6  C   UNL     1      32.403  -9.988 -22.324  0.00  0.00    +0.139 C 
ATOM      7  C   UNL     1      32.124  -8.500 -20.629  0.00  0.00    +0.170 C 
ATOM      8  H   UNL     1      31.939  -8.957 -18.597  0.00  0.00    +0.144 HD
ATOM      9  H   UNL     1      31.862  -7.290 -18.944  0.00  0.00    +0.144 HD
ENDROOT
BRANCH   5  12
ATOM     10 CL   UNL     1      35.049  -7.180 -24.120  0.00  0.00    -0.082 Cl
ATOM     11 CL   UNL     1      32.342  -3.650 -27.138  0.00  0.00    -0.082 Cl
ATOM     12  C   UNL     1      32.351  -6.779 -23.889  0.00  0.00    +0.037 C 
ATOM     13  C   UNL     1      33.542  -6.437 -24.531  0.00  0.00    +0.061 C 
ATOM     14  C   UNL     1      31.159  -6.154 -24.251  0.00  0.00    +0.004 C 
ATOM     15  C   UNL     1      33.539  -5.469 -25.534  0.00  0.00    +0.023 C 
ATOM     16  C   UNL     1      31.156  -5.187 -25.256  0.00  0.00    +0.012 C 
ATOM     17  C   UNL     1      32.346  -4.845 -25.898  0.00  0.00    +0.059 C 
ENDBRANCH   5  12
BRANCH   6  18
ATOM     18  C   UNL     1      32.542 -11.353 -22.758  0.00  0.00    +0.092 C 
ATOM     19  C   UNL     1      32.206 -12.404 -21.898  0.00  0.00    +0.049 C 
ATOM     20  C   UNL     1      33.013 -11.640 -24.043  0.00  0.00    +0.049 C 
ATOM     21  C   UNL     1      33.146 -12.963 -24.464  0.00  0.00    +0.142 C 
ATOM     22  C   UNL     1      32.341 -13.727 -22.318  0.00  0.00    +0.142 C 
ATOM     23  C   UNL     1      32.811 -14.006 -23.602  0.00  0.00    +0.074 C 
BRANCH  21  24
ATOM     24  O   UNL     1      33.605 -13.236 -25.716  0.00  0.00    -0.471 OA
ATOM     25  C   UNL     1      33.073 -14.395 -26.347  0.00  0.00    +0.252 C 
ENDBRANCH  21  24
BRANCH  22  26
ATOM     26  O   UNL     1      32.011 -14.745 -21.478  0.00  0.00    -0.471 OA
ATOM     27  C   UNL     1      33.054 -15.653 -21.143  0.00  0.00    +0.252 C 
ENDBRANCH  22  26
ENDBRANCH   6  18
BRANCH   4  28
ATOM     28  C   UNL     1      32.003  -6.027 -21.065  0.00  0.00    -0.070 C 
BRANCH  28  29
ATOM     29  N   UNL     1      30.633  -5.582 -21.084  0.00  0.00    +0.381 N 
ATOM     30  H   UNL     1      30.582  -4.622 -20.743  0.00  0.00    -0.089 HD
ATOM     31  H   UNL     1      30.070  -6.186 -20.483  0.00  0.00    -0.089 HD
ATOM     32  H   UNL     1      30.275  -5.624 -22.038  0.00  0.00    -0.089 HD
ENDBRANCH  28  29
ENDBRANCH   4  28
TORSDOF 6
ENDMDL
MODEL 5
REMARK VINA RESULT:      -8.3      3.948      7.929
REMARK  Name = 448436
REMARK  6 active torsions:
REMARK  status: ('A' for Active; 'I' for Inactive)
REMARK    1  A    between atoms: C_4  and  C_28
REMARK    2  A    between atoms: C_5  and  C_12
REMARK    3  A    between atoms: C_6  and  C_18
REMARK    4  A    between atoms: C_21  and  O_24
REMARK    5  A    between atoms: C_22  and  O_26
REMARK    6  A    between atoms: C_28  and  N_29
REMARK                            x       y       z     vdW  Elec       q    Type
REMARK                         _______ _______ _______ _____ _____    ______ ____
ROOT
ATOM      1  N   UNL     1      33.762 -12.778 -23.471  0.00  0.00    -0.344 NA
ATOM      2  N   UNL     1      33.249 -11.722 -25.575  0.00  0.00    -0.329 NA
ATOM      3  N   UNL     1      33.049 -13.019 -27.549  0.00  0.00    -0.335 N 
ATOM      4  C   UNL     1      33.563 -14.106 -25.470  0.00  0.00    +0.099 C 
ATOM      5  C   UNL     1      33.790 -13.960 -24.118  0.00  0.00    +0.128 C 
ATOM      6  C   UNL     1      33.489 -11.714 -24.250  0.00  0.00    +0.139 C 
ATOM      7  C   UNL     1      33.294 -12.938 -26.155  0.00  0.00    +0.170 C 
ATOM      8  H   UNL     1      32.855 -12.201 -28.062  0.00  0.00    +0.144 HD
ATOM      9  H   UNL     1      33.073 -13.891 -28.003  0.00  0.00    +0.144 HD
ENDROOT
BRANCH   5  12
ATOM     10 CL   UNL     1      32.193 -14.209 -21.492  0.00  0.00    -0.082 Cl
ATOM     11 CL   UNL     1      35.101 -18.659 -20.694  0.00  0.00    -0.082 Cl
ATOM     12  C   UNL     1      34.085 -15.093 -23.262  0.00  0.00    +0.037 C 
ATOM     13  C   UNL     1      33.417 -15.295 -22.054  0.00  0.00    +0.061 C 
ATOM     14  C   UNL     1      35.065 -15.993 -23.676  0.00  0.00    +0.004 C 
ATOM     15  C   UNL     1      33.731 -16.397 -21.259  0.00  0.00    +0.023 C 
ATOM     16  C   UNL     1      35.379 -17.096 -22.881  0.00  0.00    +0.012 C 
ATOM     17  C   UNL     1      34.712 -17.298 -21.674  0.00  0.00    +0.059 C 
ENDBRANCH   5  12
BRANCH   6  18
ATOM     18  C   UNL     1      33.451 -10.432 -23.597  0.00  0.00    +0.092 C 
ATOM     19  C   UNL     1      32.616 -10.227 -22.494  0.00  0.00    +0.049 C 
ATOM     20  C   UNL     1      34.249  -9.381 -24.060  0.00  0.00    +0.049 C 
ATOM     21  C   UNL     1      34.213  -8.139 -23.427  0.00  0.00    +0.142 C 
ATOM     22  C   UNL     1      32.579  -8.985 -21.861  0.00  0.00    +0.142 C 
ATOM     23  C   UNL     1      33.378  -7.941 -22.328  0.00  0.00    +0.074 C 
BRANCH  21  24
ATOM     24  O   UNL     1      34.993  -7.120 -23.881  0.00  0.00    -0.471 OA
ATOM     25  C   UNL     1      34.547  -6.459 -25.060  0.00  0.00    +0.252 C 
ENDBRANCH  21  24
BRANCH  22  26
ATOM     26  O   UNL     1      31.766  -8.792 -20.787  0.00  0.00    -0.471 OA
ATOM     27  C   UNL     1      31.822  -9.780 -19.765  0.00  0.00    +0.252 C 
ENDBRANCH  22  26
ENDBRANCH   6  18
BRANCH   4  28
ATOM     28  C   UNL     1      33.603 -15.433 -26.145  0.00  0.00    -0.070 C 
BRANCH  28  29
ATOM     29  N   UNL     1      32.295 -15.878 -26.557  0.00  0.00    +0.381 N 
ATOM     30  H   UNL     1      31.695 -15.975 -25.738  0.00  0.00    -0.089 HD
ATOM     31  H   UNL     1      32.375 -16.779 -27.029  0.00  0.00    -0.089 HD
ATOM     32  H   UNL     1      31.890 -15.194 -27.196  0.00  0.00    -0.089 HD
ENDBRANCH  28  29
ENDBRANCH   4  28
TORSDOF 6
ENDMDL
MODEL 6
REMARK VINA RESULT:      -8.3      3.949      8.194
REMARK  Name = 448436
REMARK  6 active torsions:
REMARK  status: ('A' for Active; 'I' for Inactive)
REMARK    1  A    between atoms: C_4  and  C_28
REMARK    2  A    between atoms: C_5  and  C_12
REMARK    3  A    between atoms: C_6  and  C_18
REMARK    4  A    between atoms: C_21  and  O_24
REMARK    5  A    between atoms: C_22  and  O_26
REMARK    6  A    between atoms: C_28  and  N_29
REMARK                            x       y       z     vdW  Elec       q    Type
REMARK                         _______ _______ _______ _____ _____    ______ ____
ROOT
ATOM      1  N   UNL     1      33.762 -12.783 -23.466  0.00  0.00    -0.344 NA
ATOM      2  N   UNL     1      33.236 -11.723 -25.565  0.00  0.00    -0.329 NA
ATOM      3  N   UNL     1      33.030 -13.016 -27.541  0.00  0.00    -0.335 N 
ATOM      4  C   UNL     1      33.556 -14.107 -25.467  0.00  0.00    +0.099 C 
ATOM      5  C   UNL     1      33.789 -13.963 -24.116  0.00  0.00    +0.128 C 
ATOM      6  C   UNL     1      33.482 -11.718 -24.241  0.00  0.00    +0.139 C 
ATOM      7  C   UNL     1      33.282 -12.938 -26.148  0.00  0.00    +0.170 C 
ATOM      8  H   UNL     1      32.832 -12.198 -28.051  0.00  0.00    +0.144 HD
ATOM      9  H   UNL     1      33.054 -13.887 -27.997  0.00  0.00    +0.144 HD
ENDROOT
BRANCH   5  12
ATOM     10 CL   UNL     1      32.215 -14.215 -21.476  0.00  0.00    -0.082 Cl
ATOM     11 CL   UNL     1      35.126 -18.668 -20.709  0.00  0.00    -0.082 Cl
ATOM     12  C   UNL     1      34.090 -15.098 -23.263  0.00  0.00    +0.037 C 
ATOM     13  C   UNL     1      33.433 -15.300 -22.050  0.00  0.00    +0.061 C 
ATOM     14  C   UNL     1      35.066 -15.998 -23.687  0.00  0.00    +0.004 C 
ATOM     15  C   UNL     1      33.753 -16.404 -21.260  0.00  0.00    +0.023 C 
ATOM     16  C   UNL     1      35.386 -17.102 -22.897  0.00  0.00    +0.012 C 
ATOM     17  C   UNL     1      34.730 -17.305 -21.684  0.00  0.00    +0.059 C 
ENDBRANCH   5  12
BRANCH   6  18
ATOM     18  C   UNL     1      33.444 -10.438 -23.585  0.00  0.00    +0.092 C 
ATOM     19  C   UNL     1      34.241  -9.385 -24.047  0.00  0.00    +0.049 C 
ATOM     20  C   UNL     1      32.610 -10.236 -22.481  0.00  0.00    +0.049 C 
ATOM     21  C   UNL     1      32.572  -8.995 -21.846  0.00  0.00    +0.142 C 
ATOM     22  C   UNL     1      34.204  -8.144 -23.411  0.00  0.00    +0.142 C 
ATOM     23  C   UNL     1      33.369  -7.949 -22.310  0.00  0.00    +0.074 C 
BRANCH  21  24
ATOM     24  O   UNL     1      31.758  -8.804 -20.772  0.00  0.00    -0.471 OA
ATOM     25  C   UNL     1      31.812  -9.795 -19.753  0.00  0.00    +0.252 C 
ENDBRANCH  21  24
BRANCH  22  26
ATOM     26  O   UNL     1      34.980  -7.122 -23.866  0.00  0.00    -0.471 OA
ATOM     27  C   UNL     1      34.533  -6.465 -25.046  0.00  0.00    +0.252 C 
ENDBRANCH  22  26
ENDBRANCH   6  18
BRANCH   4  28
ATOM     28  C   UNL     1      33.596 -15.432 -26.145  0.00  0.00    -0.070 C 
BRANCH  28  29
ATOM     29  N   UNL     1      32.287 -15.885 -26.541  0.00  0.00    +0.381 N 
ATOM     30  H   UNL     1      31.621 -15.115 -26.458  0.00  0.00    -0.089 HD
ATOM     31  H   UNL     1      31.994 -16.653 -25.938  0.00  0.00    -0.089 HD
ATOM     32  H   UNL     1      32.316 -16.205 -27.509  0.00  0.00    -0.089 HD
ENDBRANCH  28  29
ENDBRANCH   4  28
TORSDOF 6
ENDMDL
MODEL 7
REMARK VINA RESULT:      -8.0      4.307      8.672
REMARK  Name = 448436
REMARK  6 active torsions:
REMARK  status: ('A' for Active; 'I' for Inactive)
REMARK    1  A    between atoms: C_4  and  C_28
REMARK    2  A    between atoms: C_5  and  C_12
REMARK    3  A    between atoms: C_6  and  C_18
REMARK    4  A    between atoms: C_21  and  O_24
REMARK    5  A    between atoms: C_22  and  O_26
REMARK    6  A    between atoms: C_28  and  N_29
REMARK                            x       y       z     vdW  Elec       q    Type
REMARK                         _______ _______ _______ _____ _____    ______ ____
ROOT
ATOM      1  N   UNL     1      33.674 -14.392 -22.951  0.00  0.00    -0.344 NA
ATOM      2  N   UNL     1      32.919 -13.474 -25.046  0.00  0.00    -0.329 NA
ATOM      3  N   UNL     1      33.109 -14.735 -27.044  0.00  0.00    -0.335 N 
ATOM      4  C   UNL     1      33.874 -15.682 -24.973  0.00  0.00    +0.099 C 
ATOM      5  C   UNL     1      34.033 -15.507 -23.616  0.00  0.00    +0.128 C 
ATOM      6  C   UNL     1      33.130 -13.428 -23.718  0.00  0.00    +0.139 C 
ATOM      7  C   UNL     1      33.304 -14.619 -25.645  0.00  0.00    +0.170 C 
ATOM      8  H   UNL     1      32.706 -13.992 -27.548  0.00  0.00    +0.144 HD
ATOM      9  H   UNL     1      33.378 -15.558 -27.512  0.00  0.00    +0.144 HD
ENDROOT
BRANCH   5  12
ATOM     10 CL   UNL     1      32.601 -16.146 -20.961  0.00  0.00    -0.082 Cl
ATOM     11 CL   UNL     1      36.533 -19.741 -20.246  0.00  0.00    -0.082 Cl
ATOM     12  C   UNL     1      34.616 -16.533 -22.772  0.00  0.00    +0.037 C 
ATOM     13  C   UNL     1      34.044 -16.895 -21.552  0.00  0.00    +0.061 C 
ATOM     14  C   UNL     1      35.780 -17.163 -23.211  0.00  0.00    +0.004 C 
ATOM     15  C   UNL     1      34.636 -17.886 -20.771  0.00  0.00    +0.023 C 
ATOM     16  C   UNL     1      36.372 -18.155 -22.429  0.00  0.00    +0.012 C 
ATOM     17  C   UNL     1      35.801 -18.517 -21.210  0.00  0.00    +0.059 C 
ENDBRANCH   5  12
BRANCH   6  18
ATOM     18  C   UNL     1      32.733 -12.219 -23.045  0.00  0.00    +0.092 C 
ATOM     19  C   UNL     1      33.151 -10.974 -23.526  0.00  0.00    +0.049 C 
ATOM     20  C   UNL     1      31.924 -12.279 -21.905  0.00  0.00    +0.049 C 
ATOM     21  C   UNL     1      31.539 -11.108 -21.254  0.00  0.00    +0.142 C 
ATOM     22  C   UNL     1      32.766  -9.803 -22.875  0.00  0.00    +0.142 C 
ATOM     23  C   UNL     1      31.959  -9.870 -21.739  0.00  0.00    +0.074 C 
BRANCH  21  24
ATOM     24  O   UNL     1      30.752 -11.173 -20.146  0.00  0.00    -0.471 OA
ATOM     25  C   UNL     1      31.352 -10.775 -18.919  0.00  0.00    +0.252 C 
ENDBRANCH  21  24
BRANCH  22  26
ATOM     26  O   UNL     1      33.174  -8.594 -23.349  0.00  0.00    -0.471 OA
ATOM     27  C   UNL     1      34.513  -8.520 -23.825  0.00  0.00    +0.252 C 
ENDBRANCH  22  26
ENDBRANCH   6  18
BRANCH   4  28
ATOM     28  C   UNL     1      34.285 -16.933 -25.669  0.00  0.00    -0.070 C 
BRANCH  28  29
ATOM     29  N   UNL     1      33.307 -17.983 -25.534  0.00  0.00    +0.381 N 
ATOM     30  H   UNL     1      32.641 -17.928 -26.305  0.00  0.00    -0.089 HD
ATOM     31  H   UNL     1      32.812 -17.876 -24.648  0.00  0.00    -0.089 HD
ATOM     32  H   UNL     1      33.775 -18.888 -25.554  0.00  0.00    -0.089 HD
ENDBRANCH  28  29
ENDBRANCH   4  28
TORSDOF 6
ENDMDL
MODEL 8
REMARK VINA RESULT:      -8.0      4.297      8.424
REMARK  Name = 448436
REMARK  6 active torsions:
REMARK  status: ('A' for Active; 'I' for Inactive)
REMARK    1  A    between atoms: C_4  and  C_28
REMARK    2  A    between atoms: C_5  and  C_12
REMARK    3  A    between atoms: C_6  and  C_18
REMARK    4  A    between atoms: C_21  and  O_24
REMARK    5  A    between atoms: C_22  and  O_26
REMARK    6  A    between atoms: C_28  and  N_29
REMARK                            x       y       z     vdW  Elec       q    Type
REMARK                         _______ _______ _______ _____ _____    ______ ____
ROOT
ATOM      1  N   UNL     1      33.658 -14.384 -22.942  0.00  0.00    -0.344 NA
ATOM      2  N   UNL     1      32.935 -13.450 -25.042  0.00  0.00    -0.329 NA
ATOM      3  N   UNL     1      33.145 -14.700 -27.044  0.00  0.00    -0.335 N 
ATOM      4  C   UNL     1      33.879 -15.663 -24.970  0.00  0.00    +0.099 C 
ATOM      5  C   UNL     1      34.021 -15.497 -23.610  0.00  0.00    +0.128 C 
ATOM      6  C   UNL     1      33.129 -13.413 -23.710  0.00  0.00    +0.139 C 
ATOM      7  C   UNL     1      33.322 -14.593 -25.643  0.00  0.00    +0.170 C 
ATOM      8  H   UNL     1      32.751 -13.952 -27.549  0.00  0.00    +0.144 HD
ATOM      9  H   UNL     1      33.416 -15.521 -27.514  0.00  0.00    +0.144 HD
ENDROOT
BRANCH   5  12
ATOM     10 CL   UNL     1      32.578 -16.114 -20.955  0.00  0.00    -0.082 Cl
ATOM     11 CL   UNL     1      36.458 -19.764 -20.235  0.00  0.00    -0.082 Cl
ATOM     12  C   UNL     1      34.589 -16.531 -22.765  0.00  0.00    +0.037 C 
ATOM     13  C   UNL     1      34.010 -16.884 -21.545  0.00  0.00    +0.061 C 
ATOM     14  C   UNL     1      35.744 -17.177 -23.202  0.00  0.00    +0.004 C 
ATOM     15  C   UNL     1      34.588 -17.883 -20.763  0.00  0.00    +0.023 C 
ATOM     16  C   UNL     1      36.322 -18.177 -22.419  0.00  0.00    +0.012 C 
ATOM     17  C   UNL     1      35.744 -18.530 -21.201  0.00  0.00    +0.059 C 
ENDBRANCH   5  12
BRANCH   6  18
ATOM     18  C   UNL     1      32.728 -12.206 -23.035  0.00  0.00    +0.092 C 
ATOM     19  C   UNL     1      31.926 -12.271 -21.891  0.00  0.00    +0.049 C 
ATOM     20  C   UNL     1      33.138 -10.959 -23.517  0.00  0.00    +0.049 C 
ATOM     21  C   UNL     1      32.751  -9.791 -22.863  0.00  0.00    +0.142 C 
ATOM     22  C   UNL     1      31.537 -11.103 -21.237  0.00  0.00    +0.142 C 
ATOM     23  C   UNL     1      31.950  -9.862 -21.723  0.00  0.00    +0.074 C 
BRANCH  21  24
ATOM     24  O   UNL     1      33.154  -8.580 -23.336  0.00  0.00    -0.471 OA
ATOM     25  C   UNL     1      34.500  -8.492 -23.789  0.00  0.00    +0.252 C 
ENDBRANCH  21  24
BRANCH  22  26
ATOM     26  O   UNL     1      30.758 -11.172 -20.124  0.00  0.00    -0.471 OA
ATOM     27  C   UNL     1      31.365 -10.775 -18.900  0.00  0.00    +0.252 C 
ENDBRANCH  22  26
ENDBRANCH   6  18
BRANCH   4  28
ATOM     28  C   UNL     1      34.294 -16.911 -25.668  0.00  0.00    -0.070 C 
BRANCH  28  29
ATOM     29  N   UNL     1      33.308 -17.957 -25.554  0.00  0.00    +0.381 N 
ATOM     30  H   UNL     1      33.581 -18.602 -24.812  0.00  0.00    -0.089 HD
ATOM     31  H   UNL     1      33.244 -18.463 -26.437  0.00  0.00    -0.089 HD
ATOM     32  H   UNL     1      32.402 -17.547 -25.330  0.00  0.00    -0.089 HD
ENDBRANCH  28  29
ENDBRANCH   4  28
TORSDOF 6
ENDMDL
MODEL 9
REMARK VINA RESULT:      -7.9     12.302     15.596
REMARK  Name = 448436
REMARK  6 active torsions:
REMARK  status: ('A' for Active; 'I' for Inactive)
REMARK    1  A    between atoms: C_4  and  C_28
REMARK    2  A    between atoms: C_5  and  C_12
REMARK    3  A    between atoms: C_6  and  C_18
REMARK    4  A    between atoms: C_21  and  O_24
REMARK    5  A    between atoms: C_22  and  O_26
REMARK    6  A    between atoms: C_28  and  N_29
REMARK                            x       y       z     vdW  Elec       q    Type
REMARK                         _______ _______ _______ _____ _____    ______ ____
ROOT
ATOM      1  N   UNL     1      35.175 -23.515 -16.100  0.00  0.00    -0.344 NA
ATOM      2  N   UNL     1      33.739 -24.609 -14.505  0.00  0.00    -0.329 NA
ATOM      3  N   UNL     1      31.384 -24.530 -14.764  0.00  0.00    -0.335 N 
ATOM      4  C   UNL     1      32.785 -23.427 -16.372  0.00  0.00    +0.099 C 
ATOM      5  C   UNL     1      34.071 -23.124 -16.765  0.00  0.00    +0.128 C 
ATOM      6  C   UNL     1      34.939 -24.245 -14.994  0.00  0.00    +0.139 C 
ATOM      7  C   UNL     1      32.679 -24.181 -15.221  0.00  0.00    +0.170 C 
ATOM      8  H   UNL     1      31.279 -25.067 -13.946  0.00  0.00    +0.144 HD
ATOM      9  H   UNL     1      30.589 -24.235 -15.264  0.00  0.00    +0.144 HD
ENDROOT
BRANCH   5  12
ATOM     10 CL   UNL     1      36.975 -22.187 -17.207  0.00  0.00    -0.082 Cl
ATOM     11 CL   UNL     1      35.065 -19.911 -21.687  0.00  0.00    -0.082 Cl
ATOM     12  C   UNL     1      34.347 -22.339 -17.954  0.00  0.00    +0.037 C 
ATOM     13  C   UNL     1      35.628 -21.869 -18.244  0.00  0.00    +0.061 C 
ATOM     14  C   UNL     1      33.289 -22.060 -18.818  0.00  0.00    +0.004 C 
ATOM     15  C   UNL     1      35.850 -21.118 -19.397  0.00  0.00    +0.023 C 
ATOM     16  C   UNL     1      33.511 -21.309 -19.972  0.00  0.00    +0.012 C 
ATOM     17  C   UNL     1      34.791 -20.838 -20.262  0.00  0.00    +0.059 C 
ENDBRANCH   5  12
BRANCH   6  18
ATOM     18  C   UNL     1      36.093 -24.683 -14.254  0.00  0.00    +0.092 C 
ATOM     19  C   UNL     1      37.088 -25.440 -14.881  0.00  0.00    +0.049 C 
ATOM     20  C   UNL     1      36.231 -24.354 -12.901  0.00  0.00    +0.049 C 
ATOM     21  C   UNL     1      37.349 -24.777 -12.185  0.00  0.00    +0.142 C 
ATOM     22  C   UNL     1      38.207 -25.864 -14.165  0.00  0.00    +0.142 C 
ATOM     23  C   UNL     1      38.337 -25.532 -12.816  0.00  0.00    +0.074 C 
BRANCH  21  24
ATOM     24  O   UNL     1      37.477 -24.454 -10.869  0.00  0.00    -0.471 OA
ATOM     25  C   UNL     1      36.413 -23.704 -10.294  0.00  0.00    +0.252 C 
ENDBRANCH  21  24
BRANCH  22  26
ATOM     26  O   UNL     1      39.172 -26.599 -14.781  0.00  0.00    -0.471 OA
ATOM     27  C   UNL     1      40.503 -26.104 -14.685  0.00  0.00    +0.252 C 
ENDBRANCH  22  26
ENDBRANCH   6  18
BRANCH   4  28
ATOM     28  C   UNL     1      31.591 -22.973 -17.139  0.00  0.00    -0.070 C 
BRANCH  28  29
ATOM     29  N   UNL     1      30.575 -22.409 -16.287  0.00  0.00    +0.381 N 
ATOM     30  H   UNL     1      29.653 -22.681 -16.631  0.00  0.00    -0.089 HD
ATOM     31  H   UNL     1      30.652 -21.392 -16.292  0.00  0.00    -0.089 HD
ATOM     32  H   UNL     1      30.698 -22.754 -15.336  0.00  0.00    -0.089 HD
ENDBRANCH  28  29
ENDBRANCH   4  28
TORSDOF 6
ENDMDL
