MODEL 1
REMARK VINA RESULT:     -10.9      0.000      0.000
REMARK  Name = 46937132
REMARK  4 active torsions:
REMARK  status: ('A' for Active; 'I' for Inactive)
REMARK    1  A    between atoms: N_2  and  C_9
REMARK    2  A    between atoms: N_2  and  O_29
REMARK    3  A    between atoms: C_5  and  C_17
REMARK    4  A    between atoms: C_18  and  C_24
REMARK                            x       y       z     vdW  Elec       q    Type
REMARK                         _______ _______ _______ _____ _____    ______ ____
ROOT
ATOM      1  N   UNL     1      34.842 -16.354 -21.501  0.00  0.00    -0.333 NA
ATOM      2  N   UNL     1      35.332 -18.120 -23.058  0.00  0.00    -0.333 NA
ATOM      3  N   UNL     1      36.045 -18.251 -20.829  0.00  0.00    -0.283 N 
ATOM      4  C   UNL     1      33.498 -13.415 -23.306  0.00  0.00    +0.035 C 
ATOM      5  C   UNL     1      33.593 -14.362 -22.101  0.00  0.00    +0.065 C 
ATOM      6  C   UNL     1      32.728 -14.102 -24.438  0.00  0.00    +0.053 C 
ATOM      7  C   UNL     1      34.208 -15.680 -22.489  0.00  0.00    +0.126 C 
ATOM      8  C   UNL     1      33.378 -15.416 -24.831  0.00  0.00    +0.090 C 
ATOM      9  C   UNL     1      34.092 -16.183 -23.781  0.00  0.00    +0.068 C 
ATOM     10  C   UNL     1      34.681 -17.416 -24.008  0.00  0.00    +0.126 C 
ATOM     11  C   UNL     1      35.372 -17.540 -21.846  0.00  0.00    +0.195 C 
ATOM     12  C   UNL     1      34.647 -18.107 -25.333  0.00  0.00    +0.068 C 
ATOM     13  H   UNL     1      36.105 -17.873 -19.922  0.00  0.00    +0.156 HD
ATOM     14  H   UNL     1      36.453 -19.125 -21.026  0.00  0.00    +0.156 HD
ENDROOT
BRANCH   4  16
ATOM     15  F   UNL     1      31.168  -8.491 -21.823  0.00  0.00    -0.204 F 
ATOM     16  C   UNL     1      32.887 -12.080 -22.929  0.00  0.00    -0.022 C 
ATOM     17  C   UNL     1      33.138 -10.927 -23.673  0.00  0.00    -0.000 C 
ATOM     18  C   UNL     1      32.056 -12.019 -21.810  0.00  0.00    -0.002 C 
ATOM     19  C   UNL     1      32.557  -9.715 -23.300  0.00  0.00    +0.029 C 
ATOM     20  C   UNL     1      31.476 -10.808 -21.436  0.00  0.00    +0.029 C 
ATOM     21  C   UNL     1      31.727  -9.655 -22.181  0.00  0.00    +0.140 C 
BRANCH  17  23
ATOM     22  N   UNL     1      34.462 -11.859 -27.036  0.00  0.00    -0.242 NA
ATOM     23  C   UNL     1      33.998 -10.962 -24.839  0.00  0.00    +0.019 C 
ATOM     24  C   UNL     1      35.146 -10.181 -24.908  0.00  0.00    +0.003 C 
ATOM     25  C   UNL     1      33.703 -11.777 -25.920  0.00  0.00    +0.099 C 
ATOM     26  C   UNL     1      35.952 -10.236 -26.040  0.00  0.00    +0.021 C 
ATOM     27  C   UNL     1      35.570 -11.084 -27.067  0.00  0.00    +0.099 C 
ENDBRANCH  17  23
ENDBRANCH   4  16
BRANCH   8  28
ATOM     28  N   UNL     1      33.244 -15.805 -26.058  0.00  0.00    -0.139 NA
BRANCH  28  29
ATOM     29  O   UNL     1      33.820 -14.842 -26.886  0.00  0.00    -0.266 OA
ATOM     30  H   UNL     1      33.457 -13.980 -26.924  0.00  0.00    +0.247 HD
ENDBRANCH  28  29
ENDBRANCH   8  28
TORSDOF 4
ENDMDL
MODEL 2
REMARK VINA RESULT:      -9.4     10.863     14.168
REMARK  Name = 46937132
REMARK  4 active torsions:
REMARK  status: ('A' for Active; 'I' for Inactive)
REMARK    1  A    between atoms: N_2  and  C_9
REMARK    2  A    between atoms: N_2  and  O_29
REMARK    3  A    between atoms: C_5  and  C_17
REMARK    4  A    between atoms: C_18  and  C_24
REMARK                            x       y       z     vdW  Elec       q    Type
REMARK                         _______ _______ _______ _____ _____    ______ ____
ROOT
ATOM      1  N   UNL     1      37.423 -23.343 -12.427  0.00  0.00    -0.333 NA
ATOM      2  N   UNL     1      39.513 -24.431 -12.908  0.00  0.00    -0.333 NA
ATOM      3  N   UNL     1      39.394 -22.707 -11.326  0.00  0.00    -0.283 N 
ATOM      4  C   UNL     1      34.871 -24.353 -14.909  0.00  0.00    +0.035 C 
ATOM      5  C   UNL     1      35.334 -23.942 -13.504  0.00  0.00    +0.065 C 
ATOM      6  C   UNL     1      35.297 -25.797 -15.186  0.00  0.00    +0.053 C 
ATOM      7  C   UNL     1      36.817 -24.139 -13.338  0.00  0.00    +0.126 C 
ATOM      8  C   UNL     1      36.798 -25.970 -15.039  0.00  0.00    +0.090 C 
ATOM      9  C   UNL     1      37.506 -25.110 -14.058  0.00  0.00    +0.068 C 
ATOM     10  C   UNL     1      38.863 -25.209 -13.800  0.00  0.00    +0.126 C 
ATOM     11  C   UNL     1      38.745 -23.536 -12.266  0.00  0.00    +0.195 C 
ATOM     12  C   UNL     1      39.753 -26.201 -14.477  0.00  0.00    +0.068 C 
ATOM     13  H   UNL     1      38.879 -22.032 -10.827  0.00  0.00    +0.156 HD
ATOM     14  H   UNL     1      40.361 -22.804 -11.169  0.00  0.00    +0.156 HD
ENDROOT
BRANCH   4  16
ATOM     15  F   UNL     1      29.298 -23.672 -15.508  0.00  0.00    -0.204 F 
ATOM     16  C   UNL     1      33.379 -24.154 -15.094  0.00  0.00    -0.022 C 
ATOM     17  C   UNL     1      32.866 -23.459 -16.189  0.00  0.00    -0.000 C 
ATOM     18  C   UNL     1      32.513 -24.685 -14.138  0.00  0.00    -0.002 C 
ATOM     19  C   UNL     1      31.487 -23.297 -16.329  0.00  0.00    +0.029 C 
ATOM     20  C   UNL     1      31.135 -24.522 -14.277  0.00  0.00    +0.029 C 
ATOM     21  C   UNL     1      30.622 -23.827 -15.373  0.00  0.00    +0.140 C 
BRANCH  17  23
ATOM     22  N   UNL     1      35.956 -22.143 -17.817  0.00  0.00    -0.242 NA
ATOM     23  C   UNL     1      33.744 -22.897 -17.195  0.00  0.00    +0.019 C 
ATOM     24  C   UNL     1      33.270 -22.572 -18.461  0.00  0.00    +0.003 C 
ATOM     25  C   UNL     1      35.083 -22.665 -16.926  0.00  0.00    +0.099 C 
ATOM     26  C   UNL     1      34.136 -22.034 -19.406  0.00  0.00    +0.021 C 
ATOM     27  C   UNL     1      35.458 -21.840 -19.037  0.00  0.00    +0.099 C 
ENDBRANCH  17  23
ENDBRANCH   4  16
BRANCH   8  28
ATOM     28  N   UNL     1      37.369 -26.879 -15.760  0.00  0.00    -0.139 NA
BRANCH  28  29
ATOM     29  O   UNL     1      36.415 -27.413 -16.625  0.00  0.00    -0.266 OA
ATOM     30  H   UNL     1      35.503 -27.315 -16.435  0.00  0.00    +0.247 HD
ENDBRANCH  28  29
ENDBRANCH   8  28
TORSDOF 4
ENDMDL
MODEL 3
REMARK VINA RESULT:      -9.1      9.404     13.578
REMARK  Name = 46937132
REMARK  4 active torsions:
REMARK  status: ('A' for Active; 'I' for Inactive)
REMARK    1  A    between atoms: N_2  and  C_9
REMARK    2  A    between atoms: N_2  and  O_29
REMARK    3  A    between atoms: C_5  and  C_17
REMARK    4  A    between atoms: C_18  and  C_24
REMARK                            x       y       z     vdW  Elec       q    Type
REMARK                         _______ _______ _______ _____ _____    ______ ____
ROOT
ATOM      1  N   UNL     1      36.713 -20.806 -18.959  0.00  0.00    -0.333 NA
ATOM      2  N   UNL     1      34.967 -20.112 -20.460  0.00  0.00    -0.333 NA
ATOM      3  N   UNL     1      37.123 -19.209 -20.626  0.00  0.00    -0.283 N 
ATOM      4  C   UNL     1      35.284 -22.834 -16.212  0.00  0.00    +0.035 C 
ATOM      5  C   UNL     1      36.385 -22.461 -17.215  0.00  0.00    +0.065 C 
ATOM      6  C   UNL     1      34.143 -23.546 -16.945  0.00  0.00    +0.053 C 
ATOM      7  C   UNL     1      35.835 -21.636 -18.348  0.00  0.00    +0.126 C 
ATOM      8  C   UNL     1      33.586 -22.689 -18.068  0.00  0.00    +0.090 C 
ATOM      9  C   UNL     1      34.511 -21.757 -18.758  0.00  0.00    +0.068 C 
ATOM     10  C   UNL     1      34.131 -20.961 -19.826  0.00  0.00    +0.126 C 
ATOM     11  C   UNL     1      36.223 -20.086 -19.984  0.00  0.00    +0.195 C 
ATOM     12  C   UNL     1      32.751 -20.968 -20.401  0.00  0.00    +0.068 C 
ATOM     13  H   UNL     1      38.057 -19.149 -20.317  0.00  0.00    +0.156 HD
ATOM     14  H   UNL     1      36.819 -18.657 -21.381  0.00  0.00    +0.156 HD
ENDROOT
BRANCH   4  16
ATOM     15  F   UNL     1      37.393 -25.900 -11.967  0.00  0.00    -0.204 F 
ATOM     16  C   UNL     1      35.824 -23.660 -15.061  0.00  0.00    -0.022 C 
ATOM     17  C   UNL     1      34.980 -24.190 -14.085  0.00  0.00    -0.000 C 
ATOM     18  C   UNL     1      37.199 -23.886 -14.990  0.00  0.00    -0.002 C 
ATOM     19  C   UNL     1      35.510 -24.947 -13.040  0.00  0.00    +0.029 C 
ATOM     20  C   UNL     1      37.730 -24.641 -13.945  0.00  0.00    +0.029 C 
ATOM     21  C   UNL     1      36.884 -25.172 -12.970  0.00  0.00    +0.140 C 
BRANCH  17  23
ATOM     22  N   UNL     1      31.699 -22.412 -14.180  0.00  0.00    -0.242 NA
ATOM     23  C   UNL     1      33.548 -23.970 -14.135  0.00  0.00    +0.019 C 
ATOM     24  C   UNL     1      32.659 -25.038 -14.183  0.00  0.00    +0.003 C 
ATOM     25  C   UNL     1      33.022 -22.688 -14.135  0.00  0.00    +0.099 C 
ATOM     26  C   UNL     1      31.291 -24.795 -14.231  0.00  0.00    +0.021 C 
ATOM     27  C   UNL     1      30.866 -23.476 -14.226  0.00  0.00    +0.099 C 
ENDBRANCH  17  23
ENDBRANCH   4  16
BRANCH   8  28
ATOM     28  N   UNL     1      32.339 -22.843 -18.375  0.00  0.00    -0.139 NA
BRANCH  28  29
ATOM     29  O   UNL     1      31.569 -22.466 -17.276  0.00  0.00    -0.266 OA
ATOM     30  H   UNL     1      31.984 -22.138 -16.503  0.00  0.00    +0.247 HD
ENDBRANCH  28  29
ENDBRANCH   8  28
TORSDOF 4
ENDMDL
MODEL 4
REMARK VINA RESULT:      -9.0     11.171     14.096
REMARK  Name = 46937132
REMARK  4 active torsions:
REMARK  status: ('A' for Active; 'I' for Inactive)
REMARK    1  A    between atoms: N_2  and  C_9
REMARK    2  A    between atoms: N_2  and  O_29
REMARK    3  A    between atoms: C_5  and  C_17
REMARK    4  A    between atoms: C_18  and  C_24
REMARK                            x       y       z     vdW  Elec       q    Type
REMARK                         _______ _______ _______ _____ _____    ______ ____
ROOT
ATOM      1  N   UNL     1      37.945 -24.921 -14.602  0.00  0.00    -0.333 NA
ATOM      2  N   UNL     1      37.706 -25.565 -12.298  0.00  0.00    -0.333 NA
ATOM      3  N   UNL     1      39.616 -26.159 -13.518  0.00  0.00    -0.283 N 
ATOM      4  C   UNL     1      34.745 -23.565 -15.874  0.00  0.00    +0.035 C 
ATOM      5  C   UNL     1      36.277 -23.630 -15.801  0.00  0.00    +0.065 C 
ATOM      6  C   UNL     1      34.201 -22.886 -14.613  0.00  0.00    +0.053 C 
ATOM      7  C   UNL     1      36.735 -24.316 -14.542  0.00  0.00    +0.126 C 
ATOM      8  C   UNL     1      34.653 -23.607 -13.357  0.00  0.00    +0.090 C 
ATOM      9  C   UNL     1      35.969 -24.292 -13.381  0.00  0.00    +0.068 C 
ATOM     10  C   UNL     1      36.509 -24.941 -12.284  0.00  0.00    +0.126 C 
ATOM     11  C   UNL     1      38.360 -25.516 -13.469  0.00  0.00    +0.195 C 
ATOM     12  C   UNL     1      35.826 -25.006 -10.955  0.00  0.00    +0.068 C 
ATOM     13  H   UNL     1      40.139 -26.154 -14.353  0.00  0.00    +0.156 HD
ATOM     14  H   UNL     1      39.969 -26.611 -12.718  0.00  0.00    +0.156 HD
ENDROOT
BRANCH   4  16
ATOM     15  F   UNL     1      33.070 -20.999 -20.616  0.00  0.00    -0.204 F 
ATOM     16  C   UNL     1      34.267 -22.881 -17.140  0.00  0.00    -0.022 C 
ATOM     17  C   UNL     1      32.909 -22.745 -17.428  0.00  0.00    -0.000 C 
ATOM     18  C   UNL     1      35.221 -22.382 -18.028  0.00  0.00    -0.002 C 
ATOM     19  C   UNL     1      32.505 -22.109 -18.602  0.00  0.00    +0.029 C 
ATOM     20  C   UNL     1      34.817 -21.747 -19.202  0.00  0.00    +0.029 C 
ATOM     21  C   UNL     1      33.458 -21.611 -19.489  0.00  0.00    +0.140 C 
BRANCH  17  23
ATOM     22  N   UNL     1      31.124 -25.042 -15.090  0.00  0.00    -0.242 NA
ATOM     23  C   UNL     1      31.899 -23.256 -16.523  0.00  0.00    +0.019 C 
ATOM     24  C   UNL     1      30.769 -22.507 -16.213  0.00  0.00    +0.003 C 
ATOM     25  C   UNL     1      32.027 -24.506 -15.941  0.00  0.00    +0.099 C 
ATOM     26  C   UNL     1      29.816 -23.023 -15.341  0.00  0.00    +0.021 C 
ATOM     27  C   UNL     1      30.039 -24.285 -14.812  0.00  0.00    +0.099 C 
ENDBRANCH  17  23
ENDBRANCH   4  16
BRANCH   8  28
ATOM     28  N   UNL     1      33.874 -23.557 -12.325  0.00  0.00    -0.139 NA
BRANCH  28  29
ATOM     29  O   UNL     1      32.609 -23.156 -12.754  0.00  0.00    -0.266 OA
ATOM     30  H   UNL     1      32.069 -23.748 -13.240  0.00  0.00    +0.247 HD
ENDBRANCH  28  29
ENDBRANCH   8  28
TORSDOF 4
ENDMDL
MODEL 5
REMARK VINA RESULT:      -8.6      4.040      6.206
REMARK  Name = 46937132
REMARK  4 active torsions:
REMARK  status: ('A' for Active; 'I' for Inactive)
REMARK    1  A    between atoms: N_2  and  C_9
REMARK    2  A    between atoms: N_2  and  O_29
REMARK    3  A    between atoms: C_5  and  C_17
REMARK    4  A    between atoms: C_18  and  C_24
REMARK                            x       y       z     vdW  Elec       q    Type
REMARK                         _______ _______ _______ _____ _____    ______ ____
ROOT
ATOM      1  N   UNL     1      33.155 -20.569 -20.617  0.00  0.00    -0.333 NA
ATOM      2  N   UNL     1      34.748 -21.482 -19.065  0.00  0.00    -0.333 NA
ATOM      3  N   UNL     1      32.483 -22.069 -18.944  0.00  0.00    -0.283 N 
ATOM      4  C   UNL     1      34.711 -17.832 -22.562  0.00  0.00    +0.035 C 
ATOM      5  C   UNL     1      33.759 -19.024 -22.387  0.00  0.00    +0.065 C 
ATOM      6  C   UNL     1      36.153 -18.339 -22.666  0.00  0.00    +0.053 C 
ATOM      7  C   UNL     1      34.152 -19.868 -21.204  0.00  0.00    +0.126 C 
ATOM      8  C   UNL     1      36.538 -19.166 -21.453  0.00  0.00    +0.090 C 
ATOM      9  C   UNL     1      35.473 -19.944 -20.773  0.00  0.00    +0.068 C 
ATOM     10  C   UNL     1      35.711 -20.771 -19.688  0.00  0.00    +0.126 C 
ATOM     11  C   UNL     1      33.513 -21.338 -19.574  0.00  0.00    +0.195 C 
ATOM     12  C   UNL     1      37.070 -20.976 -19.099  0.00  0.00    +0.068 C 
ATOM     13  H   UNL     1      31.558 -22.001 -19.276  0.00  0.00    +0.156 HD
ATOM     14  H   UNL     1      32.688 -22.647 -18.175  0.00  0.00    +0.156 HD
ENDROOT
BRANCH   4  16
ATOM     15  F   UNL     1      33.309 -14.691 -27.039  0.00  0.00    -0.204 F 
ATOM     16  C   UNL     1      34.324 -16.968 -23.746  0.00  0.00    -0.022 C 
ATOM     17  C   UNL     1      33.762 -15.703 -23.574  0.00  0.00    -0.000 C 
ATOM     18  C   UNL     1      34.541 -17.464 -25.032  0.00  0.00    -0.002 C 
ATOM     19  C   UNL     1      33.420 -14.934 -24.686  0.00  0.00    +0.029 C 
ATOM     20  C   UNL     1      34.198 -16.696 -26.144  0.00  0.00    +0.029 C 
ATOM     21  C   UNL     1      33.637 -15.430 -25.971  0.00  0.00    +0.140 C 
BRANCH  17  23
ATOM     22  N   UNL     1      32.174 -13.788 -20.791  0.00  0.00    -0.242 NA
ATOM     23  C   UNL     1      33.525 -15.165 -22.249  0.00  0.00    +0.019 C 
ATOM     24  C   UNL     1      34.368 -15.475 -21.187  0.00  0.00    +0.003 C 
ATOM     25  C   UNL     1      32.453 -14.324 -22.001  0.00  0.00    +0.099 C 
ATOM     26  C   UNL     1      34.115 -14.944 -19.927  0.00  0.00    +0.021 C 
ATOM     27  C   UNL     1      33.016 -14.113 -19.784  0.00  0.00    +0.099 C 
ENDBRANCH  17  23
ENDBRANCH   4  16
BRANCH   8  28
ATOM     28  N   UNL     1      37.783 -19.167 -21.101  0.00  0.00    -0.139 NA
BRANCH  28  29
ATOM     29  O   UNL     1      38.527 -18.591 -22.130  0.00  0.00    -0.266 OA
ATOM     30  H   UNL     1      39.268 -18.055 -21.928  0.00  0.00    +0.247 HD
ENDBRANCH  28  29
ENDBRANCH   8  28
TORSDOF 4
ENDMDL
MODEL 6
REMARK VINA RESULT:      -8.3      3.508      6.872
REMARK  Name = 46937132
REMARK  4 active torsions:
REMARK  status: ('A' for Active; 'I' for Inactive)
REMARK    1  A    between atoms: N_2  and  C_9
REMARK    2  A    between atoms: N_2  and  O_29
REMARK    3  A    between atoms: C_5  and  C_17
REMARK    4  A    between atoms: C_18  and  C_24
REMARK                            x       y       z     vdW  Elec       q    Type
REMARK                         _______ _______ _______ _____ _____    ______ ____
ROOT
ATOM      1  N   UNL     1      31.194  -7.926 -22.443  0.00  0.00    -0.333 NA
ATOM      2  N   UNL     1      32.229  -6.236 -23.806  0.00  0.00    -0.333 NA
ATOM      3  N   UNL     1      30.265  -5.779 -22.611  0.00  0.00    -0.283 N 
ATOM      4  C   UNL     1      32.765 -11.212 -23.097  0.00  0.00    +0.035 C 
ATOM      5  C   UNL     1      32.091 -10.167 -22.198  0.00  0.00    +0.065 C 
ATOM      6  C   UNL     1      34.209 -10.788 -23.382  0.00  0.00    +0.053 C 
ATOM      7  C   UNL     1      32.170  -8.792 -22.804  0.00  0.00    +0.126 C 
ATOM      8  C   UNL     1      34.267  -9.410 -24.015  0.00  0.00    +0.090 C 
ATOM      9  C   UNL     1      33.211  -8.432 -23.655  0.00  0.00    +0.068 C 
ATOM     10  C   UNL     1      33.185  -7.131 -24.130  0.00  0.00    +0.126 C 
ATOM     11  C   UNL     1      31.280  -6.692 -22.971  0.00  0.00    +0.195 C 
ATOM     12  C   UNL     1      34.227  -6.575 -25.046  0.00  0.00    +0.068 C 
ATOM     13  H   UNL     1      29.544  -6.061 -22.001  0.00  0.00    +0.156 HD
ATOM     14  H   UNL     1      30.278  -4.863 -22.968  0.00  0.00    +0.156 HD
ENDROOT
BRANCH   4  16
ATOM     15  F   UNL     1      32.463 -16.354 -20.786  0.00  0.00    -0.204 F 
ATOM     16  C   UNL     1      32.688 -12.605 -22.503  0.00  0.00    -0.022 C 
ATOM     17  C   UNL     1      32.850 -13.745 -23.291  0.00  0.00    -0.000 C 
ATOM     18  C   UNL     1      32.447 -12.733 -21.135  0.00  0.00    -0.002 C 
ATOM     19  C   UNL     1      32.775 -15.011 -22.711  0.00  0.00    +0.029 C 
ATOM     20  C   UNL     1      32.370 -13.999 -20.555  0.00  0.00    +0.029 C 
ATOM     21  C   UNL     1      32.534 -15.138 -21.344  0.00  0.00    +0.140 C 
BRANCH  17  23
ATOM     22  N   UNL     1      33.467 -14.744 -26.834  0.00  0.00    -0.242 NA
ATOM     23  C   UNL     1      33.100 -13.639 -24.715  0.00  0.00    +0.019 C 
ATOM     24  C   UNL     1      33.215 -12.399 -25.333  0.00  0.00    +0.003 C 
ATOM     25  C   UNL     1      33.233 -14.771 -25.503  0.00  0.00    +0.099 C 
ATOM     26  C   UNL     1      33.455 -12.329 -26.701  0.00  0.00    +0.021 C 
ATOM     27  C   UNL     1      33.573 -13.520 -27.400  0.00  0.00    +0.099 C 
ENDBRANCH  17  23
ENDBRANCH   4  16
BRANCH   8  28
ATOM     28  N   UNL     1      35.254  -9.159 -24.813  0.00  0.00    -0.139 NA
BRANCH  28  29
ATOM     29  O   UNL     1      35.857 -10.370 -25.154  0.00  0.00    -0.266 OA
ATOM     30  H   UNL     1      36.483 -10.760 -24.577  0.00  0.00    +0.247 HD
ENDBRANCH  28  29
ENDBRANCH   8  28
TORSDOF 4
ENDMDL
MODEL 7
REMARK VINA RESULT:      -8.3      3.593      7.393
REMARK  Name = 46937132
REMARK  4 active torsions:
REMARK  status: ('A' for Active; 'I' for Inactive)
REMARK    1  A    between atoms: N_2  and  C_9
REMARK    2  A    between atoms: N_2  and  O_29
REMARK    3  A    between atoms: C_5  and  C_17
REMARK    4  A    between atoms: C_18  and  C_24
REMARK                            x       y       z     vdW  Elec       q    Type
REMARK                         _______ _______ _______ _____ _____    ______ ____
ROOT
ATOM      1  N   UNL     1      34.260  -8.850 -24.254  0.00  0.00    -0.333 NA
ATOM      2  N   UNL     1      33.524  -7.451 -22.441  0.00  0.00    -0.333 NA
ATOM      3  N   UNL     1      34.977  -6.623 -24.083  0.00  0.00    -0.283 N 
ATOM      4  C   UNL     1      33.298 -12.365 -23.609  0.00  0.00    +0.035 C 
ATOM      5  C   UNL     1      33.560 -11.157 -24.520  0.00  0.00    +0.065 C 
ATOM      6  C   UNL     1      31.973 -12.167 -22.866  0.00  0.00    +0.053 C 
ATOM      7  C   UNL     1      33.531  -9.869 -23.742  0.00  0.00    +0.126 C 
ATOM      8  C   UNL     1      31.973 -10.876 -22.068  0.00  0.00    +0.090 C 
ATOM      9  C   UNL     1      32.767  -9.735 -22.587  0.00  0.00    +0.068 C 
ATOM     10  C   UNL     1      32.805  -8.494 -21.974  0.00  0.00    +0.126 C 
ATOM     11  C   UNL     1      34.215  -7.694 -23.567  0.00  0.00    +0.195 C 
ATOM     12  C   UNL     1      32.039  -8.172 -20.731  0.00  0.00    +0.068 C 
ATOM     13  H   UNL     1      35.504  -6.746 -24.906  0.00  0.00    +0.156 HD
ATOM     14  H   UNL     1      34.981  -5.755 -23.620  0.00  0.00    +0.156 HD
ENDROOT
BRANCH   4  16
ATOM     15  F   UNL     1      33.404 -17.175 -26.561  0.00  0.00    -0.204 F 
ATOM     16  C   UNL     1      33.331 -13.671 -24.377  0.00  0.00    -0.022 C 
ATOM     17  C   UNL     1      33.475 -14.897 -23.726  0.00  0.00    -0.000 C 
ATOM     18  C   UNL     1      33.213 -13.630 -25.767  0.00  0.00    -0.002 C 
ATOM     19  C   UNL     1      33.499 -16.081 -24.464  0.00  0.00    +0.029 C 
ATOM     20  C   UNL     1      33.239 -14.813 -26.505  0.00  0.00    +0.029 C 
ATOM     21  C   UNL     1      33.382 -16.039 -25.853  0.00  0.00    +0.140 C 
BRANCH  17  23
ATOM     22  N   UNL     1      35.023 -14.912 -20.330  0.00  0.00    -0.242 NA
ATOM     23  C   UNL     1      33.600 -14.967 -22.284  0.00  0.00    +0.019 C 
ATOM     24  C   UNL     1      32.484 -15.150 -21.475  0.00  0.00    +0.003 C 
ATOM     25  C   UNL     1      34.835 -14.855 -21.668  0.00  0.00    +0.099 C 
ATOM     26  C   UNL     1      32.635 -15.214 -20.094  0.00  0.00    +0.021 C 
ATOM     27  C   UNL     1      33.914 -15.090 -19.576  0.00  0.00    +0.099 C 
ENDBRANCH  17  23
ENDBRANCH   4  16
BRANCH   8  28
ATOM     28  N   UNL     1      31.254 -10.838 -20.993  0.00  0.00    -0.139 NA
BRANCH  28  29
ATOM     29  O   UNL     1      31.718 -11.823 -20.123  0.00  0.00    -0.266 OA
ATOM     30  H   UNL     1      32.544 -12.237 -20.281  0.00  0.00    +0.247 HD
ENDBRANCH  28  29
ENDBRANCH   8  28
TORSDOF 4
ENDMDL
