MODEL 1
REMARK VINA RESULT:      -8.9      0.000      0.000
REMARK  Name = 3658
REMARK  9 active torsions:
REMARK  status: ('A' for Active; 'I' for Inactive)
REMARK    1  A    between atoms: N_1  and  C_9
REMARK    2  A    between atoms: N_2  and  C_23
REMARK    3  A    between atoms: C_9  and  C_11
REMARK    4  A    between atoms: C_9  and  C_17
REMARK    5  A    between atoms: C_23  and  C_24
REMARK    6  A    between atoms: C_24  and  O_25
REMARK    7  A    between atoms: O_25  and  C_26
REMARK    8  A    between atoms: C_26  and  C_27
REMARK    9  A    between atoms: C_27  and  O_28
REMARK                            x       y       z     vdW  Elec       q    Type
REMARK                         _______ _______ _______ _____ _____    ______ ____
ROOT
ATOM      1  N   UNL     1      34.713 -22.478 -17.263  0.00  0.00    +0.390 N 
ATOM      2  N   UNL     1      36.156 -21.383 -19.516  0.00  0.00    +0.386 N 
ATOM      3  C   UNL     1      36.180 -22.442 -17.283  0.00  0.00    -0.100 C 
ATOM      4  C   UNL     1      34.184 -22.579 -18.630  0.00  0.00    -0.100 C 
ATOM      5  C   UNL     1      36.685 -21.283 -18.150  0.00  0.00    -0.101 C 
ATOM      6  C   UNL     1      34.689 -21.421 -19.496  0.00  0.00    -0.101 C 
ATOM      7  H   UNL     1      34.375 -21.608 -16.851  0.00  0.00    -0.079 HD
ATOM      8  H   UNL     1      36.494 -22.252 -19.928  0.00  0.00    -0.080 HD
ENDROOT
BRANCH   1   9
ATOM      9  C   UNL     1      34.232 -23.584 -16.437  0.00  0.00    -0.012 C 
BRANCH   9  11
ATOM     10 CL   UNL     1      38.128 -25.083 -12.126  0.00  0.00    -0.082 Cl
ATOM     11  C   UNL     1      35.221 -23.964 -15.345  0.00  0.00    -0.038 C 
ATOM     12  C   UNL     1      35.606 -25.283 -15.223  0.00  0.00    -0.005 C 
ATOM     13  C   UNL     1      35.701 -22.978 -14.508  0.00  0.00    -0.005 C 
ATOM     14  C   UNL     1      36.511 -25.631 -14.221  0.00  0.00    +0.011 C 
ATOM     15  C   UNL     1      36.606 -23.326 -13.506  0.00  0.00    +0.011 C 
ATOM     16  C   UNL     1      37.012 -24.653 -13.362  0.00  0.00    +0.058 C 
ENDBRANCH   9  11
BRANCH   9  17
ATOM     17  C   UNL     1      32.840 -23.328 -15.878  0.00  0.00    -0.038 C 
ATOM     18  C   UNL     1      32.665 -23.305 -14.509  0.00  0.00    -0.006 C 
ATOM     19  C   UNL     1      31.795 -23.126 -16.756  0.00  0.00    -0.006 C 
ATOM     20  C   UNL     1      31.389 -23.069 -13.996  0.00  0.00    -0.000 C 
ATOM     21  C   UNL     1      30.519 -22.890 -16.243  0.00  0.00    -0.000 C 
ATOM     22  C   UNL     1      30.317 -22.862 -14.864  0.00  0.00    -0.000 C 
ENDBRANCH   9  17
ENDBRANCH   1   9
BRANCH   2  23
ATOM     23  C   UNL     1      36.636 -20.276 -20.341  0.00  0.00    -0.045 C 
BRANCH  23  24
ATOM     24  C   UNL     1      35.468 -19.494 -20.921  0.00  0.00    +0.120 C 
BRANCH  24  25
ATOM     25  O   UNL     1      35.600 -18.129 -20.545  0.00  0.00    -0.353 OA
BRANCH  25  26
ATOM     26  C   UNL     1      34.869 -17.276 -21.414  0.00  0.00    +0.174 C 
BRANCH  26  27
ATOM     27  C   UNL     1      35.284 -17.556 -22.846  0.00  0.00    +0.169 C 
BRANCH  27  28
ATOM     28  O   UNL     1      35.743 -16.348 -23.441  0.00  0.00    -0.379 OA
ATOM     29  H   UNL     1      36.154 -16.545 -24.297  0.00  0.00    +0.211 HD
ENDBRANCH  27  28
ENDBRANCH  26  27
ENDBRANCH  25  26
ENDBRANCH  24  25
ENDBRANCH  23  24
ENDBRANCH   2  23
TORSDOF 9
ENDMDL
MODEL 2
REMARK VINA RESULT:      -8.9      3.692      6.373
REMARK  Name = 3658
REMARK  9 active torsions:
REMARK  status: ('A' for Active; 'I' for Inactive)
REMARK    1  A    between atoms: N_1  and  C_9
REMARK    2  A    between atoms: N_2  and  C_23
REMARK    3  A    between atoms: C_9  and  C_11
REMARK    4  A    between atoms: C_9  and  C_17
REMARK    5  A    between atoms: C_23  and  C_24
REMARK    6  A    between atoms: C_24  and  O_25
REMARK    7  A    between atoms: O_25  and  C_26
REMARK    8  A    between atoms: C_26  and  C_27
REMARK    9  A    between atoms: C_27  and  O_28
REMARK                            x       y       z     vdW  Elec       q    Type
REMARK                         _______ _______ _______ _____ _____    ______ ____
ROOT
ATOM      1  N   UNL     1      33.099 -23.643 -15.722  0.00  0.00    +0.390 N 
ATOM      2  N   UNL     1      30.287 -23.859 -15.089  0.00  0.00    +0.386 N 
ATOM      3  C   UNL     1      32.647 -23.968 -14.365  0.00  0.00    -0.100 C 
ATOM      4  C   UNL     1      32.097 -22.822 -16.413  0.00  0.00    -0.100 C 
ATOM      5  C   UNL     1      31.289 -24.679 -14.397  0.00  0.00    -0.101 C 
ATOM      6  C   UNL     1      30.740 -23.533 -16.446  0.00  0.00    -0.101 C 
ATOM      7  H   UNL     1      33.214 -24.515 -16.241  0.00  0.00    -0.079 HD
ATOM      8  H   UNL     1      30.171 -22.988 -14.571  0.00  0.00    -0.080 HD
ENDROOT
BRANCH   1   9
ATOM      9  C   UNL     1      34.394 -22.965 -15.690  0.00  0.00    -0.012 C 
BRANCH   9  11
ATOM     10 CL   UNL     1      38.546 -26.097 -12.696  0.00  0.00    -0.082 Cl
ATOM     11  C   UNL     1      35.446 -23.760 -14.930  0.00  0.00    -0.038 C 
ATOM     12  C   UNL     1      36.107 -23.157 -13.879  0.00  0.00    -0.005 C 
ATOM     13  C   UNL     1      35.707 -25.058 -15.315  0.00  0.00    -0.005 C 
ATOM     14  C   UNL     1      37.072 -23.885 -13.185  0.00  0.00    +0.011 C 
ATOM     15  C   UNL     1      36.672 -25.786 -14.620  0.00  0.00    +0.011 C 
ATOM     16  C   UNL     1      37.355 -25.200 -13.554  0.00  0.00    +0.058 C 
ENDBRANCH   9  11
BRANCH   9  17
ATOM     17  C   UNL     1      34.876 -22.568 -17.078  0.00  0.00    -0.038 C 
ATOM     18  C   UNL     1      36.129 -22.007 -17.213  0.00  0.00    -0.006 C 
ATOM     19  C   UNL     1      34.045 -22.782 -18.159  0.00  0.00    -0.006 C 
ATOM     20  C   UNL     1      36.571 -21.644 -18.486  0.00  0.00    -0.000 C 
ATOM     21  C   UNL     1      34.488 -22.419 -19.431  0.00  0.00    -0.000 C 
ATOM     22  C   UNL     1      35.750 -21.850 -19.594  0.00  0.00    -0.000 C 
ENDBRANCH   9  17
ENDBRANCH   1   9
BRANCH   2  23
ATOM     23  C   UNL     1      28.993 -24.539 -15.122  0.00  0.00    -0.045 C 
BRANCH  23  24
ATOM     24  C   UNL     1      28.259 -24.231 -16.417  0.00  0.00    +0.120 C 
BRANCH  24  25
ATOM     25  O   UNL     1      27.293 -23.218 -16.165  0.00  0.00    -0.353 OA
BRANCH  25  26
ATOM     26  C   UNL     1      27.306 -22.221 -17.177  0.00  0.00    +0.174 C 
BRANCH  26  27
ATOM     27  C   UNL     1      26.038 -21.395 -17.074  0.00  0.00    +0.169 C 
BRANCH  27  28
ATOM     28  O   UNL     1      26.114 -20.312 -17.992  0.00  0.00    -0.379 OA
ATOM     29  H   UNL     1      26.737 -19.647 -17.659  0.00  0.00    +0.211 HD
ENDBRANCH  27  28
ENDBRANCH  26  27
ENDBRANCH  25  26
ENDBRANCH  24  25
ENDBRANCH  23  24
ENDBRANCH   2  23
TORSDOF 9
ENDMDL
MODEL 3
REMARK VINA RESULT:      -8.8      5.783     11.508
REMARK  Name = 3658
REMARK  9 active torsions:
REMARK  status: ('A' for Active; 'I' for Inactive)
REMARK    1  A    between atoms: N_1  and  C_9
REMARK    2  A    between atoms: N_2  and  C_23
REMARK    3  A    between atoms: C_9  and  C_11
REMARK    4  A    between atoms: C_9  and  C_17
REMARK    5  A    between atoms: C_23  and  C_24
REMARK    6  A    between atoms: C_24  and  O_25
REMARK    7  A    between atoms: O_25  and  C_26
REMARK    8  A    between atoms: C_26  and  C_27
REMARK    9  A    between atoms: C_27  and  O_28
REMARK                            x       y       z     vdW  Elec       q    Type
REMARK                         _______ _______ _______ _____ _____    ______ ____
ROOT
ATOM      1  N   UNL     1      33.878 -15.117 -22.690  0.00  0.00    +0.390 N 
ATOM      2  N   UNL     1      35.075 -17.679 -22.084  0.00  0.00    +0.386 N 
ATOM      3  C   UNL     1      33.433 -15.914 -21.541  0.00  0.00    -0.100 C 
ATOM      4  C   UNL     1      34.385 -15.993 -23.754  0.00  0.00    -0.100 C 
ATOM      5  C   UNL     1      34.567 -16.803 -21.020  0.00  0.00    -0.101 C 
ATOM      6  C   UNL     1      35.519 -16.882 -23.234  0.00  0.00    -0.101 C 
ATOM      7  H   UNL     1      34.639 -14.509 -22.385  0.00  0.00    -0.079 HD
ATOM      8  H   UNL     1      34.315 -18.287 -22.389  0.00  0.00    -0.080 HD
ENDROOT
BRANCH   1   9
ATOM      9  C   UNL     1      32.795 -14.270 -23.186  0.00  0.00    -0.012 C 
BRANCH   9  11
ATOM     10 CL   UNL     1      30.881 -10.356 -19.059  0.00  0.00    -0.082 Cl
ATOM     11  C   UNL     1      32.311 -13.277 -22.140  0.00  0.00    -0.038 C 
ATOM     12  C   UNL     1      32.596 -13.516 -20.811  0.00  0.00    -0.005 C 
ATOM     13  C   UNL     1      31.602 -12.168 -22.551  0.00  0.00    -0.005 C 
ATOM     14  C   UNL     1      32.149 -12.607 -19.852  0.00  0.00    +0.011 C 
ATOM     15  C   UNL     1      31.157 -11.259 -21.592  0.00  0.00    +0.011 C 
ATOM     16  C   UNL     1      31.431 -11.477 -20.242  0.00  0.00    +0.058 C 
ENDBRANCH   9  11
BRANCH   9  17
ATOM     17  C   UNL     1      33.150 -13.584 -24.498  0.00  0.00    -0.038 C 
ATOM     18  C   UNL     1      33.830 -12.384 -24.460  0.00  0.00    -0.006 C 
ATOM     19  C   UNL     1      32.780 -14.183 -25.685  0.00  0.00    -0.006 C 
ATOM     20  C   UNL     1      34.156 -11.756 -25.663  0.00  0.00    -0.000 C 
ATOM     21  C   UNL     1      33.106 -13.555 -26.887  0.00  0.00    -0.000 C 
ATOM     22  C   UNL     1      33.793 -12.342 -26.876  0.00  0.00    -0.000 C 
ENDBRANCH   9  17
ENDBRANCH   1   9
BRANCH   2  23
ATOM     23  C   UNL     1      36.159 -18.524 -21.588  0.00  0.00    -0.045 C 
BRANCH  23  24
ATOM     24  C   UNL     1      35.603 -19.718 -20.828  0.00  0.00    +0.120 C 
BRANCH  24  25
ATOM     25  O   UNL     1      36.498 -20.045 -19.773  0.00  0.00    -0.353 OA
BRANCH  25  26
ATOM     26  C   UNL     1      36.249 -21.347 -19.262  0.00  0.00    +0.174 C 
BRANCH  26  27
ATOM     27  C   UNL     1      34.777 -21.671 -19.430  0.00  0.00    +0.169 C 
BRANCH  27  28
ATOM     28  O   UNL     1      34.609 -23.083 -19.429  0.00  0.00    -0.379 OA
ATOM     29  H   UNL     1      35.194 -23.480 -20.093  0.00  0.00    +0.211 HD
ENDBRANCH  27  28
ENDBRANCH  26  27
ENDBRANCH  25  26
ENDBRANCH  24  25
ENDBRANCH  23  24
ENDBRANCH   2  23
TORSDOF 9
ENDMDL
MODEL 4
REMARK VINA RESULT:      -8.7      4.108      6.969
REMARK  Name = 3658
REMARK  9 active torsions:
REMARK  status: ('A' for Active; 'I' for Inactive)
REMARK    1  A    between atoms: N_1  and  C_9
REMARK    2  A    between atoms: N_2  and  C_23
REMARK    3  A    between atoms: C_9  and  C_11
REMARK    4  A    between atoms: C_9  and  C_17
REMARK    5  A    between atoms: C_23  and  C_24
REMARK    6  A    between atoms: C_24  and  O_25
REMARK    7  A    between atoms: O_25  and  C_26
REMARK    8  A    between atoms: C_26  and  C_27
REMARK    9  A    between atoms: C_27  and  O_28
REMARK                            x       y       z     vdW  Elec       q    Type
REMARK                         _______ _______ _______ _____ _____    ______ ____
ROOT
ATOM      1  N   UNL     1      33.156 -23.496 -15.543  0.00  0.00    +0.390 N 
ATOM      2  N   UNL     1      30.304 -23.861 -15.236  0.00  0.00    +0.386 N 
ATOM      3  C   UNL     1      32.243 -23.358 -16.684  0.00  0.00    -0.100 C 
ATOM      4  C   UNL     1      32.609 -24.442 -14.562  0.00  0.00    -0.100 C 
ATOM      5  C   UNL     1      30.851 -22.917 -16.218  0.00  0.00    -0.101 C 
ATOM      6  C   UNL     1      31.218 -24.000 -14.096  0.00  0.00    -0.101 C 
ATOM      7  H   UNL     1      33.250 -22.585 -15.094  0.00  0.00    -0.079 HD
ATOM      8  H   UNL     1      30.209 -24.772 -15.685  0.00  0.00    -0.080 HD
ENDROOT
BRANCH   1   9
ATOM      9  C   UNL     1      34.483 -23.918 -15.989  0.00  0.00    -0.012 C 
BRANCH   9  11
ATOM     10 CL   UNL     1      36.789 -20.230 -20.123  0.00  0.00    -0.082 Cl
ATOM     11  C   UNL     1      35.067 -22.982 -17.036  0.00  0.00    -0.038 C 
ATOM     12  C   UNL     1      34.363 -22.765 -18.203  0.00  0.00    -0.005 C 
ATOM     13  C   UNL     1      36.282 -22.379 -16.788  0.00  0.00    -0.005 C 
ATOM     14  C   UNL     1      34.900 -21.909 -19.164  0.00  0.00    +0.011 C 
ATOM     15  C   UNL     1      36.819 -21.523 -17.749  0.00  0.00    +0.011 C 
ATOM     16  C   UNL     1      36.128 -21.286 -18.937  0.00  0.00    +0.058 C 
ENDBRANCH   9  11
BRANCH   9  17
ATOM     17  C   UNL     1      35.441 -24.139 -14.827  0.00  0.00    -0.038 C 
ATOM     18  C   UNL     1      36.178 -25.305 -14.784  0.00  0.00    -0.006 C 
ATOM     19  C   UNL     1      35.545 -23.166 -13.854  0.00  0.00    -0.006 C 
ATOM     20  C   UNL     1      37.058 -25.506 -13.719  0.00  0.00    -0.000 C 
ATOM     21  C   UNL     1      36.424 -23.368 -12.790  0.00  0.00    -0.000 C 
ATOM     22  C   UNL     1      37.180 -24.538 -12.723  0.00  0.00    -0.000 C 
ENDBRANCH   9  17
ENDBRANCH   1   9
BRANCH   2  23
ATOM     23  C   UNL     1      28.978 -23.437 -14.790  0.00  0.00    -0.045 C 
BRANCH  23  24
ATOM     24  C   UNL     1      28.370 -22.453 -15.775  0.00  0.00    +0.120 C 
BRANCH  24  25
ATOM     25  O   UNL     1      27.471 -23.155 -16.626  0.00  0.00    -0.353 OA
BRANCH  25  26
ATOM     26  C   UNL     1      27.047 -22.347 -17.715  0.00  0.00    +0.174 C 
BRANCH  26  27
ATOM     27  C   UNL     1      26.034 -21.335 -17.214  0.00  0.00    +0.169 C 
BRANCH  27  28
ATOM     28  O   UNL     1      26.055 -20.197 -18.068  0.00  0.00    -0.379 OA
ATOM     29  H   UNL     1      25.646 -19.444 -17.613  0.00  0.00    +0.211 HD
ENDBRANCH  27  28
ENDBRANCH  26  27
ENDBRANCH  25  26
ENDBRANCH  24  25
ENDBRANCH  23  24
ENDBRANCH   2  23
TORSDOF 9
ENDMDL
MODEL 5
REMARK VINA RESULT:      -8.7     10.358     14.470
REMARK  Name = 3658
REMARK  9 active torsions:
REMARK  status: ('A' for Active; 'I' for Inactive)
REMARK    1  A    between atoms: N_1  and  C_9
REMARK    2  A    between atoms: N_2  and  C_23
REMARK    3  A    between atoms: C_9  and  C_11
REMARK    4  A    between atoms: C_9  and  C_17
REMARK    5  A    between atoms: C_23  and  C_24
REMARK    6  A    between atoms: C_24  and  O_25
REMARK    7  A    between atoms: O_25  and  C_26
REMARK    8  A    between atoms: C_26  and  C_27
REMARK    9  A    between atoms: C_27  and  O_28
REMARK                            x       y       z     vdW  Elec       q    Type
REMARK                         _______ _______ _______ _____ _____    ______ ____
ROOT
ATOM      1  N   UNL     1      32.839 -10.987 -23.864  0.00  0.00    +0.390 N 
ATOM      2  N   UNL     1      33.717 -13.325 -25.322  0.00  0.00    +0.386 N 
ATOM      3  C   UNL     1      33.789 -10.879 -24.978  0.00  0.00    -0.100 C 
ATOM      4  C   UNL     1      32.971 -12.293 -23.205  0.00  0.00    -0.100 C 
ATOM      5  C   UNL     1      33.586 -12.019 -25.981  0.00  0.00    -0.101 C 
ATOM      6  C   UNL     1      32.768 -13.433 -24.208  0.00  0.00    -0.101 C 
ATOM      7  H   UNL     1      31.893 -10.911 -24.240  0.00  0.00    -0.079 HD
ATOM      8  H   UNL     1      34.662 -13.402 -24.948  0.00  0.00    -0.080 HD
ENDROOT
BRANCH   1   9
ATOM      9  C   UNL     1      33.033  -9.899 -22.908  0.00  0.00    -0.012 C 
BRANCH   9  11
ATOM     10 CL   UNL     1      32.018  -4.510 -25.344  0.00  0.00    -0.082 Cl
ATOM     11  C   UNL     1      32.776  -8.532 -23.524  0.00  0.00    -0.038 C 
ATOM     12  C   UNL     1      31.475  -8.151 -23.782  0.00  0.00    -0.005 C 
ATOM     13  C   UNL     1      33.851  -7.716 -23.808  0.00  0.00    -0.005 C 
ATOM     14  C   UNL     1      31.240  -6.899 -24.350  0.00  0.00    +0.011 C 
ATOM     15  C   UNL     1      33.615  -6.464 -24.374  0.00  0.00    +0.011 C 
ATOM     16  C   UNL     1      32.309  -6.054 -24.645  0.00  0.00    +0.058 C 
ENDBRANCH   9  11
BRANCH   9  17
ATOM     17  C   UNL     1      32.236 -10.103 -21.628  0.00  0.00    -0.038 C 
ATOM     18  C   UNL     1      32.507  -9.301 -20.538  0.00  0.00    -0.006 C 
ATOM     19  C   UNL     1      31.265 -11.084 -21.595  0.00  0.00    -0.006 C 
ATOM     20  C   UNL     1      31.775  -9.487 -19.365  0.00  0.00    -0.000 C 
ATOM     21  C   UNL     1      30.534 -11.269 -20.422  0.00  0.00    -0.000 C 
ATOM     22  C   UNL     1      30.789 -10.472 -19.308  0.00  0.00    -0.000 C 
ENDBRANCH   9  17
ENDBRANCH   1   9
BRANCH   2  23
ATOM     23  C   UNL     1      33.520 -14.412 -26.279  0.00  0.00    -0.045 C 
BRANCH  23  24
ATOM     24  C   UNL     1      33.386 -15.743 -25.558  0.00  0.00    +0.120 C 
BRANCH  24  25
ATOM     25  O   UNL     1      34.485 -16.571 -25.919  0.00  0.00    -0.353 OA
BRANCH  25  26
ATOM     26  C   UNL     1      34.648 -17.648 -25.007  0.00  0.00    +0.174 C 
BRANCH  26  27
ATOM     27  C   UNL     1      34.705 -17.096 -23.595  0.00  0.00    +0.169 C 
BRANCH  27  28
ATOM     28  O   UNL     1      35.876 -16.300 -23.455  0.00  0.00    -0.379 OA
ATOM     29  H   UNL     1      36.410 -16.636 -22.719  0.00  0.00    +0.211 HD
ENDBRANCH  27  28
ENDBRANCH  26  27
ENDBRANCH  25  26
ENDBRANCH  24  25
ENDBRANCH  23  24
ENDBRANCH   2  23
TORSDOF 9
ENDMDL
MODEL 6
REMARK VINA RESULT:      -8.6      1.208      1.812
REMARK  Name = 3658
REMARK  9 active torsions:
REMARK  status: ('A' for Active; 'I' for Inactive)
REMARK    1  A    between atoms: N_1  and  C_9
REMARK    2  A    between atoms: N_2  and  C_23
REMARK    3  A    between atoms: C_9  and  C_11
REMARK    4  A    between atoms: C_9  and  C_17
REMARK    5  A    between atoms: C_23  and  C_24
REMARK    6  A    between atoms: C_24  and  O_25
REMARK    7  A    between atoms: O_25  and  C_26
REMARK    8  A    between atoms: C_26  and  C_27
REMARK    9  A    between atoms: C_27  and  O_28
REMARK                            x       y       z     vdW  Elec       q    Type
REMARK                         _______ _______ _______ _____ _____    ______ ____
ROOT
ATOM      1  N   UNL     1      34.239 -22.965 -16.720  0.00  0.00    +0.390 N 
ATOM      2  N   UNL     1      35.027 -21.885 -19.283  0.00  0.00    +0.386 N 
ATOM      3  C   UNL     1      35.653 -22.773 -17.063  0.00  0.00    -0.100 C 
ATOM      4  C   UNL     1      33.448 -23.220 -17.931  0.00  0.00    -0.100 C 
ATOM      5  C   UNL     1      35.818 -21.631 -18.073  0.00  0.00    -0.101 C 
ATOM      6  C   UNL     1      33.613 -22.079 -18.939  0.00  0.00    -0.101 C 
ATOM      7  H   UNL     1      33.894 -22.109 -16.285  0.00  0.00    -0.079 HD
ATOM      8  H   UNL     1      35.372 -22.739 -19.719  0.00  0.00    -0.080 HD
ENDROOT
BRANCH   1   9
ATOM      9  C   UNL     1      34.082 -24.055 -15.758  0.00  0.00    -0.012 C 
BRANCH   9  11
ATOM     10 CL   UNL     1      38.755 -24.486 -12.018  0.00  0.00    -0.082 Cl
ATOM     11  C   UNL     1      35.266 -24.165 -14.809  0.00  0.00    -0.038 C 
ATOM     12  C   UNL     1      35.459 -23.176 -13.866  0.00  0.00    -0.005 C 
ATOM     13  C   UNL     1      36.112 -25.249 -14.920  0.00  0.00    -0.005 C 
ATOM     14  C   UNL     1      36.546 -23.276 -12.998  0.00  0.00    +0.011 C 
ATOM     15  C   UNL     1      37.198 -25.349 -14.052  0.00  0.00    +0.011 C 
ATOM     16  C   UNL     1      37.415 -24.363 -13.089  0.00  0.00    +0.058 C 
ENDBRANCH   9  11
BRANCH   9  17
ATOM     17  C   UNL     1      32.760 -23.981 -15.008  0.00  0.00    -0.038 C 
ATOM     18  C   UNL     1      31.958 -22.871 -15.179  0.00  0.00    -0.006 C 
ATOM     19  C   UNL     1      32.403 -25.026 -14.181  0.00  0.00    -0.006 C 
ATOM     20  C   UNL     1      30.745 -22.804 -14.493  0.00  0.00    -0.000 C 
ATOM     21  C   UNL     1      31.190 -24.958 -13.495  0.00  0.00    -0.000 C 
ATOM     22  C   UNL     1      30.362 -23.848 -13.650  0.00  0.00    -0.000 C 
ENDBRANCH   9  17
ENDBRANCH   1   9
BRANCH   2  23
ATOM     23  C   UNL     1      35.183 -20.794 -20.243  0.00  0.00    -0.045 C 
BRANCH  23  24
ATOM     24  C   UNL     1      33.829 -20.227 -20.637  0.00  0.00    +0.120 C 
BRANCH  24  25
ATOM     25  O   UNL     1      34.032 -19.090 -21.465  0.00  0.00    -0.353 OA
BRANCH  25  26
ATOM     26  C   UNL     1      35.303 -18.498 -21.236  0.00  0.00    +0.174 C 
BRANCH  26  27
ATOM     27  C   UNL     1      35.210 -17.008 -21.504  0.00  0.00    +0.169 C 
BRANCH  27  28
ATOM     28  O   UNL     1      35.082 -16.321 -20.265  0.00  0.00    -0.379 OA
ATOM     29  H   UNL     1      35.925 -15.898 -20.041  0.00  0.00    +0.211 HD
ENDBRANCH  27  28
ENDBRANCH  26  27
ENDBRANCH  25  26
ENDBRANCH  24  25
ENDBRANCH  23  24
ENDBRANCH   2  23
TORSDOF 9
ENDMDL
MODEL 7
REMARK VINA RESULT:      -8.5      2.145      4.342
REMARK  Name = 3658
REMARK  9 active torsions:
REMARK  status: ('A' for Active; 'I' for Inactive)
REMARK    1  A    between atoms: N_1  and  C_9
REMARK    2  A    between atoms: N_2  and  C_23
REMARK    3  A    between atoms: C_9  and  C_11
REMARK    4  A    between atoms: C_9  and  C_17
REMARK    5  A    between atoms: C_23  and  C_24
REMARK    6  A    between atoms: C_24  and  O_25
REMARK    7  A    between atoms: O_25  and  C_26
REMARK    8  A    between atoms: C_26  and  C_27
REMARK    9  A    between atoms: C_27  and  O_28
REMARK                            x       y       z     vdW  Elec       q    Type
REMARK                         _______ _______ _______ _____ _____    ______ ____
ROOT
ATOM      1  N   UNL     1      35.235 -23.113 -16.319  0.00  0.00    +0.390 N 
ATOM      2  N   UNL     1      35.657 -21.472 -18.662  0.00  0.00    +0.386 N 
ATOM      3  C   UNL     1      34.119 -22.732 -17.193  0.00  0.00    -0.100 C 
ATOM      4  C   UNL     1      36.285 -22.088 -16.353  0.00  0.00    -0.100 C 
ATOM      5  C   UNL     1      34.606 -22.497 -18.628  0.00  0.00    -0.101 C 
ATOM      6  C   UNL     1      36.772 -21.853 -17.786  0.00  0.00    -0.101 C 
ATOM      7  H   UNL     1      35.629 -23.989 -16.664  0.00  0.00    -0.079 HD
ATOM      8  H   UNL     1      35.263 -20.597 -18.318  0.00  0.00    -0.080 HD
ENDROOT
BRANCH   1   9
ATOM      9  C   UNL     1      34.770 -23.336 -14.951  0.00  0.00    -0.012 C 
BRANCH   9  11
ATOM     10 CL   UNL     1      29.021 -25.044 -14.739  0.00  0.00    -0.082 Cl
ATOM     11  C   UNL     1      33.312 -23.770 -14.898  0.00  0.00    -0.038 C 
ATOM     12  C   UNL     1      32.405 -23.162 -15.741  0.00  0.00    -0.005 C 
ATOM     13  C   UNL     1      32.943 -24.758 -14.009  0.00  0.00    -0.005 C 
ATOM     14  C   UNL     1      31.068 -23.558 -15.690  0.00  0.00    +0.011 C 
ATOM     15  C   UNL     1      31.607 -25.154 -13.959  0.00  0.00    +0.011 C 
ATOM     16  C   UNL     1      30.669 -24.555 -14.800  0.00  0.00    +0.058 C 
ENDBRANCH   9  11
BRANCH   9  17
ATOM     17  C   UNL     1      35.673 -24.287 -14.180  0.00  0.00    -0.038 C 
ATOM     18  C   UNL     1      36.161 -25.409 -14.819  0.00  0.00    -0.006 C 
ATOM     19  C   UNL     1      35.977 -23.999 -12.864  0.00  0.00    -0.006 C 
ATOM     20  C   UNL     1      36.990 -26.281 -14.111  0.00  0.00    -0.000 C 
ATOM     21  C   UNL     1      36.806 -24.871 -12.158  0.00  0.00    -0.000 C 
ATOM     22  C   UNL     1      37.312 -26.011 -12.781  0.00  0.00    -0.000 C 
ENDBRANCH   9  17
ENDBRANCH   1   9
BRANCH   2  23
ATOM     23  C   UNL     1      36.122 -21.251 -20.030  0.00  0.00    -0.045 C 
BRANCH  23  24
ATOM     24  C   UNL     1      35.334 -20.132 -20.691  0.00  0.00    +0.120 C 
BRANCH  24  25
ATOM     25  O   UNL     1      36.058 -18.917 -20.550  0.00  0.00    -0.353 OA
BRANCH  25  26
ATOM     26  C   UNL     1      35.408 -17.842 -21.214  0.00  0.00    +0.174 C 
BRANCH  26  27
ATOM     27  C   UNL     1      35.728 -17.910 -22.695  0.00  0.00    +0.169 C 
BRANCH  27  28
ATOM     28  O   UNL     1      35.788 -16.589 -23.218  0.00  0.00    -0.379 OA
ATOM     29  H   UNL     1      34.905 -16.188 -23.187  0.00  0.00    +0.211 HD
ENDBRANCH  27  28
ENDBRANCH  26  27
ENDBRANCH  25  26
ENDBRANCH  24  25
ENDBRANCH  23  24
ENDBRANCH   2  23
TORSDOF 9
ENDMDL
MODEL 8
REMARK VINA RESULT:      -8.5      5.181      8.599
REMARK  Name = 3658
REMARK  9 active torsions:
REMARK  status: ('A' for Active; 'I' for Inactive)
REMARK    1  A    between atoms: N_1  and  C_9
REMARK    2  A    between atoms: N_2  and  C_23
REMARK    3  A    between atoms: C_9  and  C_11
REMARK    4  A    between atoms: C_9  and  C_17
REMARK    5  A    between atoms: C_23  and  C_24
REMARK    6  A    between atoms: C_24  and  O_25
REMARK    7  A    between atoms: O_25  and  C_26
REMARK    8  A    between atoms: C_26  and  C_27
REMARK    9  A    between atoms: C_27  and  O_28
REMARK                            x       y       z     vdW  Elec       q    Type
REMARK                         _______ _______ _______ _____ _____    ______ ____
ROOT
ATOM      1  N   UNL     1      34.352 -16.788 -20.889  0.00  0.00    +0.390 N 
ATOM      2  N   UNL     1      32.860 -14.317 -21.050  0.00  0.00    +0.386 N 
ATOM      3  C   UNL     1      35.009 -15.523 -21.236  0.00  0.00    -0.100 C 
ATOM      4  C   UNL     1      32.949 -16.772 -21.322  0.00  0.00    -0.100 C 
ATOM      5  C   UNL     1      34.263 -14.334 -20.619  0.00  0.00    -0.101 C 
ATOM      6  C   UNL     1      32.203 -15.584 -20.705  0.00  0.00    -0.101 C 
ATOM      7  H   UNL     1      34.375 -16.896 -19.875  0.00  0.00    -0.079 HD
ATOM      8  H   UNL     1      32.837 -14.209 -22.064  0.00  0.00    -0.080 HD
ENDROOT
BRANCH   1   9
ATOM      9  C   UNL     1      35.064 -17.921 -21.479  0.00  0.00    -0.012 C 
BRANCH   9  11
ATOM     10 CL   UNL     1      33.772 -23.102 -18.740  0.00  0.00    -0.082 Cl
ATOM     11  C   UNL     1      34.737 -19.235 -20.785  0.00  0.00    -0.038 C 
ATOM     12  C   UNL     1      33.413 -19.578 -20.596  0.00  0.00    -0.005 C 
ATOM     13  C   UNL     1      35.772 -20.044 -20.366  0.00  0.00    -0.005 C 
ATOM     14  C   UNL     1      33.113 -20.781 -19.958  0.00  0.00    +0.011 C 
ATOM     15  C   UNL     1      35.472 -21.248 -19.729  0.00  0.00    +0.011 C 
ATOM     16  C   UNL     1      34.142 -21.618 -19.526  0.00  0.00    +0.058 C 
ENDBRANCH   9  11
BRANCH   9  17
ATOM     17  C   UNL     1      34.867 -18.010 -22.985  0.00  0.00    -0.038 C 
ATOM     18  C   UNL     1      34.898 -16.850 -23.731  0.00  0.00    -0.006 C 
ATOM     19  C   UNL     1      34.664 -19.249 -23.559  0.00  0.00    -0.006 C 
ATOM     20  C   UNL     1      34.718 -16.932 -25.113  0.00  0.00    -0.000 C 
ATOM     21  C   UNL     1      34.484 -19.330 -24.940  0.00  0.00    -0.000 C 
ATOM     22  C   UNL     1      34.511 -18.172 -25.716  0.00  0.00    -0.000 C 
ENDBRANCH   9  17
ENDBRANCH   1   9
BRANCH   2  23
ATOM     23  C   UNL     1      32.149 -13.186 -20.459  0.00  0.00    -0.045 C 
BRANCH  23  24
ATOM     24  C   UNL     1      31.654 -12.239 -21.541  0.00  0.00    +0.120 C 
BRANCH  24  25
ATOM     25  O   UNL     1      30.655 -11.393 -20.986  0.00  0.00    -0.353 OA
BRANCH  25  26
ATOM     26  C   UNL     1      31.154 -10.652 -19.881  0.00  0.00    +0.174 C 
BRANCH  26  27
ATOM     27  C   UNL     1      31.906  -9.440 -20.397  0.00  0.00    +0.169 C 
BRANCH  27  28
ATOM     28  O   UNL     1      32.714  -8.915 -19.351  0.00  0.00    -0.379 OA
ATOM     29  H   UNL     1      33.088  -9.645 -18.834  0.00  0.00    +0.211 HD
ENDBRANCH  27  28
ENDBRANCH  26  27
ENDBRANCH  25  26
ENDBRANCH  24  25
ENDBRANCH  23  24
ENDBRANCH   2  23
TORSDOF 9
ENDMDL
MODEL 9
REMARK VINA RESULT:      -8.4      2.447      4.575
REMARK  Name = 3658
REMARK  9 active torsions:
REMARK  status: ('A' for Active; 'I' for Inactive)
REMARK    1  A    between atoms: N_1  and  C_9
REMARK    2  A    between atoms: N_2  and  C_23
REMARK    3  A    between atoms: C_9  and  C_11
REMARK    4  A    between atoms: C_9  and  C_17
REMARK    5  A    between atoms: C_23  and  C_24
REMARK    6  A    between atoms: C_24  and  O_25
REMARK    7  A    between atoms: O_25  and  C_26
REMARK    8  A    between atoms: C_26  and  C_27
REMARK    9  A    between atoms: C_27  and  O_28
REMARK                            x       y       z     vdW  Elec       q    Type
REMARK                         _______ _______ _______ _____ _____    ______ ____
ROOT
ATOM      1  N   UNL     1      35.131 -22.557 -15.567  0.00  0.00    +0.390 N 
ATOM      2  N   UNL     1      36.507 -22.034 -18.056  0.00  0.00    +0.386 N 
ATOM      3  C   UNL     1      36.589 -22.391 -15.612  0.00  0.00    -0.100 C 
ATOM      4  C   UNL     1      34.639 -23.100 -16.840  0.00  0.00    -0.100 C 
ATOM      5  C   UNL     1      37.000 -21.492 -16.784  0.00  0.00    -0.101 C 
ATOM      6  C   UNL     1      35.049 -22.202 -18.011  0.00  0.00    -0.101 C 
ATOM      7  H   UNL     1      34.707 -21.640 -15.423  0.00  0.00    -0.079 HD
ATOM      8  H   UNL     1      36.931 -22.950 -18.201  0.00  0.00    -0.080 HD
ENDROOT
BRANCH   1   9
ATOM      9  C   UNL     1      34.740 -23.415 -14.450  0.00  0.00    -0.012 C 
BRANCH   9  11
ATOM     10 CL   UNL     1      28.962 -25.015 -14.710  0.00  0.00    -0.082 Cl
ATOM     11  C   UNL     1      33.275 -23.820 -14.515  0.00  0.00    -0.038 C 
ATOM     12  C   UNL     1      32.817 -24.806 -13.666  0.00  0.00    -0.005 C 
ATOM     13  C   UNL     1      32.449 -23.188 -15.422  0.00  0.00    -0.005 C 
ATOM     14  C   UNL     1      31.475 -25.179 -13.728  0.00  0.00    +0.011 C 
ATOM     15  C   UNL     1      31.106 -23.560 -15.482  0.00  0.00    +0.011 C 
ATOM     16  C   UNL     1      30.618 -24.555 -14.635  0.00  0.00    +0.058 C 
ENDBRANCH   9  11
BRANCH   9  17
ATOM     17  C   UNL     1      35.656 -24.621 -14.297  0.00  0.00    -0.038 C 
ATOM     18  C   UNL     1      35.745 -25.526 -15.336  0.00  0.00    -0.006 C 
ATOM     19  C   UNL     1      36.368 -24.774 -13.125  0.00  0.00    -0.006 C 
ATOM     20  C   UNL     1      36.585 -26.631 -15.196  0.00  0.00    -0.000 C 
ATOM     21  C   UNL     1      37.207 -25.879 -12.986  0.00  0.00    -0.000 C 
ATOM     22  C   UNL     1      37.316 -26.807 -14.020  0.00  0.00    -0.000 C 
ENDBRANCH   9  17
ENDBRANCH   1   9
BRANCH   2  23
ATOM     23  C   UNL     1      36.897 -21.175 -19.172  0.00  0.00    -0.045 C 
BRANCH  23  24
ATOM     24  C   UNL     1      35.737 -20.991 -20.138  0.00  0.00    +0.120 C 
BRANCH  24  25
ATOM     25  O   UNL     1      35.634 -19.612 -20.471  0.00  0.00    -0.353 OA
BRANCH  25  26
ATOM     26  C   UNL     1      34.303 -19.258 -20.818  0.00  0.00    +0.174 C 
BRANCH  26  27
ATOM     27  C   UNL     1      33.426 -20.493 -20.739  0.00  0.00    +0.169 C 
BRANCH  27  28
ATOM     28  O   UNL     1      32.378 -20.260 -19.806  0.00  0.00    -0.379 OA
ATOM     29  H   UNL     1      31.964 -21.103 -19.567  0.00  0.00    +0.211 HD
ENDBRANCH  27  28
ENDBRANCH  26  27
ENDBRANCH  25  26
ENDBRANCH  24  25
ENDBRANCH  23  24
ENDBRANCH   2  23
TORSDOF 9
ENDMDL
