MODEL 1
REMARK VINA RESULT:      -9.0      0.000      0.000
REMARK  Name = 253602
REMARK  6 active torsions:
REMARK  status: ('A' for Active; 'I' for Inactive)
REMARK    1  A    between atoms: C_2  and  C_14
REMARK    2  A    between atoms: C_3  and  O_10
REMARK    3  A    between atoms: C_4  and  O_8
REMARK    4  A    between atoms: O_10  and  C_12
REMARK    5  A    between atoms: C_14  and  C_15
REMARK    6  A    between atoms: C_20  and  O_21
REMARK                            x       y       z     vdW  Elec       q    Type
REMARK                         _______ _______ _______ _____ _____    ______ ____
ROOT
ATOM      1  N   UNL     1      35.208 -16.825 -20.633  0.00  0.00    +0.389 N 
ATOM      2  C   UNL     1      34.377 -17.754 -21.417  0.00  0.00    -0.014 C 
ATOM      3  C   UNL     1      33.955 -16.916 -22.621  0.00  0.00    +0.174 C 
ATOM      4  C   UNL     1      33.710 -15.541 -22.015  0.00  0.00    +0.127 C 
ATOM      5  C   UNL     1      34.543 -15.517 -20.734  0.00  0.00    -0.048 C 
ATOM      6  H   UNL     1      36.150 -16.777 -21.021  0.00  0.00    -0.084 HD
ATOM      7  H   UNL     1      35.299 -17.129 -19.663  0.00  0.00    -0.084 HD
ENDROOT
BRANCH   4   8
ATOM      8  O   UNL     1      32.330 -15.421 -21.686  0.00  0.00    -0.383 OA
ATOM      9  H   UNL     1      31.801 -15.451 -22.498  0.00  0.00    +0.210 HD
ENDBRANCH   4   8
BRANCH   3  10
ATOM     10  O   UNL     1      35.008 -16.841 -23.576  0.00  0.00    -0.452 OA
BRANCH  10  12
ATOM     11  O   UNL     1      34.597 -16.297 -25.783  0.00  0.00    -0.250 OA
ATOM     12  C   UNL     1      34.656 -17.108 -24.869  0.00  0.00    +0.317 C 
ATOM     13  C   UNL     1      34.347 -18.567 -25.020  0.00  0.00    +0.121 C 
ENDBRANCH  10  12
ENDBRANCH   3  10
BRANCH   2  14
ATOM     14  C   UNL     1      35.135 -19.029 -21.760  0.00  0.00    +0.009 C 
BRANCH  14  15
ATOM     15  C   UNL     1      34.922 -20.102 -20.724  0.00  0.00    -0.024 C 
ATOM     16  C   UNL     1      33.629 -20.462 -20.370  0.00  0.00    -0.001 C 
ATOM     17  C   UNL     1      36.021 -20.715 -20.140  0.00  0.00    -0.001 C 
ATOM     18  C   UNL     1      33.432 -21.457 -19.411  0.00  0.00    +0.037 C 
ATOM     19  C   UNL     1      35.824 -21.709 -19.181  0.00  0.00    +0.037 C 
ATOM     20  C   UNL     1      34.530 -22.079 -18.817  0.00  0.00    +0.139 C 
BRANCH  20  21
ATOM     21  O   UNL     1      34.336 -23.049 -17.881  0.00  0.00    -0.471 OA
ATOM     22  C   UNL     1      33.015 -23.194 -17.361  0.00  0.00    +0.252 C 
ENDBRANCH  20  21
ENDBRANCH  14  15
ENDBRANCH   2  14
TORSDOF 6
ENDMDL
MODEL 2
REMARK VINA RESULT:      -8.8      1.441      2.904
REMARK  Name = 253602
REMARK  6 active torsions:
REMARK  status: ('A' for Active; 'I' for Inactive)
REMARK    1  A    between atoms: C_2  and  C_14
REMARK    2  A    between atoms: C_3  and  O_10
REMARK    3  A    between atoms: C_4  and  O_8
REMARK    4  A    between atoms: O_10  and  C_12
REMARK    5  A    between atoms: C_14  and  C_15
REMARK    6  A    between atoms: C_20  and  O_21
REMARK                            x       y       z     vdW  Elec       q    Type
REMARK                         _______ _______ _______ _____ _____    ______ ____
ROOT
ATOM      1  N   UNL     1      34.673 -19.187 -23.488  0.00  0.00    +0.389 N 
ATOM      2  C   UNL     1      35.709 -18.231 -23.064  0.00  0.00    -0.014 C 
ATOM      3  C   UNL     1      35.122 -16.880 -23.464  0.00  0.00    +0.174 C 
ATOM      4  C   UNL     1      34.447 -17.178 -24.796  0.00  0.00    +0.127 C 
ATOM      5  C   UNL     1      34.165 -18.680 -24.771  0.00  0.00    -0.048 C 
ATOM      6  H   UNL     1      33.923 -19.228 -22.798  0.00  0.00    -0.084 HD
ATOM      7  H   UNL     1      35.048 -20.132 -23.578  0.00  0.00    -0.084 HD
ENDROOT
BRANCH   4   8
ATOM      8  O   UNL     1      35.356 -16.882 -25.850  0.00  0.00    -0.383 OA
ATOM      9  H   UNL     1      36.259 -16.855 -25.499  0.00  0.00    +0.210 HD
ENDBRANCH   4   8
BRANCH   3  10
ATOM     10  O   UNL     1      34.149 -16.453 -22.516  0.00  0.00    -0.452 OA
BRANCH  10  12
ATOM     11  O   UNL     1      34.461 -14.168 -22.653  0.00  0.00    -0.250 OA
ATOM     12  C   UNL     1      34.329 -15.198 -22.006  0.00  0.00    +0.317 C 
ATOM     13  C   UNL     1      34.341 -15.255 -20.508  0.00  0.00    +0.121 C 
ENDBRANCH  10  12
ENDBRANCH   3  10
BRANCH   2  14
ATOM     14  C   UNL     1      36.030 -18.375 -21.583  0.00  0.00    +0.009 C 
BRANCH  14  15
ATOM     15  C   UNL     1      35.189 -19.438 -20.929  0.00  0.00    -0.024 C 
ATOM     16  C   UNL     1      33.809 -19.289 -20.887  0.00  0.00    -0.001 C 
ATOM     17  C   UNL     1      35.805 -20.553 -20.378  0.00  0.00    -0.001 C 
ATOM     18  C   UNL     1      33.030 -20.275 -20.282  0.00  0.00    +0.037 C 
ATOM     19  C   UNL     1      35.025 -21.539 -19.773  0.00  0.00    +0.037 C 
ATOM     20  C   UNL     1      33.638 -21.399 -19.724  0.00  0.00    +0.139 C 
BRANCH  20  21
ATOM     21  O   UNL     1      32.877 -22.361 -19.133  0.00  0.00    -0.471 OA
ATOM     22  C   UNL     1      33.378 -22.934 -17.926  0.00  0.00    +0.252 C 
ENDBRANCH  20  21
ENDBRANCH  14  15
ENDBRANCH   2  14
TORSDOF 6
ENDMDL
MODEL 3
REMARK VINA RESULT:      -8.6      5.142      9.947
REMARK  Name = 253602
REMARK  6 active torsions:
REMARK  status: ('A' for Active; 'I' for Inactive)
REMARK    1  A    between atoms: C_2  and  C_14
REMARK    2  A    between atoms: C_3  and  O_10
REMARK    3  A    between atoms: C_4  and  O_8
REMARK    4  A    between atoms: O_10  and  C_12
REMARK    5  A    between atoms: C_14  and  C_15
REMARK    6  A    between atoms: C_20  and  O_21
REMARK                            x       y       z     vdW  Elec       q    Type
REMARK                         _______ _______ _______ _____ _____    ______ ____
ROOT
ATOM      1  N   UNL     1      39.022 -24.441 -15.502  0.00  0.00    +0.389 N 
ATOM      2  C   UNL     1      37.600 -24.142 -15.267  0.00  0.00    -0.014 C 
ATOM      3  C   UNL     1      37.392 -24.552 -13.812  0.00  0.00    +0.174 C 
ATOM      4  C   UNL     1      38.237 -25.812 -13.684  0.00  0.00    +0.127 C 
ATOM      5  C   UNL     1      39.287 -25.700 -14.790  0.00  0.00    -0.048 C 
ATOM      6  H   UNL     1      39.609 -23.692 -15.132  0.00  0.00    -0.084 HD
ATOM      7  H   UNL     1      39.231 -24.519 -16.498  0.00  0.00    -0.084 HD
ENDROOT
BRANCH   4   8
ATOM      8  O   UNL     1      37.413 -26.947 -13.925  0.00  0.00    -0.383 OA
ATOM      9  H   UNL     1      36.806 -26.756 -14.657  0.00  0.00    +0.210 HD
ENDBRANCH   4   8
BRANCH   3  10
ATOM     10  O   UNL     1      37.886 -23.549 -12.931  0.00  0.00    -0.452 OA
BRANCH  10  12
ATOM     11  O   UNL     1      37.305 -22.434 -10.993  0.00  0.00    -0.250 OA
ATOM     12  C   UNL     1      37.027 -23.149 -11.946  0.00  0.00    +0.317 C 
ATOM     13  C   UNL     1      35.663 -23.717 -12.199  0.00  0.00    +0.121 C 
ENDBRANCH  10  12
ENDBRANCH   3  10
BRANCH   2  14
ATOM     14  C   UNL     1      37.276 -22.687 -15.574  0.00  0.00    +0.009 C 
BRANCH  14  15
ATOM     15  C   UNL     1      36.209 -22.562 -16.630  0.00  0.00    -0.024 C 
ATOM     16  C   UNL     1      34.948 -23.093 -16.393  0.00  0.00    -0.001 C 
ATOM     17  C   UNL     1      36.502 -21.918 -17.824  0.00  0.00    -0.001 C 
ATOM     18  C   UNL     1      33.960 -22.976 -17.371  0.00  0.00    +0.037 C 
ATOM     19  C   UNL     1      35.514 -21.802 -18.801  0.00  0.00    +0.037 C 
ATOM     20  C   UNL     1      34.243 -22.331 -18.575  0.00  0.00    +0.139 C 
BRANCH  20  21
ATOM     21  O   UNL     1      33.279 -22.218 -19.529  0.00  0.00    -0.471 OA
ATOM     22  C   UNL     1      33.034 -20.914 -20.054  0.00  0.00    +0.252 C 
ENDBRANCH  20  21
ENDBRANCH  14  15
ENDBRANCH   2  14
TORSDOF 6
ENDMDL
MODEL 4
REMARK VINA RESULT:      -8.1      7.619      9.643
REMARK  Name = 253602
REMARK  6 active torsions:
REMARK  status: ('A' for Active; 'I' for Inactive)
REMARK    1  A    between atoms: C_2  and  C_14
REMARK    2  A    between atoms: C_3  and  O_10
REMARK    3  A    between atoms: C_4  and  O_8
REMARK    4  A    between atoms: O_10  and  C_12
REMARK    5  A    between atoms: C_14  and  C_15
REMARK    6  A    between atoms: C_20  and  O_21
REMARK                            x       y       z     vdW  Elec       q    Type
REMARK                         _______ _______ _______ _____ _____    ______ ____
ROOT
ATOM      1  N   UNL     1      35.674 -23.166 -13.439  0.00  0.00    +0.389 N 
ATOM      2  C   UNL     1      34.832 -23.602 -14.565  0.00  0.00    -0.014 C 
ATOM      3  C   UNL     1      35.744 -24.551 -15.337  0.00  0.00    +0.174 C 
ATOM      4  C   UNL     1      37.105 -23.875 -15.242  0.00  0.00    +0.127 C 
ATOM      5  C   UNL     1      37.024 -22.992 -13.997  0.00  0.00    -0.048 C 
ATOM      6  H   UNL     1      35.680 -23.873 -12.704  0.00  0.00    -0.084 HD
ATOM      7  H   UNL     1      35.325 -22.303 -13.021  0.00  0.00    -0.084 HD
ENDROOT
BRANCH   4   8
ATOM      8  O   UNL     1      37.297 -23.059 -16.391  0.00  0.00    -0.383 OA
ATOM      9  H   UNL     1      36.882 -22.194 -16.246  0.00  0.00    +0.210 HD
ENDBRANCH   4   8
BRANCH   3  10
ATOM     10  O   UNL     1      35.795 -25.826 -14.706  0.00  0.00    -0.452 OA
BRANCH  10  12
ATOM     11  O   UNL     1      36.636 -27.297 -16.277  0.00  0.00    -0.250 OA
ATOM     12  C   UNL     1      36.715 -26.702 -15.210  0.00  0.00    +0.317 C 
ATOM     13  C   UNL     1      37.864 -26.836 -14.258  0.00  0.00    +0.121 C 
ENDBRANCH  10  12
ENDBRANCH   3  10
BRANCH   2  14
ATOM     14  C   UNL     1      33.529 -24.221 -14.081  0.00  0.00    +0.009 C 
BRANCH  14  15
ATOM     15  C   UNL     1      32.344 -23.711 -14.860  0.00  0.00    -0.024 C 
ATOM     16  C   UNL     1      31.099 -23.654 -14.250  0.00  0.00    -0.001 C 
ATOM     17  C   UNL     1      32.516 -23.307 -16.176  0.00  0.00    -0.001 C 
ATOM     18  C   UNL     1      30.003 -23.180 -14.972  0.00  0.00    +0.037 C 
ATOM     19  C   UNL     1      31.420 -22.834 -16.897  0.00  0.00    +0.037 C 
ATOM     20  C   UNL     1      30.164 -22.771 -16.295  0.00  0.00    +0.139 C 
BRANCH  20  21
ATOM     21  O   UNL     1      29.093 -22.311 -16.999  0.00  0.00    -0.471 OA
ATOM     22  C   UNL     1      27.973 -23.187 -17.124  0.00  0.00    +0.252 C 
ENDBRANCH  20  21
ENDBRANCH  14  15
ENDBRANCH   2  14
TORSDOF 6
ENDMDL
MODEL 5
REMARK VINA RESULT:      -8.1      5.254      9.942
REMARK  Name = 253602
REMARK  6 active torsions:
REMARK  status: ('A' for Active; 'I' for Inactive)
REMARK    1  A    between atoms: C_2  and  C_14
REMARK    2  A    between atoms: C_3  and  O_10
REMARK    3  A    between atoms: C_4  and  O_8
REMARK    4  A    between atoms: O_10  and  C_12
REMARK    5  A    between atoms: C_14  and  C_15
REMARK    6  A    between atoms: C_20  and  O_21
REMARK                            x       y       z     vdW  Elec       q    Type
REMARK                         _______ _______ _______ _____ _____    ______ ____
ROOT
ATOM      1  N   UNL     1      35.184 -23.659 -12.465  0.00  0.00    +0.389 N 
ATOM      2  C   UNL     1      35.931 -23.402 -13.708  0.00  0.00    -0.014 C 
ATOM      3  C   UNL     1      37.279 -24.068 -13.450  0.00  0.00    +0.174 C 
ATOM      4  C   UNL     1      37.541 -23.760 -11.982  0.00  0.00    +0.127 C 
ATOM      5  C   UNL     1      36.161 -23.509 -11.376  0.00  0.00    -0.048 C 
ATOM      6  H   UNL     1      34.799 -24.604 -12.471  0.00  0.00    -0.084 HD
ATOM      7  H   UNL     1      34.398 -23.017 -12.359  0.00  0.00    -0.084 HD
ENDROOT
BRANCH   4   8
ATOM      8  O   UNL     1      38.323 -22.575 -11.891  0.00  0.00    -0.383 OA
ATOM      9  H   UNL     1      37.823 -21.830 -12.260  0.00  0.00    +0.210 HD
ENDBRANCH   4   8
BRANCH   3  10
ATOM     10  O   UNL     1      37.189 -25.476 -13.638  0.00  0.00    -0.452 OA
BRANCH  10  12
ATOM     11  O   UNL     1      38.303 -27.229 -14.650  0.00  0.00    -0.250 OA
ATOM     12  C   UNL     1      38.180 -26.039 -14.393  0.00  0.00    +0.317 C 
ATOM     13  C   UNL     1      39.115 -24.974 -14.879  0.00  0.00    +0.121 C 
ENDBRANCH  10  12
ENDBRANCH   3  10
BRANCH   2  14
ATOM     14  C   UNL     1      35.183 -23.921 -14.927  0.00  0.00    +0.009 C 
BRANCH  14  15
ATOM     15  C   UNL     1      35.477 -23.100 -16.155  0.00  0.00    -0.024 C 
ATOM     16  C   UNL     1      36.693 -22.439 -16.261  0.00  0.00    -0.001 C 
ATOM     17  C   UNL     1      34.527 -23.016 -17.163  0.00  0.00    -0.001 C 
ATOM     18  C   UNL     1      36.964 -21.679 -17.399  0.00  0.00    +0.037 C 
ATOM     19  C   UNL     1      34.799 -22.256 -18.301  0.00  0.00    +0.037 C 
ATOM     20  C   UNL     1      36.017 -21.588 -18.418  0.00  0.00    +0.139 C 
BRANCH  20  21
ATOM     21  O   UNL     1      36.282 -20.845 -19.528  0.00  0.00    -0.471 OA
ATOM     22  C   UNL     1      35.172 -20.483 -20.347  0.00  0.00    +0.252 C 
ENDBRANCH  20  21
ENDBRANCH  14  15
ENDBRANCH   2  14
TORSDOF 6
ENDMDL
MODEL 6
REMARK VINA RESULT:      -8.0      7.300     10.024
REMARK  Name = 253602
REMARK  6 active torsions:
REMARK  status: ('A' for Active; 'I' for Inactive)
REMARK    1  A    between atoms: C_2  and  C_14
REMARK    2  A    between atoms: C_3  and  O_10
REMARK    3  A    between atoms: C_4  and  O_8
REMARK    4  A    between atoms: O_10  and  C_12
REMARK    5  A    between atoms: C_14  and  C_15
REMARK    6  A    between atoms: C_20  and  O_21
REMARK                            x       y       z     vdW  Elec       q    Type
REMARK                         _______ _______ _______ _____ _____    ______ ____
ROOT
ATOM      1  N   UNL     1      35.166 -24.705 -12.539  0.00  0.00    +0.389 N 
ATOM      2  C   UNL     1      35.692 -23.859 -13.623  0.00  0.00    -0.014 C 
ATOM      3  C   UNL     1      37.181 -23.763 -13.300  0.00  0.00    +0.174 C 
ATOM      4  C   UNL     1      37.198 -23.658 -11.781  0.00  0.00    +0.127 C 
ATOM      5  C   UNL     1      35.881 -24.286 -11.324  0.00  0.00    -0.048 C 
ATOM      6  H   UNL     1      35.346 -25.690 -12.737  0.00  0.00    -0.084 HD
ATOM      7  H   UNL     1      34.156 -24.602 -12.437  0.00  0.00    -0.084 HD
ENDROOT
BRANCH   4   8
ATOM      8  O   UNL     1      37.221 -22.283 -11.413  0.00  0.00    -0.383 OA
ATOM      9  H   UNL     1      36.843 -21.751 -12.129  0.00  0.00    +0.210 HD
ENDBRANCH   4   8
BRANCH   3  10
ATOM     10  O   UNL     1      37.863 -24.943 -13.708  0.00  0.00    -0.452 OA
BRANCH  10  12
ATOM     11  O   UNL     1      39.058 -23.908 -15.393  0.00  0.00    -0.250 OA
ATOM     12  C   UNL     1      38.951 -24.751 -14.513  0.00  0.00    +0.317 C 
ATOM     13  C   UNL     1      40.024 -25.735 -14.159  0.00  0.00    +0.121 C 
ENDBRANCH  10  12
ENDBRANCH   3  10
BRANCH   2  14
ATOM     14  C   UNL     1      35.372 -24.441 -14.992  0.00  0.00    +0.009 C 
BRANCH  14  15
ATOM     15  C   UNL     1      34.065 -23.921 -15.529  0.00  0.00    -0.024 C 
ATOM     16  C   UNL     1      32.946 -23.906 -14.708  0.00  0.00    -0.001 C 
ATOM     17  C   UNL     1      33.998 -23.463 -16.838  0.00  0.00    -0.001 C 
ATOM     18  C   UNL     1      31.735 -23.423 -15.206  0.00  0.00    +0.037 C 
ATOM     19  C   UNL     1      32.788 -22.980 -17.335  0.00  0.00    +0.037 C 
ATOM     20  C   UNL     1      31.657 -22.961 -16.519  0.00  0.00    +0.139 C 
BRANCH  20  21
ATOM     21  O   UNL     1      30.475 -22.490 -17.004  0.00  0.00    -0.471 OA
ATOM     22  C   UNL     1      29.295 -22.824 -16.274  0.00  0.00    +0.252 C 
ENDBRANCH  20  21
ENDBRANCH  14  15
ENDBRANCH   2  14
TORSDOF 6
ENDMDL
MODEL 7
REMARK VINA RESULT:      -8.0      1.115      1.733
REMARK  Name = 253602
REMARK  6 active torsions:
REMARK  status: ('A' for Active; 'I' for Inactive)
REMARK    1  A    between atoms: C_2  and  C_14
REMARK    2  A    between atoms: C_3  and  O_10
REMARK    3  A    between atoms: C_4  and  O_8
REMARK    4  A    between atoms: O_10  and  C_12
REMARK    5  A    between atoms: C_14  and  C_15
REMARK    6  A    between atoms: C_20  and  O_21
REMARK                            x       y       z     vdW  Elec       q    Type
REMARK                         _______ _______ _______ _____ _____    ______ ____
ROOT
ATOM      1  N   UNL     1      34.970 -16.185 -20.951  0.00  0.00    +0.389 N 
ATOM      2  C   UNL     1      34.023 -16.910 -21.814  0.00  0.00    -0.014 C 
ATOM      3  C   UNL     1      33.722 -15.906 -22.924  0.00  0.00    +0.174 C 
ATOM      4  C   UNL     1      33.663 -14.578 -22.181  0.00  0.00    +0.127 C 
ATOM      5  C   UNL     1      34.490 -14.795 -20.913  0.00  0.00    -0.048 C 
ATOM      6  H   UNL     1      35.911 -16.226 -21.343  0.00  0.00    -0.084 HD
ATOM      7  H   UNL     1      35.017 -16.594 -20.018  0.00  0.00    -0.084 HD
ENDROOT
BRANCH   4   8
ATOM      8  O   UNL     1      32.312 -14.306 -21.826  0.00  0.00    -0.383 OA
ATOM      9  H   UNL     1      31.759 -15.068 -22.055  0.00  0.00    +0.210 HD
ENDBRANCH   4   8
BRANCH   3  10
ATOM     10  O   UNL     1      34.777 -15.878 -23.878  0.00  0.00    -0.452 OA
BRANCH  10  12
ATOM     11  O   UNL     1      34.881 -17.138 -25.811  0.00  0.00    -0.250 OA
ATOM     12  C   UNL     1      34.429 -16.207 -25.158  0.00  0.00    +0.317 C 
ATOM     13  C   UNL     1      33.390 -15.253 -25.664  0.00  0.00    +0.121 C 
ENDBRANCH  10  12
ENDBRANCH   3  10
BRANCH   2  14
ATOM     14  C   UNL     1      34.602 -18.234 -22.291  0.00  0.00    +0.009 C 
BRANCH  14  15
ATOM     15  C   UNL     1      34.392 -19.331 -21.281  0.00  0.00    -0.024 C 
ATOM     16  C   UNL     1      35.489 -20.025 -20.788  0.00  0.00    -0.001 C 
ATOM     17  C   UNL     1      33.106 -19.633 -20.857  0.00  0.00    -0.001 C 
ATOM     18  C   UNL     1      35.295 -21.041 -19.852  0.00  0.00    +0.037 C 
ATOM     19  C   UNL     1      32.912 -20.649 -19.921  0.00  0.00    +0.037 C 
ATOM     20  C   UNL     1      34.006 -21.352 -19.419  0.00  0.00    +0.139 C 
BRANCH  20  21
ATOM     21  O   UNL     1      33.817 -22.345 -18.506  0.00  0.00    -0.471 OA
ATOM     22  C   UNL     1      33.967 -23.687 -18.966  0.00  0.00    +0.252 C 
ENDBRANCH  20  21
ENDBRANCH  14  15
ENDBRANCH   2  14
TORSDOF 6
ENDMDL
MODEL 8
REMARK VINA RESULT:      -7.9      1.853      3.273
REMARK  Name = 253602
REMARK  6 active torsions:
REMARK  status: ('A' for Active; 'I' for Inactive)
REMARK    1  A    between atoms: C_2  and  C_14
REMARK    2  A    between atoms: C_3  and  O_10
REMARK    3  A    between atoms: C_4  and  O_8
REMARK    4  A    between atoms: O_10  and  C_12
REMARK    5  A    between atoms: C_14  and  C_15
REMARK    6  A    between atoms: C_20  and  O_21
REMARK                            x       y       z     vdW  Elec       q    Type
REMARK                         _______ _______ _______ _____ _____    ______ ____
ROOT
ATOM      1  N   UNL     1      34.191 -19.411 -23.204  0.00  0.00    +0.389 N 
ATOM      2  C   UNL     1      34.497 -19.436 -21.764  0.00  0.00    -0.014 C 
ATOM      3  C   UNL     1      34.947 -18.006 -21.478  0.00  0.00    +0.174 C 
ATOM      4  C   UNL     1      35.753 -17.643 -22.718  0.00  0.00    +0.127 C 
ATOM      5  C   UNL     1      35.229 -18.568 -23.816  0.00  0.00    -0.048 C 
ATOM      6  H   UNL     1      33.266 -19.011 -23.365  0.00  0.00    -0.084 HD
ATOM      7  H   UNL     1      34.183 -20.350 -23.603  0.00  0.00    -0.084 HD
ENDROOT
BRANCH   4   8
ATOM      8  O   UNL     1      37.126 -17.924 -22.475  0.00  0.00    -0.383 OA
ATOM      9  H   UNL     1      37.393 -17.525 -21.632  0.00  0.00    +0.210 HD
ENDBRANCH   4   8
BRANCH   3  10
ATOM     10  O   UNL     1      33.825 -17.138 -21.361  0.00  0.00    -0.452 OA
BRANCH  10  12
ATOM     11  O   UNL     1      34.934 -15.474 -20.204  0.00  0.00    -0.250 OA
ATOM     12  C   UNL     1      34.109 -15.843 -21.029  0.00  0.00    +0.317 C 
ATOM     13  C   UNL     1      33.252 -14.913 -21.833  0.00  0.00    +0.121 C 
ENDBRANCH  10  12
ENDBRANCH   3  10
BRANCH   2  14
ATOM     14  C   UNL     1      33.302 -19.905 -20.947  0.00  0.00    +0.009 C 
BRANCH  14  15
ATOM     15  C   UNL     1      33.704 -20.895 -19.886  0.00  0.00    -0.024 C 
ATOM     16  C   UNL     1      35.051 -21.148 -19.662  0.00  0.00    -0.001 C 
ATOM     17  C   UNL     1      32.723 -21.541 -19.147  0.00  0.00    -0.001 C 
ATOM     18  C   UNL     1      35.423 -22.065 -18.678  0.00  0.00    +0.037 C 
ATOM     19  C   UNL     1      33.095 -22.457 -18.163  0.00  0.00    +0.037 C 
ATOM     20  C   UNL     1      34.445 -22.719 -17.930  0.00  0.00    +0.139 C 
BRANCH  20  21
ATOM     21  O   UNL     1      34.809 -23.614 -16.971  0.00  0.00    -0.471 OA
ATOM     22  C   UNL     1      34.487 -23.285 -15.620  0.00  0.00    +0.252 C 
ENDBRANCH  20  21
ENDBRANCH  14  15
ENDBRANCH   2  14
TORSDOF 6
ENDMDL
MODEL 9
REMARK VINA RESULT:      -7.9      8.364     10.426
REMARK  Name = 253602
REMARK  6 active torsions:
REMARK  status: ('A' for Active; 'I' for Inactive)
REMARK    1  A    between atoms: C_2  and  C_14
REMARK    2  A    between atoms: C_3  and  O_10
REMARK    3  A    between atoms: C_4  and  O_8
REMARK    4  A    between atoms: O_10  and  C_12
REMARK    5  A    between atoms: C_14  and  C_15
REMARK    6  A    between atoms: C_20  and  O_21
REMARK                            x       y       z     vdW  Elec       q    Type
REMARK                         _______ _______ _______ _____ _____    ______ ____
ROOT
ATOM      1  N   UNL     1      34.471 -22.758 -15.006  0.00  0.00    +0.389 N 
ATOM      2  C   UNL     1      33.927 -24.052 -14.562  0.00  0.00    -0.014 C 
ATOM      3  C   UNL     1      35.107 -24.699 -13.843  0.00  0.00    +0.174 C 
ATOM      4  C   UNL     1      36.298 -24.299 -14.704  0.00  0.00    +0.127 C 
ATOM      5  C   UNL     1      35.851 -23.033 -15.436  0.00  0.00    -0.048 C 
ATOM      6  H   UNL     1      34.465 -22.086 -14.238  0.00  0.00    -0.084 HD
ATOM      7  H   UNL     1      33.915 -22.355 -15.760  0.00  0.00    -0.084 HD
ENDROOT
BRANCH   4   8
ATOM      8  O   UNL     1      36.551 -25.331 -15.650  0.00  0.00    -0.383 OA
ATOM      9  H   UNL     1      35.863 -25.318 -16.333  0.00  0.00    +0.210 HD
ENDBRANCH   4   8
BRANCH   3  10
ATOM     10  O   UNL     1      35.257 -24.161 -12.534  0.00  0.00    -0.452 OA
BRANCH  10  12
ATOM     11  O   UNL     1      36.644 -25.740 -11.576  0.00  0.00    -0.250 OA
ATOM     12  C   UNL     1      36.358 -24.581 -11.842  0.00  0.00    +0.317 C 
ATOM     13  C   UNL     1      37.190 -23.399 -11.445  0.00  0.00    +0.121 C 
ENDBRANCH  10  12
ENDBRANCH   3  10
BRANCH   2  14
ATOM     14  C   UNL     1      32.680 -23.870 -13.708  0.00  0.00    +0.009 C 
BRANCH  14  15
ATOM     15  C   UNL     1      31.423 -23.921 -14.537  0.00  0.00    -0.024 C 
ATOM     16  C   UNL     1      30.638 -25.066 -14.517  0.00  0.00    -0.001 C 
ATOM     17  C   UNL     1      31.069 -22.823 -15.308  0.00  0.00    -0.001 C 
ATOM     18  C   UNL     1      29.473 -25.112 -15.284  0.00  0.00    +0.037 C 
ATOM     19  C   UNL     1      29.904 -22.870 -16.074  0.00  0.00    +0.037 C 
ATOM     20  C   UNL     1      29.107 -24.015 -16.062  0.00  0.00    +0.139 C 
BRANCH  20  21
ATOM     21  O   UNL     1      27.971 -24.062 -16.811  0.00  0.00    -0.471 OA
ATOM     22  C   UNL     1      27.544 -22.843 -17.418  0.00  0.00    +0.252 C 
ENDBRANCH  20  21
ENDBRANCH  14  15
ENDBRANCH   2  14
TORSDOF 6
ENDMDL
