MODEL 1
REMARK VINA RESULT:      -7.1      0.000      0.000
REMARK  Name = 445993
REMARK  5 active torsions:
REMARK  status: ('A' for Active; 'I' for Inactive)
REMARK    1  A    between atoms: CB_1  and  CG_2
REMARK    2  A    between atoms: CB_1  and  CA_10
REMARK    3  A    between atoms: CZ_7  and  OH_8
REMARK    4  A    between atoms: CA_10  and  N_11
REMARK    5  A    between atoms: CA_10  and  C_16
REMARK                            x       y       z     vdW  Elec       q    Type
REMARK                         _______ _______ _______ _____ _____    ______ ____
ROOT
ATOM      1  CB  TYR A   1      35.843 -18.497 -21.721  0.00  0.00    +0.012 C 
ENDROOT
BRANCH   1   2
ATOM      2  CG  TYR A   1      35.058 -19.525 -20.980  0.00  0.00    -0.024 C 
ATOM      3  CD1 TYR A   1      35.717 -20.534 -20.278  0.00  0.00    -0.001 C 
ATOM      4  CD2 TYR A   1      33.663 -19.476 -20.987  0.00  0.00    -0.001 C 
ATOM      5  CE1 TYR A   1      34.982 -21.496 -19.584  0.00  0.00    +0.036 C 
ATOM      6  CE2 TYR A   1      32.928 -20.438 -20.293  0.00  0.00    +0.036 C 
ATOM      7  CZ  TYR A   1      33.587 -21.447 -19.591  0.00  0.00    +0.134 C 
BRANCH   7   8
ATOM      8  OH  TYR A   1      32.870 -22.386 -18.914  0.00  0.00    -0.506 OA
ATOM      9  HH  TYR A   1      33.149 -23.281 -18.919  0.00  0.00    +0.292 HD
ENDBRANCH   7   8
ENDBRANCH   1   2
BRANCH   1  10
ATOM     10  CA  TYR A   1      34.980 -17.405 -22.386  0.00  0.00    +0.005 C 
BRANCH  10  11
ATOM     11  N   TYR A   1      35.587 -16.972 -23.643  0.00  0.00    +0.387 N 
ATOM     12  H1  TYR A   1      36.588 -16.835 -23.508  0.00  0.00    -0.089 HD
ATOM     13  H2  TYR A   1      35.161 -16.095 -23.943  0.00  0.00    -0.089 HD
ATOM     14  H3  TYR A   1      35.435 -17.685 -24.357  0.00  0.00    -0.089 HD
ENDBRANCH  10  11
BRANCH  10  16
ATOM     15  O   TYR A   1      35.048 -16.190 -20.269  0.00  0.00    -0.291 OA
ATOM     16  C   TYR A   1      34.863 -16.191 -21.482  0.00  0.00    +0.185 C 
ENDBRANCH  10  16
ENDBRANCH   1  10
TORSDOF 5
ENDMDL
MODEL 2
REMARK VINA RESULT:      -7.1      0.095      1.398
REMARK  Name = 445993
REMARK  5 active torsions:
REMARK  status: ('A' for Active; 'I' for Inactive)
REMARK    1  A    between atoms: CB_1  and  CG_2
REMARK    2  A    between atoms: CB_1  and  CA_10
REMARK    3  A    between atoms: CZ_7  and  OH_8
REMARK    4  A    between atoms: CA_10  and  N_11
REMARK    5  A    between atoms: CA_10  and  C_16
REMARK                            x       y       z     vdW  Elec       q    Type
REMARK                         _______ _______ _______ _____ _____    ______ ____
ROOT
ATOM      1  CB  TYR A   1      35.777 -18.565 -21.791  0.00  0.00    +0.012 C 
ENDROOT
BRANCH   1   2
ATOM      2  CG  TYR A   1      35.005 -19.568 -21.004  0.00  0.00    -0.024 C 
ATOM      3  CD1 TYR A   1      33.611 -19.519 -20.988  0.00  0.00    -0.001 C 
ATOM      4  CD2 TYR A   1      35.676 -20.558 -20.285  0.00  0.00    -0.001 C 
ATOM      5  CE1 TYR A   1      32.888 -20.458 -20.251  0.00  0.00    +0.036 C 
ATOM      6  CE2 TYR A   1      34.953 -21.497 -19.549  0.00  0.00    +0.036 C 
ATOM      7  CZ  TYR A   1      33.559 -21.447 -19.532  0.00  0.00    +0.134 C 
BRANCH   7   8
ATOM      8  OH  TYR A   1      32.854 -22.363 -18.814  0.00  0.00    -0.506 OA
ATOM      9  HH  TYR A   1      32.025 -22.668 -19.129  0.00  0.00    +0.292 HD
ENDBRANCH   7   8
ENDBRANCH   1   2
BRANCH   1  10
ATOM     10  CA  TYR A   1      34.918 -17.417 -22.361  0.00  0.00    +0.005 C 
BRANCH  10  11
ATOM     11  N   TYR A   1      35.406 -17.024 -23.681  0.00  0.00    +0.387 N 
ATOM     12  H1  TYR A   1      35.416 -16.006 -23.750  0.00  0.00    -0.089 HD
ATOM     13  H2  TYR A   1      34.791 -17.406 -24.399  0.00  0.00    -0.089 HD
ATOM     14  H3  TYR A   1      36.351 -17.382 -23.816  0.00  0.00    -0.089 HD
ENDBRANCH  10  11
BRANCH  10  16
ATOM     15  O   TYR A   1      35.001 -16.227 -20.231  0.00  0.00    -0.291 OA
ATOM     16  C   TYR A   1      34.984 -16.199 -21.457  0.00  0.00    +0.185 C 
ENDBRANCH  10  16
ENDBRANCH   1  10
TORSDOF 5
ENDMDL
MODEL 3
REMARK VINA RESULT:      -6.9      1.948      2.217
REMARK  Name = 445993
REMARK  5 active torsions:
REMARK  status: ('A' for Active; 'I' for Inactive)
REMARK    1  A    between atoms: CB_1  and  CG_2
REMARK    2  A    between atoms: CB_1  and  CA_10
REMARK    3  A    between atoms: CZ_7  and  OH_8
REMARK    4  A    between atoms: CA_10  and  N_11
REMARK    5  A    between atoms: CA_10  and  C_16
REMARK                            x       y       z     vdW  Elec       q    Type
REMARK                         _______ _______ _______ _____ _____    ______ ____
ROOT
ATOM      1  CB  TYR A   1      34.254 -18.261 -21.975  0.00  0.00    +0.012 C 
ENDROOT
BRANCH   1   2
ATOM      2  CG  TYR A   1      34.415 -19.448 -21.088  0.00  0.00    -0.024 C 
ATOM      3  CD1 TYR A   1      35.690 -19.929 -20.791  0.00  0.00    -0.001 C 
ATOM      4  CD2 TYR A   1      33.290 -20.077 -20.553  0.00  0.00    -0.001 C 
ATOM      5  CE1 TYR A   1      35.841 -21.040 -19.961  0.00  0.00    +0.036 C 
ATOM      6  CE2 TYR A   1      33.441 -21.188 -19.722  0.00  0.00    +0.036 C 
ATOM      7  CZ  TYR A   1      34.716 -21.669 -19.426  0.00  0.00    +0.134 C 
BRANCH   7   8
ATOM      8  OH  TYR A   1      34.864 -22.753 -18.615  0.00  0.00    -0.506 OA
ATOM      9  HH  TYR A   1      34.505 -23.580 -18.870  0.00  0.00    +0.292 HD
ENDBRANCH   7   8
ENDBRANCH   1   2
BRANCH   1  10
ATOM     10  CA  TYR A   1      35.249 -18.216 -23.153  0.00  0.00    +0.005 C 
BRANCH  10  11
ATOM     11  N   TYR A   1      35.771 -16.862 -23.328  0.00  0.00    +0.387 N 
ATOM     12  H1  TYR A   1      35.043 -16.267 -23.722  0.00  0.00    -0.089 HD
ATOM     13  H2  TYR A   1      36.571 -16.885 -23.959  0.00  0.00    -0.089 HD
ATOM     14  H3  TYR A   1      36.062 -16.490 -22.424  0.00  0.00    -0.089 HD
ENDBRANCH  10  11
BRANCH  10  16
ATOM     15  O   TYR A   1      34.560 -17.966 -25.481  0.00  0.00    -0.291 OA
ATOM     16  C   TYR A   1      34.567 -18.625 -24.446  0.00  0.00    +0.185 C 
ENDBRANCH  10  16
ENDBRANCH   1  10
TORSDOF 5
ENDMDL
MODEL 4
REMARK VINA RESULT:      -6.4      2.889      5.306
REMARK  Name = 445993
REMARK  5 active torsions:
REMARK  status: ('A' for Active; 'I' for Inactive)
REMARK    1  A    between atoms: CB_1  and  CG_2
REMARK    2  A    between atoms: CB_1  and  CA_10
REMARK    3  A    between atoms: CZ_7  and  OH_8
REMARK    4  A    between atoms: CA_10  and  N_11
REMARK    5  A    between atoms: CA_10  and  C_16
REMARK                            x       y       z     vdW  Elec       q    Type
REMARK                         _______ _______ _______ _____ _____    ______ ____
ROOT
ATOM      1  CB  TYR A   1      35.710 -18.575 -21.412  0.00  0.00    +0.012 C 
ENDROOT
BRANCH   1   2
ATOM      2  CG  TYR A   1      35.259 -17.902 -22.665  0.00  0.00    -0.024 C 
ATOM      3  CD1 TYR A   1      35.095 -16.517 -22.692  0.00  0.00    -0.001 C 
ATOM      4  CD2 TYR A   1      35.004 -18.657 -23.809  0.00  0.00    -0.001 C 
ATOM      5  CE1 TYR A   1      34.673 -15.888 -23.863  0.00  0.00    +0.036 C 
ATOM      6  CE2 TYR A   1      34.582 -18.028 -24.981  0.00  0.00    +0.036 C 
ATOM      7  CZ  TYR A   1      34.418 -16.643 -25.008  0.00  0.00    +0.134 C 
BRANCH   7   8
ATOM      8  OH  TYR A   1      34.007 -16.028 -26.151  0.00  0.00    -0.506 OA
ATOM      9  HH  TYR A   1      34.627 -15.576 -26.689  0.00  0.00    +0.292 HD
ENDBRANCH   7   8
ENDBRANCH   1   2
BRANCH   1  10
ATOM     10  CA  TYR A   1      35.041 -19.941 -21.157  0.00  0.00    +0.005 C 
BRANCH  10  11
ATOM     11  N   TYR A   1      33.686 -19.757 -20.643  0.00  0.00    +0.387 N 
ATOM     12  H1  TYR A   1      33.126 -19.254 -21.332  0.00  0.00    -0.089 HD
ATOM     13  H2  TYR A   1      33.721 -19.219 -19.777  0.00  0.00    -0.089 HD
ATOM     14  H3  TYR A   1      33.263 -20.667 -20.462  0.00  0.00    -0.089 HD
ENDBRANCH  10  11
BRANCH  10  16
ATOM     15  O   TYR A   1      36.673 -20.277 -19.374  0.00  0.00    -0.291 OA
ATOM     16  C   TYR A   1      35.826 -20.738 -20.131  0.00  0.00    +0.185 C 
ENDBRANCH  10  16
ENDBRANCH   1  10
TORSDOF 5
ENDMDL
MODEL 5
REMARK VINA RESULT:      -6.4      2.873      5.273
REMARK  Name = 445993
REMARK  5 active torsions:
REMARK  status: ('A' for Active; 'I' for Inactive)
REMARK    1  A    between atoms: CB_1  and  CG_2
REMARK    2  A    between atoms: CB_1  and  CA_10
REMARK    3  A    between atoms: CZ_7  and  OH_8
REMARK    4  A    between atoms: CA_10  and  N_11
REMARK    5  A    between atoms: CA_10  and  C_16
REMARK                            x       y       z     vdW  Elec       q    Type
REMARK                         _______ _______ _______ _____ _____    ______ ____
ROOT
ATOM      1  CB  TYR A   1      35.622 -18.692 -21.495  0.00  0.00    +0.012 C 
ENDROOT
BRANCH   1   2
ATOM      2  CG  TYR A   1      35.181 -17.979 -22.728  0.00  0.00    -0.024 C 
ATOM      3  CD1 TYR A   1      34.918 -18.699 -23.893  0.00  0.00    -0.001 C 
ATOM      4  CD2 TYR A   1      35.031 -16.592 -22.716  0.00  0.00    -0.001 C 
ATOM      5  CE1 TYR A   1      34.506 -18.032 -25.047  0.00  0.00    +0.036 C 
ATOM      6  CE2 TYR A   1      34.619 -15.925 -23.870  0.00  0.00    +0.036 C 
ATOM      7  CZ  TYR A   1      34.356 -16.645 -25.035  0.00  0.00    +0.134 C 
BRANCH   7   8
ATOM      8  OH  TYR A   1      33.953 -15.994 -26.162  0.00  0.00    -0.506 OA
ATOM      9  HH  TYR A   1      34.447 -16.081 -26.953  0.00  0.00    +0.292 HD
ENDBRANCH   7   8
ENDBRANCH   1   2
BRANCH   1  10
ATOM     10  CA  TYR A   1      34.804 -19.960 -21.176  0.00  0.00    +0.005 C 
BRANCH  10  11
ATOM     11  N   TYR A   1      33.456 -19.601 -20.740  0.00  0.00    +0.387 N 
ATOM     12  H1  TYR A   1      33.320 -19.903 -19.775  0.00  0.00    -0.089 HD
ATOM     13  H2  TYR A   1      32.770 -20.060 -21.339  0.00  0.00    -0.089 HD
ATOM     14  H3  TYR A   1      33.337 -18.590 -20.799  0.00  0.00    -0.089 HD
ENDBRANCH  10  11
BRANCH  10  16
ATOM     15  O   TYR A   1      36.493 -20.439 -19.480  0.00  0.00    -0.291 OA
ATOM     16  C   TYR A   1      35.460 -20.755 -20.061  0.00  0.00    +0.185 C 
ENDBRANCH  10  16
ENDBRANCH   1  10
TORSDOF 5
ENDMDL
MODEL 6
REMARK VINA RESULT:      -6.3      2.130      5.075
REMARK  Name = 445993
REMARK  5 active torsions:
REMARK  status: ('A' for Active; 'I' for Inactive)
REMARK    1  A    between atoms: CB_1  and  CG_2
REMARK    2  A    between atoms: CB_1  and  CA_10
REMARK    3  A    between atoms: CZ_7  and  OH_8
REMARK    4  A    between atoms: CA_10  and  N_11
REMARK    5  A    between atoms: CA_10  and  C_16
REMARK                            x       y       z     vdW  Elec       q    Type
REMARK                         _______ _______ _______ _____ _____    ______ ____
ROOT
ATOM      1  CB  TYR A   1      33.568 -20.324 -20.839  0.00  0.00    +0.012 C 
ENDROOT
BRANCH   1   2
ATOM      2  CG  TYR A   1      34.144 -19.181 -21.604  0.00  0.00    -0.024 C 
ATOM      3  CD1 TYR A   1      34.584 -19.370 -22.913  0.00  0.00    -0.001 C 
ATOM      4  CD2 TYR A   1      34.240 -17.922 -21.010  0.00  0.00    -0.001 C 
ATOM      5  CE1 TYR A   1      35.123 -18.300 -23.629  0.00  0.00    +0.036 C 
ATOM      6  CE2 TYR A   1      34.779 -16.852 -21.726  0.00  0.00    +0.036 C 
ATOM      7  CZ  TYR A   1      35.219 -17.041 -23.036  0.00  0.00    +0.134 C 
BRANCH   7   8
ATOM      8  OH  TYR A   1      35.744 -15.998 -23.735  0.00  0.00    -0.506 OA
ATOM      9  HH  TYR A   1      35.176 -15.387 -24.161  0.00  0.00    +0.292 HD
ENDBRANCH   7   8
ENDBRANCH   1   2
BRANCH   1  10
ATOM     10  CA  TYR A   1      34.503 -20.883 -19.746  0.00  0.00    +0.005 C 
BRANCH  10  11
ATOM     11  N   TYR A   1      35.812 -21.204 -20.310  0.00  0.00    +0.387 N 
ATOM     12  H1  TYR A   1      35.852 -20.884 -21.278  0.00  0.00    -0.089 HD
ATOM     13  H2  TYR A   1      35.958 -22.212 -20.280  0.00  0.00    -0.089 HD
ATOM     14  H3  TYR A   1      36.540 -20.738 -19.769  0.00  0.00    -0.089 HD
ENDBRANCH  10  11
BRANCH  10  16
ATOM     15  O   TYR A   1      32.771 -22.296 -18.765  0.00  0.00    -0.291 OA
ATOM     16  C   TYR A   1      33.928 -22.154 -19.148  0.00  0.00    +0.185 C 
ENDBRANCH  10  16
ENDBRANCH   1  10
TORSDOF 5
ENDMDL
MODEL 7
REMARK VINA RESULT:      -6.2      2.161      5.278
REMARK  Name = 445993
REMARK  5 active torsions:
REMARK  status: ('A' for Active; 'I' for Inactive)
REMARK    1  A    between atoms: CB_1  and  CG_2
REMARK    2  A    between atoms: CB_1  and  CA_10
REMARK    3  A    between atoms: CZ_7  and  OH_8
REMARK    4  A    between atoms: CA_10  and  N_11
REMARK    5  A    between atoms: CA_10  and  C_16
REMARK                            x       y       z     vdW  Elec       q    Type
REMARK                         _______ _______ _______ _____ _____    ______ ____
ROOT
ATOM      1  CB  TYR A   1      34.926 -19.375 -22.081  0.00  0.00    +0.012 C 
ENDROOT
BRANCH   1   2
ATOM      2  CG  TYR A   1      34.815 -17.908 -22.323  0.00  0.00    -0.024 C 
ATOM      3  CD1 TYR A   1      34.706 -17.031 -21.244  0.00  0.00    -0.001 C 
ATOM      4  CD2 TYR A   1      34.821 -17.413 -23.627  0.00  0.00    -0.001 C 
ATOM      5  CE1 TYR A   1      34.602 -15.658 -21.470  0.00  0.00    +0.036 C 
ATOM      6  CE2 TYR A   1      34.717 -16.040 -23.853  0.00  0.00    +0.036 C 
ATOM      7  CZ  TYR A   1      34.608 -15.163 -22.774  0.00  0.00    +0.134 C 
BRANCH   7   8
ATOM      8  OH  TYR A   1      34.507 -13.823 -22.994  0.00  0.00    -0.506 OA
ATOM      9  HH  TYR A   1      34.087 -13.506 -23.770  0.00  0.00    +0.292 HD
ENDBRANCH   7   8
ENDBRANCH   1   2
BRANCH   1  10
ATOM     10  CA  TYR A   1      34.580 -19.803 -20.640  0.00  0.00    +0.005 C 
BRANCH  10  11
ATOM     11  N   TYR A   1      35.428 -20.918 -20.223  0.00  0.00    +0.387 N 
ATOM     12  H1  TYR A   1      35.217 -21.737 -20.794  0.00  0.00    -0.089 HD
ATOM     13  H2  TYR A   1      35.249 -21.133 -19.242  0.00  0.00    -0.089 HD
ATOM     14  H3  TYR A   1      36.408 -20.664 -20.342  0.00  0.00    -0.089 HD
ENDBRANCH  10  11
BRANCH  10  16
ATOM     15  O   TYR A   1      32.649 -20.892 -19.618  0.00  0.00    -0.291 OA
ATOM     16  C   TYR A   1      33.134 -20.256 -20.548  0.00  0.00    +0.185 C 
ENDBRANCH  10  16
ENDBRANCH   1  10
TORSDOF 5
ENDMDL
MODEL 8
REMARK VINA RESULT:      -6.2      8.357      9.117
REMARK  Name = 445993
REMARK  5 active torsions:
REMARK  status: ('A' for Active; 'I' for Inactive)
REMARK    1  A    between atoms: CB_1  and  CG_2
REMARK    2  A    between atoms: CB_1  and  CA_10
REMARK    3  A    between atoms: CZ_7  and  OH_8
REMARK    4  A    between atoms: CA_10  and  N_11
REMARK    5  A    between atoms: CA_10  and  C_16
REMARK                            x       y       z     vdW  Elec       q    Type
REMARK                         _______ _______ _______ _____ _____    ______ ____
ROOT
ATOM      1  CB  TYR A   1      28.243 -23.473 -17.023  0.00  0.00    +0.012 C 
ENDROOT
BRANCH   1   2
ATOM      2  CG  TYR A   1      29.313 -23.879 -16.067  0.00  0.00    -0.024 C 
ATOM      3  CD1 TYR A   1      30.493 -23.141 -15.987  0.00  0.00    -0.001 C 
ATOM      4  CD2 TYR A   1      29.133 -24.997 -15.252  0.00  0.00    -0.001 C 
ATOM      5  CE1 TYR A   1      31.494 -23.521 -15.092  0.00  0.00    +0.036 C 
ATOM      6  CE2 TYR A   1      30.134 -25.377 -14.358  0.00  0.00    +0.036 C 
ATOM      7  CZ  TYR A   1      31.314 -24.638 -14.277  0.00  0.00    +0.134 C 
BRANCH   7   8
ATOM      8  OH  TYR A   1      32.291 -25.009 -13.404  0.00  0.00    -0.506 OA
ATOM      9  HH  TYR A   1      32.335 -25.894 -13.099  0.00  0.00    +0.292 HD
ENDBRANCH   7   8
ENDBRANCH   1   2
BRANCH   1  10
ATOM     10  CA  TYR A   1      27.582 -22.119 -16.689  0.00  0.00    +0.005 C 
BRANCH  10  11
ATOM     11  N   TYR A   1      26.859 -22.206 -15.422  0.00  0.00    +0.387 N 
ATOM     12  H1  TYR A   1      26.045 -21.592 -15.454  0.00  0.00    -0.089 HD
ATOM     13  H2  TYR A   1      27.472 -21.917 -14.660  0.00  0.00    -0.089 HD
ATOM     14  H3  TYR A   1      26.554 -23.166 -15.269  0.00  0.00    -0.089 HD
ENDBRANCH  10  11
BRANCH  10  16
ATOM     15  O   TYR A   1      26.243 -20.579 -18.028  0.00  0.00    -0.291 OA
ATOM     16  C   TYR A   1      26.590 -21.727 -17.768  0.00  0.00    +0.185 C 
ENDBRANCH  10  16
ENDBRANCH   1  10
TORSDOF 5
ENDMDL
MODEL 9
REMARK VINA RESULT:      -6.2      3.552      5.815
REMARK  Name = 445993
REMARK  5 active torsions:
REMARK  status: ('A' for Active; 'I' for Inactive)
REMARK    1  A    between atoms: CB_1  and  CG_2
REMARK    2  A    between atoms: CB_1  and  CA_10
REMARK    3  A    between atoms: CZ_7  and  OH_8
REMARK    4  A    between atoms: CA_10  and  N_11
REMARK    5  A    between atoms: CA_10  and  C_16
REMARK                            x       y       z     vdW  Elec       q    Type
REMARK                         _______ _______ _______ _____ _____    ______ ____
ROOT
ATOM      1  CB  TYR A   1      33.665 -23.242 -18.438  0.00  0.00    +0.012 C 
ENDROOT
BRANCH   1   2
ATOM      2  CG  TYR A   1      34.125 -22.066 -19.231  0.00  0.00    -0.024 C 
ATOM      3  CD1 TYR A   1      35.489 -21.841 -19.415  0.00  0.00    -0.001 C 
ATOM      4  CD2 TYR A   1      33.192 -21.191 -19.788  0.00  0.00    -0.001 C 
ATOM      5  CE1 TYR A   1      35.920 -20.740 -20.157  0.00  0.00    +0.036 C 
ATOM      6  CE2 TYR A   1      33.623 -20.091 -20.530  0.00  0.00    +0.036 C 
ATOM      7  CZ  TYR A   1      34.987 -19.866 -20.715  0.00  0.00    +0.134 C 
BRANCH   7   8
ATOM      8  OH  TYR A   1      35.408 -18.792 -21.438  0.00  0.00    -0.506 OA
ATOM      9  HH  TYR A   1      35.089 -18.661 -22.310  0.00  0.00    +0.292 HD
ENDBRANCH   7   8
ENDBRANCH   1   2
BRANCH   1  10
ATOM     10  CA  TYR A   1      33.441 -22.942 -16.941  0.00  0.00    +0.005 C 
BRANCH  10  11
ATOM     11  N   TYR A   1      34.254 -23.834 -16.117  0.00  0.00    +0.387 N 
ATOM     12  H1  TYR A   1      33.665 -24.573 -15.732  0.00  0.00    -0.089 HD
ATOM     13  H2  TYR A   1      34.674 -23.304 -15.354  0.00  0.00    -0.089 HD
ATOM     14  H3  TYR A   1      34.990 -24.249 -16.688  0.00  0.00    -0.089 HD
ENDBRANCH  10  11
BRANCH  10  16
ATOM     15  O   TYR A   1      31.030 -22.588 -17.082  0.00  0.00    -0.291 OA
ATOM     16  C   TYR A   1      31.986 -23.155 -16.564  0.00  0.00    +0.185 C 
ENDBRANCH  10  16
ENDBRANCH   1  10
TORSDOF 5
ENDMDL
