MODEL 1
REMARK VINA RESULT:      -4.7      0.000      0.000
REMARK  Name = 445278
REMARK  5 active torsions:
REMARK  status: ('A' for Active; 'I' for Inactive)
REMARK    1  A    between atoms: C_1  and  O_3
REMARK    2  A    between atoms: C_1  and  C_5
REMARK    3  A    between atoms: C_1  and  C_9
REMARK    4  A    between atoms: C_5  and  O_7
REMARK    5  A    between atoms: C_9  and  N_10
REMARK                            x       y       z     vdW  Elec       q    Type
REMARK                         _______ _______ _______ _____ _____    ______ ____
ROOT
ATOM      1  C   UNL     1      38.167 -25.914 -14.221  0.00  0.00    +0.093 C 
ATOM      2  C   UNL     1      39.367 -25.122 -14.756  0.00  0.00    +0.030 C 
ENDROOT
BRANCH   1   3
ATOM      3  O   UNL     1      38.399 -27.283 -14.588  0.00  0.00    -0.386 OA
ATOM      4  H   UNL     1      39.353 -27.453 -14.614  0.00  0.00    +0.210 HD
ENDBRANCH   1   3
BRANCH   1   5
ATOM      5  C   UNL     1      38.074 -25.814 -12.676  0.00  0.00    +0.133 C 
ATOM      6  C   UNL     1      38.063 -24.388 -12.128  0.00  0.00    +0.034 C 
BRANCH   5   7
ATOM      7  O   UNL     1      36.887 -26.465 -12.215  0.00  0.00    -0.382 OA
ATOM      8  H   UNL     1      36.609 -26.073 -11.373  0.00  0.00    +0.210 HD
ENDBRANCH   5   7
ENDBRANCH   1   5
BRANCH   1   9
ATOM      9  C   UNL     1      36.860 -25.478 -14.927  0.00  0.00    -0.056 C 
BRANCH   9  10
ATOM     10  N   UNL     1      35.912 -26.567 -15.133  0.00  0.00    +0.382 N 
ATOM     11  H   UNL     1      35.002 -26.183 -15.386  0.00  0.00    -0.089 HD
ATOM     12  H   UNL     1      35.825 -27.110 -14.274  0.00  0.00    -0.089 HD
ATOM     13  H   UNL     1      36.247 -27.171 -15.884  0.00  0.00    -0.089 HD
ENDBRANCH   9  10
ENDBRANCH   1   9
TORSDOF 5
ENDMDL
MODEL 2
REMARK VINA RESULT:      -4.4      1.363      2.456
REMARK  Name = 445278
REMARK  5 active torsions:
REMARK  status: ('A' for Active; 'I' for Inactive)
REMARK    1  A    between atoms: C_1  and  O_3
REMARK    2  A    between atoms: C_1  and  C_5
REMARK    3  A    between atoms: C_1  and  C_9
REMARK    4  A    between atoms: C_5  and  O_7
REMARK    5  A    between atoms: C_9  and  N_10
REMARK                            x       y       z     vdW  Elec       q    Type
REMARK                         _______ _______ _______ _____ _____    ______ ____
ROOT
ATOM      1  C   UNL     1      37.665 -25.154 -13.927  0.00  0.00    +0.093 C 
ATOM      2  C   UNL     1      37.491 -25.796 -12.544  0.00  0.00    +0.030 C 
ENDROOT
BRANCH   1   3
ATOM      3  O   UNL     1      37.979 -23.774 -13.688  0.00  0.00    -0.386 OA
ATOM      4  H   UNL     1      38.422 -23.687 -12.830  0.00  0.00    +0.210 HD
ENDBRANCH   1   3
BRANCH   1   5
ATOM      5  C   UNL     1      38.837 -25.811 -14.706  0.00  0.00    +0.133 C 
ATOM      6  C   UNL     1      40.225 -25.500 -14.151  0.00  0.00    +0.034 C 
BRANCH   5   7
ATOM      7  O   UNL     1      38.681 -27.232 -14.715  0.00  0.00    -0.382 OA
ATOM      8  H   UNL     1      39.348 -27.634 -14.139  0.00  0.00    +0.210 HD
ENDBRANCH   5   7
ENDBRANCH   1   5
BRANCH   1   9
ATOM      9  C   UNL     1      36.336 -25.180 -14.718  0.00  0.00    -0.056 C 
BRANCH   9  10
ATOM     10  N   UNL     1      35.912 -26.519 -15.112  0.00  0.00    +0.382 N 
ATOM     11  H   UNL     1      34.987 -26.710 -14.727  0.00  0.00    -0.089 HD
ATOM     12  H   UNL     1      36.576 -27.205 -14.754  0.00  0.00    -0.089 HD
ATOM     13  H   UNL     1      35.876 -26.579 -16.130  0.00  0.00    -0.089 HD
ENDBRANCH   9  10
ENDBRANCH   1   9
TORSDOF 5
ENDMDL
MODEL 3
REMARK VINA RESULT:      -4.4     11.613     12.285
REMARK  Name = 445278
REMARK  5 active torsions:
REMARK  status: ('A' for Active; 'I' for Inactive)
REMARK    1  A    between atoms: C_1  and  O_3
REMARK    2  A    between atoms: C_1  and  C_5
REMARK    3  A    between atoms: C_1  and  C_9
REMARK    4  A    between atoms: C_5  and  O_7
REMARK    5  A    between atoms: C_9  and  N_10
REMARK                            x       y       z     vdW  Elec       q    Type
REMARK                         _______ _______ _______ _____ _____    ______ ____
ROOT
ATOM      1  C   UNL     1      41.771 -14.575 -17.218  0.00  0.00    +0.093 C 
ATOM      2  C   UNL     1      42.882 -13.555 -17.500  0.00  0.00    +0.030 C 
ENDROOT
BRANCH   1   3
ATOM      3  O   UNL     1      40.740 -14.317 -18.183  0.00  0.00    -0.386 OA
ATOM      4  H   UNL     1      40.141 -15.078 -18.227  0.00  0.00    +0.210 HD
ENDBRANCH   1   3
BRANCH   1   5
ATOM      5  C   UNL     1      42.285 -16.028 -17.403  0.00  0.00    +0.133 C 
ATOM      6  C   UNL     1      42.870 -16.327 -18.782  0.00  0.00    +0.034 C 
BRANCH   5   7
ATOM      7  O   UNL     1      43.294 -16.316 -16.432  0.00  0.00    -0.382 OA
ATOM      8  H   UNL     1      43.639 -17.210 -16.580  0.00  0.00    +0.210 HD
ENDBRANCH   5   7
ENDBRANCH   1   5
BRANCH   1   9
ATOM      9  C   UNL     1      41.146 -14.338 -15.823  0.00  0.00    -0.056 C 
BRANCH   9  10
ATOM     10  N   UNL     1      40.575 -15.539 -15.222  0.00  0.00    +0.382 N 
ATOM     11  H   UNL     1      40.742 -16.337 -15.834  0.00  0.00    -0.089 HD
ATOM     12  H   UNL     1      39.571 -15.412 -15.096  0.00  0.00    -0.089 HD
ATOM     13  H   UNL     1      41.013 -15.707 -14.316  0.00  0.00    -0.089 HD
ENDBRANCH   9  10
ENDBRANCH   1   9
TORSDOF 5
ENDMDL
MODEL 4
REMARK VINA RESULT:      -4.3     11.449     12.221
REMARK  Name = 445278
REMARK  5 active torsions:
REMARK  status: ('A' for Active; 'I' for Inactive)
REMARK    1  A    between atoms: C_1  and  O_3
REMARK    2  A    between atoms: C_1  and  C_5
REMARK    3  A    between atoms: C_1  and  C_9
REMARK    4  A    between atoms: C_5  and  O_7
REMARK    5  A    between atoms: C_9  and  N_10
REMARK                            x       y       z     vdW  Elec       q    Type
REMARK                         _______ _______ _______ _____ _____    ______ ____
ROOT
ATOM      1  C   UNL     1      35.310 -18.223 -22.607  0.00  0.00    +0.093 C 
ATOM      2  C   UNL     1      34.815 -19.052 -23.800  0.00  0.00    +0.030 C 
ENDROOT
BRANCH   1   3
ATOM      3  O   UNL     1      36.742 -18.195 -22.710  0.00  0.00    -0.386 OA
ATOM      4  H   UNL     1      37.002 -18.328 -23.635  0.00  0.00    +0.210 HD
ENDBRANCH   1   3
BRANCH   1   5
ATOM      5  C   UNL     1      34.771 -16.770 -22.672  0.00  0.00    +0.133 C 
ATOM      6  C   UNL     1      34.702 -16.054 -21.325  0.00  0.00    +0.034 C 
BRANCH   5   7
ATOM      7  O   UNL     1      35.590 -15.983 -23.541  0.00  0.00    -0.382 OA
ATOM      8  H   UNL     1      36.174 -15.419 -23.011  0.00  0.00    +0.210 HD
ENDBRANCH   5   7
ENDBRANCH   1   5
BRANCH   1   9
ATOM      9  C   UNL     1      34.972 -18.925 -21.270  0.00  0.00    -0.056 C 
BRANCH   9  10
ATOM     10  N   UNL     1      36.144 -19.252 -20.465  0.00  0.00    +0.382 N 
ATOM     11  H   UNL     1      36.777 -18.452 -20.446  0.00  0.00    -0.089 HD
ATOM     12  H   UNL     1      36.624 -20.054 -20.873  0.00  0.00    -0.089 HD
ATOM     13  H   UNL     1      35.851 -19.477 -19.514  0.00  0.00    -0.089 HD
ENDBRANCH   9  10
ENDBRANCH   1   9
TORSDOF 5
ENDMDL
MODEL 5
REMARK VINA RESULT:      -4.3     11.163     12.066
REMARK  Name = 445278
REMARK  5 active torsions:
REMARK  status: ('A' for Active; 'I' for Inactive)
REMARK    1  A    between atoms: C_1  and  O_3
REMARK    2  A    between atoms: C_1  and  C_5
REMARK    3  A    between atoms: C_1  and  C_9
REMARK    4  A    between atoms: C_5  and  O_7
REMARK    5  A    between atoms: C_9  and  N_10
REMARK                            x       y       z     vdW  Elec       q    Type
REMARK                         _______ _______ _______ _____ _____    ______ ____
ROOT
ATOM      1  C   UNL     1      35.209 -18.219 -21.415  0.00  0.00    +0.093 C 
ATOM      2  C   UNL     1      33.977 -19.113 -21.223  0.00  0.00    +0.030 C 
ENDROOT
BRANCH   1   3
ATOM      3  O   UNL     1      36.223 -18.748 -20.548  0.00  0.00    -0.386 OA
ATOM      4  H   UNL     1      37.098 -18.496 -20.882  0.00  0.00    +0.210 HD
ENDBRANCH   1   3
BRANCH   1   5
ATOM      5  C   UNL     1      35.718 -18.273 -22.880  0.00  0.00    +0.133 C 
ATOM      6  C   UNL     1      34.866 -19.121 -23.821  0.00  0.00    +0.034 C 
BRANCH   5   7
ATOM      7  O   UNL     1      35.782 -16.952 -23.424  0.00  0.00    -0.382 OA
ATOM      8  H   UNL     1      36.388 -16.412 -22.893  0.00  0.00    +0.210 HD
ENDBRANCH   5   7
ENDBRANCH   1   5
BRANCH   1   9
ATOM      9  C   UNL     1      34.922 -16.775 -20.937  0.00  0.00    -0.056 C 
BRANCH   9  10
ATOM     10  N   UNL     1      33.635 -16.253 -21.383  0.00  0.00    +0.382 N 
ATOM     11  H   UNL     1      33.043 -17.025 -21.689  0.00  0.00    -0.089 HD
ATOM     12  H   UNL     1      33.780 -15.608 -22.159  0.00  0.00    -0.089 HD
ATOM     13  H   UNL     1      33.182 -15.761 -20.612  0.00  0.00    -0.089 HD
ENDBRANCH   9  10
ENDBRANCH   1   9
TORSDOF 5
ENDMDL
MODEL 6
REMARK VINA RESULT:      -4.3      2.044      2.872
REMARK  Name = 445278
REMARK  5 active torsions:
REMARK  status: ('A' for Active; 'I' for Inactive)
REMARK    1  A    between atoms: C_1  and  O_3
REMARK    2  A    between atoms: C_1  and  C_5
REMARK    3  A    between atoms: C_1  and  C_9
REMARK    4  A    between atoms: C_5  and  O_7
REMARK    5  A    between atoms: C_9  and  N_10
REMARK                            x       y       z     vdW  Elec       q    Type
REMARK                         _______ _______ _______ _____ _____    ______ ____
ROOT
ATOM      1  C   UNL     1      37.588 -25.601 -14.733  0.00  0.00    +0.093 C 
ATOM      2  C   UNL     1      36.453 -24.627 -15.077  0.00  0.00    +0.030 C 
ENDROOT
BRANCH   1   3
ATOM      3  O   UNL     1      37.622 -26.564 -15.797  0.00  0.00    -0.386 OA
ATOM      4  H   UNL     1      37.433 -27.445 -15.441  0.00  0.00    +0.210 HD
ENDBRANCH   1   3
BRANCH   1   5
ATOM      5  C   UNL     1      38.955 -24.868 -14.671  0.00  0.00    +0.133 C 
ATOM      6  C   UNL     1      40.174 -25.782 -14.779  0.00  0.00    +0.034 C 
BRANCH   5   7
ATOM      7  O   UNL     1      39.041 -23.905 -15.724  0.00  0.00    -0.382 OA
ATOM      8  H   UNL     1      38.737 -24.305 -16.554  0.00  0.00    +0.210 HD
ENDBRANCH   5   7
ENDBRANCH   1   5
BRANCH   1   9
ATOM      9  C   UNL     1      37.271 -26.380 -13.435  0.00  0.00    -0.056 C 
BRANCH   9  10
ATOM     10  N   UNL     1      36.433 -25.643 -12.496  0.00  0.00    +0.382 N 
ATOM     11  H   UNL     1      35.635 -25.247 -12.991  0.00  0.00    -0.089 HD
ATOM     12  H   UNL     1      36.977 -24.892 -12.073  0.00  0.00    -0.089 HD
ATOM     13  H   UNL     1      36.102 -26.275 -11.767  0.00  0.00    -0.089 HD
ENDBRANCH   9  10
ENDBRANCH   1   9
TORSDOF 5
ENDMDL
MODEL 7
REMARK VINA RESULT:      -4.2      1.761      2.140
REMARK  Name = 445278
REMARK  5 active torsions:
REMARK  status: ('A' for Active; 'I' for Inactive)
REMARK    1  A    between atoms: C_1  and  O_3
REMARK    2  A    between atoms: C_1  and  C_5
REMARK    3  A    between atoms: C_1  and  C_9
REMARK    4  A    between atoms: C_5  and  O_7
REMARK    5  A    between atoms: C_9  and  N_10
REMARK                            x       y       z     vdW  Elec       q    Type
REMARK                         _______ _______ _______ _____ _____    ______ ____
ROOT
ATOM      1  C   UNL     1      37.020 -24.908 -13.905  0.00  0.00    +0.093 C 
ATOM      2  C   UNL     1      35.783 -24.223 -14.503  0.00  0.00    +0.030 C 
ENDROOT
BRANCH   1   3
ATOM      3  O   UNL     1      38.116 -24.007 -14.121  0.00  0.00    -0.386 OA
ATOM      4  H   UNL     1      38.143 -23.353 -13.405  0.00  0.00    +0.210 HD
ENDBRANCH   1   3
BRANCH   1   5
ATOM      5  C   UNL     1      36.849 -25.141 -12.381  0.00  0.00    +0.133 C 
ATOM      6  C   UNL     1      35.573 -24.551 -11.783  0.00  0.00    +0.034 C 
BRANCH   5   7
ATOM      7  O   UNL     1      36.853 -26.543 -12.098  0.00  0.00    -0.382 OA
ATOM      8  H   UNL     1      37.305 -26.702 -11.255  0.00  0.00    +0.210 HD
ENDBRANCH   5   7
ENDBRANCH   1   5
BRANCH   1   9
ATOM      9  C   UNL     1      37.354 -26.209 -14.673  0.00  0.00    -0.056 C 
BRANCH   9  10
ATOM     10  N   UNL     1      36.177 -26.941 -15.130  0.00  0.00    +0.382 N 
ATOM     11  H   UNL     1      35.877 -26.573 -16.032  0.00  0.00    -0.089 HD
ATOM     12  H   UNL     1      35.424 -26.831 -14.451  0.00  0.00    -0.089 HD
ATOM     13  H   UNL     1      36.408 -27.930 -15.225  0.00  0.00    -0.089 HD
ENDBRANCH   9  10
ENDBRANCH   1   9
TORSDOF 5
ENDMDL
MODEL 8
REMARK VINA RESULT:      -4.1      1.899      2.752
REMARK  Name = 445278
REMARK  5 active torsions:
REMARK  status: ('A' for Active; 'I' for Inactive)
REMARK    1  A    between atoms: C_1  and  O_3
REMARK    2  A    between atoms: C_1  and  C_5
REMARK    3  A    between atoms: C_1  and  C_9
REMARK    4  A    between atoms: C_5  and  O_7
REMARK    5  A    between atoms: C_9  and  N_10
REMARK                            x       y       z     vdW  Elec       q    Type
REMARK                         _______ _______ _______ _____ _____    ______ ____
ROOT
ATOM      1  C   UNL     1      36.998 -25.390 -12.797  0.00  0.00    +0.093 C 
ATOM      2  C   UNL     1      38.182 -24.565 -12.274  0.00  0.00    +0.030 C 
ENDROOT
BRANCH   1   3
ATOM      3  O   UNL     1      36.782 -26.430 -11.832  0.00  0.00    -0.386 OA
ATOM      4  H   UNL     1      35.853 -26.424 -11.553  0.00  0.00    +0.210 HD
ENDBRANCH   1   3
BRANCH   1   5
ATOM      5  C   UNL     1      35.715 -24.523 -12.902  0.00  0.00    +0.133 C 
ATOM      6  C   UNL     1      35.057 -24.521 -14.281  0.00  0.00    +0.034 C 
BRANCH   5   7
ATOM      7  O   UNL     1      34.742 -24.975 -11.957  0.00  0.00    -0.382 OA
ATOM      8  H   UNL     1      34.348 -25.804 -12.270  0.00  0.00    +0.210 HD
ENDBRANCH   5   7
ENDBRANCH   1   5
BRANCH   1   9
ATOM      9  C   UNL     1      37.357 -26.086 -14.131  0.00  0.00    -0.056 C 
BRANCH   9  10
ATOM     10  N   UNL     1      38.776 -26.396 -14.269  0.00  0.00    +0.382 N 
ATOM     11  H   UNL     1      39.241 -25.642 -14.774  0.00  0.00    -0.089 HD
ATOM     12  H   UNL     1      38.884 -27.269 -14.787  0.00  0.00    -0.089 HD
ATOM     13  H   UNL     1      39.194 -26.495 -13.344  0.00  0.00    -0.089 HD
ENDBRANCH   9  10
ENDBRANCH   1   9
TORSDOF 5
ENDMDL
MODEL 9
REMARK VINA RESULT:      -4.1      2.388      3.071
REMARK  Name = 445278
REMARK  5 active torsions:
REMARK  status: ('A' for Active; 'I' for Inactive)
REMARK    1  A    between atoms: C_1  and  O_3
REMARK    2  A    between atoms: C_1  and  C_5
REMARK    3  A    between atoms: C_1  and  C_9
REMARK    4  A    between atoms: C_5  and  O_7
REMARK    5  A    between atoms: C_9  and  N_10
REMARK                            x       y       z     vdW  Elec       q    Type
REMARK                         _______ _______ _______ _____ _____    ______ ____
ROOT
ATOM      1  C   UNL     1      38.131 -24.832 -14.182  0.00  0.00    +0.093 C 
ATOM      2  C   UNL     1      39.400 -25.549 -13.702  0.00  0.00    +0.030 C 
ENDROOT
BRANCH   1   3
ATOM      3  O   UNL     1      38.529 -24.025 -15.301  0.00  0.00    -0.386 OA
ATOM      4  H   UNL     1      37.958 -24.220 -16.060  0.00  0.00    +0.210 HD
ENDBRANCH   1   3
BRANCH   1   5
ATOM      5  C   UNL     1      37.056 -25.848 -14.650  0.00  0.00    +0.133 C 
ATOM      6  C   UNL     1      35.704 -25.231 -15.004  0.00  0.00    +0.034 C 
BRANCH   5   7
ATOM      7  O   UNL     1      37.523 -26.559 -15.799  0.00  0.00    -0.382 OA
ATOM      8  H   UNL     1      37.961 -25.942 -16.405  0.00  0.00    +0.210 HD
ENDBRANCH   5   7
ENDBRANCH   1   5
BRANCH   1   9
ATOM      9  C   UNL     1      37.602 -23.862 -13.099  0.00  0.00    -0.056 C 
BRANCH   9  10
ATOM     10  N   UNL     1      38.182 -24.083 -11.778  0.00  0.00    +0.382 N 
ATOM     11  H   UNL     1      38.895 -23.377 -11.598  0.00  0.00    -0.089 HD
ATOM     12  H   UNL     1      38.606 -25.010 -11.744  0.00  0.00    -0.089 HD
ATOM     13  H   UNL     1      37.451 -24.017 -11.070  0.00  0.00    -0.089 HD
ENDBRANCH   9  10
ENDBRANCH   1   9
TORSDOF 5
ENDMDL
