MODEL 1
REMARK VINA RESULT:      -7.6      0.000      0.000
REMARK  Name = 250653
REMARK  4 active torsions:
REMARK  status: ('A' for Active; 'I' for Inactive)
REMARK    1  A    between atoms: C_1  and  N_11
REMARK    2  A    between atoms: C_4  and  C_8
REMARK    3  A    between atoms: C_8  and  O_9
REMARK    4  A    between atoms: N_11  and  S_13
REMARK                            x       y       z     vdW  Elec       q    Type
REMARK                         _______ _______ _______ _____ _____    ______ ____
ROOT
ATOM      1  C   UNL     1      34.441 -18.831 -21.284  0.00  0.00    +0.064 C 
ATOM      2  C   UNL     1      35.670 -19.404 -20.955  0.00  0.00    +0.016 C 
ATOM      3  C   UNL     1      33.255 -19.441 -20.876  0.00  0.00    +0.016 C 
ATOM      4  C   UNL     1      34.526 -21.198 -19.810  0.00  0.00    +0.076 C 
ATOM      5  C   UNL     1      35.712 -20.588 -20.217  0.00  0.00    +0.008 C 
ATOM      6  C   UNL     1      33.297 -20.625 -20.139  0.00  0.00    +0.008 C 
ENDROOT
BRANCH   4   8
ATOM      7  O   UNL     1      33.840 -23.413 -19.222  0.00  0.00    -0.245 OA
ATOM      8  C   UNL     1      34.569 -22.433 -19.042  0.00  0.00    +0.338 C 
BRANCH   8   9
ATOM      9  O   UNL     1      35.524 -22.410 -18.073  0.00  0.00    -0.477 OA
ATOM     10  H   UNL     1      35.311 -22.107 -17.213  0.00  0.00    +0.295 HD
ENDBRANCH   8   9
ENDBRANCH   4   8
BRANCH   1  11
ATOM     11  N   UNL     1      34.398 -17.619 -22.037  0.00  0.00    -0.219 N 
ATOM     12  H   UNL     1      34.527 -17.625 -23.013  0.00  0.00    +0.173 HD
BRANCH  11  13
ATOM     13  S   UNL     1      34.114 -16.146 -21.192  0.00  0.00    +0.056 S 
ATOM     14  O   UNL     1      32.687 -16.019 -20.959  0.00  0.00    -0.154 OA
ATOM     15  O   UNL     1      35.056 -15.982 -20.103  0.00  0.00    -0.154 OA
ATOM     16  C   UNL     1      34.535 -14.970 -22.460  0.00  0.00    +0.200 C 
ENDBRANCH  11  13
ENDBRANCH   1  11
TORSDOF 4
ENDMDL
MODEL 2
REMARK VINA RESULT:      -7.6      0.045      1.292
REMARK  Name = 250653
REMARK  4 active torsions:
REMARK  status: ('A' for Active; 'I' for Inactive)
REMARK    1  A    between atoms: C_1  and  N_11
REMARK    2  A    between atoms: C_4  and  C_8
REMARK    3  A    between atoms: C_8  and  O_9
REMARK    4  A    between atoms: N_11  and  S_13
REMARK                            x       y       z     vdW  Elec       q    Type
REMARK                         _______ _______ _______ _____ _____    ______ ____
ROOT
ATOM      1  C   UNL     1      34.427 -18.845 -21.259  0.00  0.00    +0.064 C 
ATOM      2  C   UNL     1      33.236 -19.445 -20.846  0.00  0.00    +0.016 C 
ATOM      3  C   UNL     1      35.651 -19.432 -20.941  0.00  0.00    +0.016 C 
ATOM      4  C   UNL     1      34.496 -21.219 -19.796  0.00  0.00    +0.076 C 
ATOM      5  C   UNL     1      33.272 -20.632 -20.114  0.00  0.00    +0.008 C 
ATOM      6  C   UNL     1      35.686 -20.620 -20.209  0.00  0.00    +0.008 C 
ENDROOT
BRANCH   4   8
ATOM      7  O   UNL     1      33.834 -23.452 -19.246  0.00  0.00    -0.245 OA
ATOM      8  C   UNL     1      34.533 -22.456 -19.031  0.00  0.00    +0.338 C 
BRANCH   8   9
ATOM      9  O   UNL     1      35.443 -22.416 -18.021  0.00  0.00    -0.477 OA
ATOM     10  H   UNL     1      35.163 -22.237 -17.145  0.00  0.00    +0.295 HD
ENDBRANCH   8   9
ENDBRANCH   4   8
BRANCH   1  11
ATOM     11  N   UNL     1      34.391 -17.631 -22.009  0.00  0.00    -0.219 N 
ATOM     12  H   UNL     1      34.524 -17.634 -22.984  0.00  0.00    +0.173 HD
BRANCH  11  13
ATOM     13  S   UNL     1      34.110 -16.158 -21.160  0.00  0.00    +0.056 S 
ATOM     14  O   UNL     1      32.685 -16.036 -20.914  0.00  0.00    -0.154 OA
ATOM     15  O   UNL     1      35.061 -15.993 -20.079  0.00  0.00    -0.154 OA
ATOM     16  C   UNL     1      34.517 -14.981 -22.430  0.00  0.00    +0.200 C 
ENDBRANCH  11  13
ENDBRANCH   1  11
TORSDOF 4
ENDMDL
MODEL 3
REMARK VINA RESULT:      -7.0      1.979      2.658
REMARK  Name = 250653
REMARK  4 active torsions:
REMARK  status: ('A' for Active; 'I' for Inactive)
REMARK    1  A    between atoms: C_1  and  N_11
REMARK    2  A    between atoms: C_4  and  C_8
REMARK    3  A    between atoms: C_8  and  O_9
REMARK    4  A    between atoms: N_11  and  S_13
REMARK                            x       y       z     vdW  Elec       q    Type
REMARK                         _______ _______ _______ _____ _____    ______ ____
ROOT
ATOM      1  C   UNL     1      34.278 -19.254 -20.985  0.00  0.00    +0.064 C 
ATOM      2  C   UNL     1      33.067 -19.829 -20.599  0.00  0.00    +0.016 C 
ATOM      3  C   UNL     1      35.484 -19.855 -20.624  0.00  0.00    +0.016 C 
ATOM      4  C   UNL     1      34.268 -21.607 -19.489  0.00  0.00    +0.076 C 
ATOM      5  C   UNL     1      33.063 -21.006 -19.850  0.00  0.00    +0.008 C 
ATOM      6  C   UNL     1      35.478 -21.032 -19.875  0.00  0.00    +0.008 C 
ENDROOT
BRANCH   4   8
ATOM      7  O   UNL     1      34.552 -22.920 -17.508  0.00  0.00    -0.245 OA
ATOM      8  C   UNL     1      34.263 -22.834 -18.706  0.00  0.00    +0.338 C 
BRANCH   8   9
ATOM      9  O   UNL     1      33.895 -23.918 -19.441  0.00  0.00    -0.477 OA
ATOM     10  H   UNL     1      33.875 -24.767 -19.046  0.00  0.00    +0.295 HD
ENDBRANCH   8   9
ENDBRANCH   4   8
BRANCH   1  11
ATOM     11  N   UNL     1      34.284 -18.050 -21.753  0.00  0.00    -0.219 N 
ATOM     12  H   UNL     1      33.839 -17.236 -21.421  0.00  0.00    +0.173 HD
BRANCH  11  13
ATOM     13  S   UNL     1      35.089 -18.059 -23.276  0.00  0.00    +0.056 S 
ATOM     14  O   UNL     1      36.513 -18.203 -23.040  0.00  0.00    -0.154 OA
ATOM     15  O   UNL     1      34.406 -18.924 -24.218  0.00  0.00    -0.154 OA
ATOM     16  C   UNL     1      34.818 -16.376 -23.785  0.00  0.00    +0.200 C 
ENDBRANCH  11  13
ENDBRANCH   1  11
TORSDOF 4
ENDMDL
MODEL 4
REMARK VINA RESULT:      -7.0      7.294      8.117
REMARK  Name = 250653
REMARK  4 active torsions:
REMARK  status: ('A' for Active; 'I' for Inactive)
REMARK    1  A    between atoms: C_1  and  N_11
REMARK    2  A    between atoms: C_4  and  C_8
REMARK    3  A    between atoms: C_8  and  O_9
REMARK    4  A    between atoms: N_11  and  S_13
REMARK                            x       y       z     vdW  Elec       q    Type
REMARK                         _______ _______ _______ _____ _____    ______ ____
ROOT
ATOM      1  C   UNL     1      30.926 -22.862 -16.057  0.00  0.00    +0.064 C 
ATOM      2  C   UNL     1      32.110 -23.256 -16.682  0.00  0.00    +0.016 C 
ATOM      3  C   UNL     1      30.846 -22.837 -14.666  0.00  0.00    +0.016 C 
ATOM      4  C   UNL     1      33.134 -23.598 -14.521  0.00  0.00    +0.076 C 
ATOM      5  C   UNL     1      33.214 -23.624 -15.912  0.00  0.00    +0.008 C 
ATOM      6  C   UNL     1      31.950 -23.205 -13.897  0.00  0.00    +0.008 C 
ENDROOT
BRANCH   4   8
ATOM      7  O   UNL     1      35.273 -24.598 -14.134  0.00  0.00    -0.245 OA
ATOM      8  C   UNL     1      34.285 -23.984 -13.719  0.00  0.00    +0.338 C 
BRANCH   8   9
ATOM      9  O   UNL     1      34.170 -23.591 -12.421  0.00  0.00    -0.477 OA
ATOM     10  H   UNL     1      34.854 -23.785 -11.811  0.00  0.00    +0.295 HD
ENDBRANCH   8   9
ENDBRANCH   4   8
BRANCH   1  11
ATOM     11  N   UNL     1      29.796 -22.484 -16.844  0.00  0.00    -0.219 N 
ATOM     12  H   UNL     1      29.836 -21.707 -17.448  0.00  0.00    +0.173 HD
BRANCH  11  13
ATOM     13  S   UNL     1      28.358 -23.423 -16.707  0.00  0.00    +0.056 S 
ATOM     14  O   UNL     1      27.715 -23.470 -18.007  0.00  0.00    -0.154 OA
ATOM     15  O   UNL     1      28.604 -24.642 -15.961  0.00  0.00    -0.154 OA
ATOM     16  C   UNL     1      27.376 -22.347 -15.685  0.00  0.00    +0.200 C 
ENDBRANCH  11  13
ENDBRANCH   1  11
TORSDOF 4
ENDMDL
MODEL 5
REMARK VINA RESULT:      -6.8      2.782      6.665
REMARK  Name = 250653
REMARK  4 active torsions:
REMARK  status: ('A' for Active; 'I' for Inactive)
REMARK    1  A    between atoms: C_1  and  N_11
REMARK    2  A    between atoms: C_4  and  C_8
REMARK    3  A    between atoms: C_8  and  O_9
REMARK    4  A    between atoms: N_11  and  S_13
REMARK                            x       y       z     vdW  Elec       q    Type
REMARK                         _______ _______ _______ _____ _____    ______ ____
ROOT
ATOM      1  C   UNL     1      34.945 -16.648 -21.453  0.00  0.00    +0.064 C 
ATOM      2  C   UNL     1      35.073 -16.383 -22.817  0.00  0.00    +0.016 C 
ATOM      3  C   UNL     1      34.306 -15.730 -20.620  0.00  0.00    +0.016 C 
ATOM      4  C   UNL     1      33.923 -14.280 -22.515  0.00  0.00    +0.076 C 
ATOM      5  C   UNL     1      34.562 -15.197 -23.347  0.00  0.00    +0.008 C 
ATOM      6  C   UNL     1      33.795 -14.545 -21.152  0.00  0.00    +0.008 C 
ENDROOT
BRANCH   4   8
ATOM      7  O   UNL     1      32.298 -12.544 -22.783  0.00  0.00    -0.245 OA
ATOM      8  C   UNL     1      33.391 -13.044 -23.068  0.00  0.00    +0.338 C 
BRANCH   8   9
ATOM      9  O   UNL     1      34.241 -12.465 -23.959  0.00  0.00    -0.477 OA
ATOM     10  H   UNL     1      34.499 -12.931 -24.730  0.00  0.00    +0.295 HD
ENDBRANCH   8   9
ENDBRANCH   4   8
BRANCH   1  11
ATOM     11  N   UNL     1      35.467 -17.861 -20.910  0.00  0.00    -0.219 N 
ATOM     12  H   UNL     1      36.254 -17.853 -20.319  0.00  0.00    +0.173 HD
BRANCH  11  13
ATOM     13  S   UNL     1      34.682 -19.339 -21.318  0.00  0.00    +0.056 S 
ATOM     14  O   UNL     1      33.339 -19.311 -20.770  0.00  0.00    -0.154 OA
ATOM     15  O   UNL     1      34.904 -19.677 -22.710  0.00  0.00    -0.154 OA
ATOM     16  C   UNL     1      35.620 -20.477 -20.323  0.00  0.00    +0.200 C 
ENDBRANCH  11  13
ENDBRANCH   1  11
TORSDOF 4
ENDMDL
MODEL 6
REMARK VINA RESULT:      -6.7      2.937      5.881
REMARK  Name = 250653
REMARK  4 active torsions:
REMARK  status: ('A' for Active; 'I' for Inactive)
REMARK    1  A    between atoms: C_1  and  N_11
REMARK    2  A    between atoms: C_4  and  C_8
REMARK    3  A    between atoms: C_8  and  O_9
REMARK    4  A    between atoms: N_11  and  S_13
REMARK                            x       y       z     vdW  Elec       q    Type
REMARK                         _______ _______ _______ _____ _____    ______ ____
ROOT
ATOM      1  C   UNL     1      35.261 -20.797 -19.821  0.00  0.00    +0.064 C 
ATOM      2  C   UNL     1      34.079 -20.342 -20.406  0.00  0.00    +0.016 C 
ATOM      3  C   UNL     1      36.478 -20.204 -20.155  0.00  0.00    +0.016 C 
ATOM      4  C   UNL     1      35.332 -18.702 -21.661  0.00  0.00    +0.076 C 
ATOM      5  C   UNL     1      34.115 -19.294 -21.327  0.00  0.00    +0.008 C 
ATOM      6  C   UNL     1      36.514 -19.156 -21.076  0.00  0.00    +0.008 C 
ENDROOT
BRANCH   4   8
ATOM      7  O   UNL     1      35.145 -16.423 -22.367  0.00  0.00    -0.245 OA
ATOM      8  C   UNL     1      35.370 -17.611 -22.623  0.00  0.00    +0.338 C 
BRANCH   8   9
ATOM      9  O   UNL     1      35.690 -18.033 -23.876  0.00  0.00    -0.477 OA
ATOM     10  H   UNL     1      36.030 -18.896 -24.008  0.00  0.00    +0.295 HD
ENDBRANCH   8   9
ENDBRANCH   4   8
BRANCH   1  11
ATOM     11  N   UNL     1      35.225 -21.868 -18.878  0.00  0.00    -0.219 N 
ATOM     12  H   UNL     1      36.001 -22.065 -18.305  0.00  0.00    +0.173 HD
BRANCH  11  13
ATOM     13  S   UNL     1      33.785 -22.808 -18.770  0.00  0.00    +0.056 S 
ATOM     14  O   UNL     1      32.646 -21.918 -18.894  0.00  0.00    -0.154 OA
ATOM     15  O   UNL     1      33.882 -24.000 -19.590  0.00  0.00    -0.154 OA
ATOM     16  C   UNL     1      33.865 -23.310 -17.066  0.00  0.00    +0.200 C 
ENDBRANCH  11  13
ENDBRANCH   1  11
TORSDOF 4
ENDMDL
MODEL 7
REMARK VINA RESULT:      -6.6      3.363      6.688
REMARK  Name = 250653
REMARK  4 active torsions:
REMARK  status: ('A' for Active; 'I' for Inactive)
REMARK    1  A    between atoms: C_1  and  N_11
REMARK    2  A    between atoms: C_4  and  C_8
REMARK    3  A    between atoms: C_8  and  O_9
REMARK    4  A    between atoms: N_11  and  S_13
REMARK                            x       y       z     vdW  Elec       q    Type
REMARK                         _______ _______ _______ _____ _____    ______ ____
ROOT
ATOM      1  C   UNL     1      35.371 -17.432 -23.511  0.00  0.00    +0.064 C 
ATOM      2  C   UNL     1      35.122 -16.097 -23.191  0.00  0.00    +0.016 C 
ATOM      3  C   UNL     1      34.834 -17.983 -24.674  0.00  0.00    +0.016 C 
ATOM      4  C   UNL     1      33.798 -15.864 -25.198  0.00  0.00    +0.076 C 
ATOM      5  C   UNL     1      34.335 -15.313 -24.035  0.00  0.00    +0.008 C 
ATOM      6  C   UNL     1      34.047 -17.198 -25.518  0.00  0.00    +0.008 C 
ENDROOT
BRANCH   4   8
ATOM      7  O   UNL     1      32.929 -13.812 -26.070  0.00  0.00    -0.245 OA
ATOM      8  C   UNL     1      32.976 -15.046 -26.077  0.00  0.00    +0.338 C 
BRANCH   8   9
ATOM      9  O   UNL     1      32.237 -15.794 -26.941  0.00  0.00    -0.477 OA
ATOM     10  H   UNL     1      31.458 -15.437 -27.321  0.00  0.00    +0.295 HD
ENDBRANCH   8   9
ENDBRANCH   4   8
BRANCH   1  11
ATOM     11  N   UNL     1      36.177 -18.235 -22.648  0.00  0.00    -0.219 N 
ATOM     12  H   UNL     1      36.998 -18.666 -22.979  0.00  0.00    +0.173 HD
BRANCH  11  13
ATOM     13  S   UNL     1      35.673 -18.430 -21.013  0.00  0.00    +0.056 S 
ATOM     14  O   UNL     1      36.557 -19.386 -20.372  0.00  0.00    -0.154 OA
ATOM     15  O   UNL     1      35.404 -17.146 -20.396  0.00  0.00    -0.154 OA
ATOM     16  C   UNL     1      34.116 -19.254 -21.260  0.00  0.00    +0.200 C 
ENDBRANCH  11  13
ENDBRANCH   1  11
TORSDOF 4
ENDMDL
MODEL 8
REMARK VINA RESULT:      -6.6      7.415      8.786
REMARK  Name = 250653
REMARK  4 active torsions:
REMARK  status: ('A' for Active; 'I' for Inactive)
REMARK    1  A    between atoms: C_1  and  N_11
REMARK    2  A    between atoms: C_4  and  C_8
REMARK    3  A    between atoms: C_8  and  O_9
REMARK    4  A    between atoms: N_11  and  S_13
REMARK                            x       y       z     vdW  Elec       q    Type
REMARK                         _______ _______ _______ _____ _____    ______ ____
ROOT
ATOM      1  C   UNL     1      32.235 -24.228 -14.566  0.00  0.00    +0.064 C 
ATOM      2  C   UNL     1      32.268 -23.257 -15.569  0.00  0.00    +0.016 C 
ATOM      3  C   UNL     1      31.052 -24.916 -14.299  0.00  0.00    +0.016 C 
ATOM      4  C   UNL     1      29.933 -23.664 -16.037  0.00  0.00    +0.076 C 
ATOM      5  C   UNL     1      31.116 -22.976 -16.304  0.00  0.00    +0.008 C 
ATOM      6  C   UNL     1      29.900 -24.634 -15.035  0.00  0.00    +0.008 C 
ENDROOT
BRANCH   4   8
ATOM      7  O   UNL     1      27.935 -24.208 -17.237  0.00  0.00    -0.245 OA
ATOM      8  C   UNL     1      28.732 -23.369 -16.803  0.00  0.00    +0.338 C 
BRANCH   8   9
ATOM      9  O   UNL     1      28.557 -22.035 -17.004  0.00  0.00    -0.477 OA
ATOM     10  H   UNL     1      27.705 -21.656 -16.921  0.00  0.00    +0.295 HD
ENDBRANCH   8   9
ENDBRANCH   4   8
BRANCH   1  11
ATOM     11  N   UNL     1      33.414 -24.517 -13.814  0.00  0.00    -0.219 N 
ATOM     12  H   UNL     1      33.355 -24.877 -12.900  0.00  0.00    +0.173 HD
BRANCH  11  13
ATOM     13  S   UNL     1      34.942 -24.217 -14.550  0.00  0.00    +0.056 S 
ATOM     14  O   UNL     1      35.086 -25.107 -15.687  0.00  0.00    -0.154 OA
ATOM     15  O   UNL     1      35.178 -22.794 -14.693  0.00  0.00    -0.154 OA
ATOM     16  C   UNL     1      36.028 -24.825 -13.278  0.00  0.00    +0.200 C 
ENDBRANCH  11  13
ENDBRANCH   1  11
TORSDOF 4
ENDMDL
MODEL 9
REMARK VINA RESULT:      -6.6      7.163      8.622
REMARK  Name = 250653
REMARK  4 active torsions:
REMARK  status: ('A' for Active; 'I' for Inactive)
REMARK    1  A    between atoms: C_1  and  N_11
REMARK    2  A    between atoms: C_4  and  C_8
REMARK    3  A    between atoms: C_8  and  O_9
REMARK    4  A    between atoms: N_11  and  S_13
REMARK                            x       y       z     vdW  Elec       q    Type
REMARK                         _______ _______ _______ _____ _____    ______ ____
ROOT
ATOM      1  C   UNL     1      33.252 -23.673 -14.541  0.00  0.00    +0.064 C 
ATOM      2  C   UNL     1      32.639 -24.623 -13.723  0.00  0.00    +0.016 C 
ATOM      3  C   UNL     1      32.544 -23.098 -15.595  0.00  0.00    +0.016 C 
ATOM      4  C   UNL     1      30.608 -24.422 -15.016  0.00  0.00    +0.076 C 
ATOM      5  C   UNL     1      31.316 -24.997 -13.962  0.00  0.00    +0.008 C 
ATOM      6  C   UNL     1      31.221 -23.473 -15.833  0.00  0.00    +0.008 C 
ENDROOT
BRANCH   4   8
ATOM      7  O   UNL     1      28.554 -24.473 -16.242  0.00  0.00    -0.245 OA
ATOM      8  C   UNL     1      29.230 -24.815 -15.266  0.00  0.00    +0.338 C 
BRANCH   8   9
ATOM      9  O   UNL     1      28.734 -25.624 -14.290  0.00  0.00    -0.477 OA
ATOM     10  H   UNL     1      27.890 -25.452 -13.923  0.00  0.00    +0.295 HD
ENDBRANCH   8   9
ENDBRANCH   4   8
BRANCH   1  11
ATOM     11  N   UNL     1      34.605 -23.288 -14.296  0.00  0.00    -0.219 N 
ATOM     12  H   UNL     1      34.836 -22.699 -13.541  0.00  0.00    +0.173 HD
BRANCH  11  13
ATOM     13  S   UNL     1      35.824 -23.881 -15.359  0.00  0.00    +0.056 S 
ATOM     14  O   UNL     1      35.669 -25.319 -15.478  0.00  0.00    -0.154 OA
ATOM     15  O   UNL     1      35.929 -23.050 -16.543  0.00  0.00    -0.154 OA
ATOM     16  C   UNL     1      37.272 -23.599 -14.365  0.00  0.00    +0.200 C 
ENDBRANCH  11  13
ENDBRANCH   1  11
TORSDOF 4
ENDMDL
