MODEL 1
REMARK VINA RESULT:      -8.5      0.000      0.000
REMARK  Name = 11572962
REMARK  4 active torsions:
REMARK  status: ('A' for Active; 'I' for Inactive)
REMARK    1  A    between atoms: C_3  and  C_20
REMARK    2  A    between atoms: C_5  and  C_12
REMARK    3  A    between atoms: C_7  and  C_19
REMARK    4  A    between atoms: C_20  and  N_21
REMARK                            x       y       z     vdW  Elec       q    Type
REMARK                         _______ _______ _______ _____ _____    ______ ____
ROOT
ATOM      1  N   UNL     1      34.947 -22.041 -18.665  0.00  0.00    -0.285 N 
ATOM      2  N   UNL     1      32.756 -22.404 -18.579  0.00  0.00    -0.251 NA
ATOM      3  C   UNL     1      35.577 -22.990 -16.405  0.00  0.00    -0.029 C 
ATOM      4  C   UNL     1      34.723 -22.635 -17.449  0.00  0.00    +0.057 C 
ATOM      5  C   UNL     1      34.989 -23.591 -15.287  0.00  0.00    +0.002 C 
ATOM      6  C   UNL     1      33.347 -22.851 -17.419  0.00  0.00    +0.074 C 
ATOM      7  C   UNL     1      33.612 -23.820 -15.228  0.00  0.00    +0.052 C 
ATOM      8  C   UNL     1      32.774 -23.456 -16.288  0.00  0.00    +0.083 C 
ATOM      9  C   UNL     1      33.743 -21.925 -19.302  0.00  0.00    +0.220 C 
ATOM     10  C   UNL     1      36.213 -21.606 -19.207  0.00  0.00    +0.114 C 
ENDROOT
BRANCH   5  12
ATOM     11 CL   UNL     1      36.250 -26.405 -15.371  0.00  0.00    -0.082 Cl
ATOM     12  C   UNL     1      35.840 -23.979 -14.171  0.00  0.00    +0.011 C 
ATOM     13  C   UNL     1      36.453 -25.228 -14.121  0.00  0.00    +0.058 C 
ATOM     14  C   UNL     1      36.030 -23.059 -13.143  0.00  0.00    +0.001 C 
ATOM     15  C   UNL     1      37.262 -25.559 -13.034  0.00  0.00    +0.011 C 
ATOM     16  C   UNL     1      36.840 -23.391 -12.057  0.00  0.00    +0.000 C 
ATOM     17  C   UNL     1      37.455 -24.641 -12.002  0.00  0.00    +0.001 C 
ENDBRANCH   5  12
BRANCH   7  19
ATOM     18  N   UNL     1      32.516 -24.934 -13.162  0.00  0.00    -0.191 NA
ATOM     19  C   UNL     1      33.006 -24.437 -14.084  0.00  0.00    +0.096 C 
ENDBRANCH   7  19
BRANCH   3  20
ATOM     20  C   UNL     1      37.051 -22.745 -16.464  0.00  0.00    -0.057 C 
BRANCH  20  21
ATOM     21  N   UNL     1      37.386 -21.374 -16.177  0.00  0.00    +0.383 N 
ATOM     22  H   UNL     1      36.597 -20.774 -16.419  0.00  0.00    -0.089 HD
ATOM     23  H   UNL     1      38.200 -21.102 -16.727  0.00  0.00    -0.089 HD
ATOM     24  H   UNL     1      37.596 -21.276 -15.185  0.00  0.00    -0.089 HD
ENDBRANCH  20  21
ENDBRANCH   3  20
TORSDOF 4
ENDMDL
MODEL 2
REMARK VINA RESULT:      -8.4      6.753      9.757
REMARK  Name = 11572962
REMARK  4 active torsions:
REMARK  status: ('A' for Active; 'I' for Inactive)
REMARK    1  A    between atoms: C_3  and  C_20
REMARK    2  A    between atoms: C_5  and  C_12
REMARK    3  A    between atoms: C_7  and  C_19
REMARK    4  A    between atoms: C_20  and  N_21
REMARK                            x       y       z     vdW  Elec       q    Type
REMARK                         _______ _______ _______ _____ _____    ______ ____
ROOT
ATOM      1  N   UNL     1      33.373 -14.335 -23.310  0.00  0.00    -0.285 N 
ATOM      2  N   UNL     1      33.667 -14.786 -25.466  0.00  0.00    -0.251 NA
ATOM      3  C   UNL     1      33.915 -16.621 -22.369  0.00  0.00    -0.029 C 
ATOM      4  C   UNL     1      33.734 -15.657 -23.361  0.00  0.00    +0.057 C 
ATOM      5  C   UNL     1      34.293 -17.898 -22.793  0.00  0.00    +0.002 C 
ATOM      6  C   UNL     1      33.912 -15.915 -24.718  0.00  0.00    +0.074 C 
ATOM      7  C   UNL     1      34.479 -18.187 -24.148  0.00  0.00    +0.052 C 
ATOM      8  C   UNL     1      34.292 -17.204 -25.126  0.00  0.00    +0.083 C 
ATOM      9  C   UNL     1      33.347 -13.859 -24.591  0.00  0.00    +0.220 C 
ATOM     10  C   UNL     1      33.069 -13.555 -22.133  0.00  0.00    +0.114 C 
ENDROOT
BRANCH   5  12
ATOM     11 CL   UNL     1      37.196 -18.536 -21.967  0.00  0.00    -0.082 Cl
ATOM     12  C   UNL     1      34.494 -18.939 -21.794  0.00  0.00    +0.011 C 
ATOM     13  C   UNL     1      35.766 -19.296 -21.358  0.00  0.00    +0.058 C 
ATOM     14  C   UNL     1      33.368 -19.575 -21.278  0.00  0.00    +0.001 C 
ATOM     15  C   UNL     1      35.914 -20.296 -20.397  0.00  0.00    +0.011 C 
ATOM     16  C   UNL     1      33.516 -20.575 -20.317  0.00  0.00    +0.000 C 
ATOM     17  C   UNL     1      34.790 -20.936 -19.877  0.00  0.00    +0.001 C 
ENDBRANCH   5  12
BRANCH   7  19
ATOM     18  N   UNL     1      35.181 -20.550 -24.942  0.00  0.00    -0.191 NA
ATOM     19  C   UNL     1      34.868 -19.496 -24.587  0.00  0.00    +0.096 C 
ENDBRANCH   7  19
BRANCH   3  20
ATOM     20  C   UNL     1      33.717 -16.317 -20.918  0.00  0.00    -0.057 C 
BRANCH  20  21
ATOM     21  N   UNL     1      34.944 -15.929 -20.272  0.00  0.00    +0.383 N 
ATOM     22  H   UNL     1      35.670 -15.791 -20.975  0.00  0.00    -0.089 HD
ATOM     23  H   UNL     1      35.232 -16.662 -19.624  0.00  0.00    -0.089 HD
ATOM     24  H   UNL     1      34.798 -15.060 -19.759  0.00  0.00    -0.089 HD
ENDBRANCH  20  21
ENDBRANCH   3  20
TORSDOF 4
ENDMDL
MODEL 3
REMARK VINA RESULT:      -7.5     13.955     16.894
REMARK  Name = 11572962
REMARK  4 active torsions:
REMARK  status: ('A' for Active; 'I' for Inactive)
REMARK    1  A    between atoms: C_3  and  C_20
REMARK    2  A    between atoms: C_5  and  C_12
REMARK    3  A    between atoms: C_7  and  C_19
REMARK    4  A    between atoms: C_20  and  N_21
REMARK                            x       y       z     vdW  Elec       q    Type
REMARK                         _______ _______ _______ _____ _____    ______ ____
ROOT
ATOM      1  N   UNL     1      32.287 -12.597 -22.121  0.00  0.00    -0.285 N 
ATOM      2  N   UNL     1      31.618 -12.063 -20.070  0.00  0.00    -0.251 NA
ATOM      3  C   UNL     1      32.722 -10.263 -22.997  0.00  0.00    -0.029 C 
ATOM      4  C   UNL     1      32.347 -11.228 -22.062  0.00  0.00    +0.057 C 
ATOM      5  C   UNL     1      32.658  -8.929 -22.585  0.00  0.00    +0.002 C 
ATOM      6  C   UNL     1      31.924 -10.919 -20.772  0.00  0.00    +0.074 C 
ATOM      7  C   UNL     1      32.237  -8.587 -21.297  0.00  0.00    +0.052 C 
ATOM      8  C   UNL     1      31.865  -9.573 -20.375  0.00  0.00    +0.083 C 
ATOM      9  C   UNL     1      31.847 -13.049 -20.908  0.00  0.00    +0.220 C 
ATOM     10  C   UNL     1      32.623 -13.442 -23.244  0.00  0.00    +0.114 C 
ENDROOT
BRANCH   5  12
ATOM     11 CL   UNL     1      30.389  -7.376 -23.984  0.00  0.00    -0.082 Cl
ATOM     12  C   UNL     1      33.039  -7.885 -23.526  0.00  0.00    +0.011 C 
ATOM     13  C   UNL     1      32.086  -7.130 -24.204  0.00  0.00    +0.058 C 
ATOM     14  C   UNL     1      34.397  -7.654 -23.731  0.00  0.00    +0.001 C 
ATOM     15  C   UNL     1      32.494  -6.137 -25.095  0.00  0.00    +0.011 C 
ATOM     16  C   UNL     1      34.805  -6.661 -24.622  0.00  0.00    +0.000 C 
ATOM     17  C   UNL     1      33.853  -5.903 -25.304  0.00  0.00    +0.001 C 
ENDBRANCH   5  12
BRANCH   7  19
ATOM     18  N   UNL     1      32.117  -6.117 -20.526  0.00  0.00    -0.191 NA
ATOM     19  C   UNL     1      32.170  -7.220 -20.870  0.00  0.00    +0.096 C 
ENDBRANCH   7  19
BRANCH   3  20
ATOM     20  C   UNL     1      33.172 -10.624 -24.376  0.00  0.00    -0.057 C 
BRANCH  20  21
ATOM     21  N   UNL     1      34.561 -11.003 -24.413  0.00  0.00    +0.383 N 
ATOM     22  H   UNL     1      34.724 -11.762 -23.751  0.00  0.00    -0.089 HD
ATOM     23  H   UNL     1      35.138 -10.201 -24.160  0.00  0.00    -0.089 HD
ATOM     24  H   UNL     1      34.804 -11.314 -25.353  0.00  0.00    -0.089 HD
ENDBRANCH  20  21
ENDBRANCH   3  20
TORSDOF 4
ENDMDL
MODEL 4
REMARK VINA RESULT:      -7.2     13.770     15.907
REMARK  Name = 11572962
REMARK  4 active torsions:
REMARK  status: ('A' for Active; 'I' for Inactive)
REMARK    1  A    between atoms: C_3  and  C_20
REMARK    2  A    between atoms: C_5  and  C_12
REMARK    3  A    between atoms: C_7  and  C_19
REMARK    4  A    between atoms: C_20  and  N_21
REMARK                            x       y       z     vdW  Elec       q    Type
REMARK                         _______ _______ _______ _____ _____    ______ ____
ROOT
ATOM      1  N   UNL     1      33.736 -12.150 -24.795  0.00  0.00    -0.285 N 
ATOM      2  N   UNL     1      32.862 -13.797 -23.586  0.00  0.00    -0.251 NA
ATOM      3  C   UNL     1      33.013 -10.198 -23.356  0.00  0.00    -0.029 C 
ATOM      4  C   UNL     1      33.132 -11.537 -23.727  0.00  0.00    +0.057 C 
ATOM      5  C   UNL     1      32.310  -9.932 -22.177  0.00  0.00    +0.002 C 
ATOM      6  C   UNL     1      32.593 -12.587 -22.987  0.00  0.00    +0.074 C 
ATOM      7  C   UNL     1      31.758 -10.963 -21.413  0.00  0.00    +0.052 C 
ATOM      8  C   UNL     1      31.891 -12.301 -21.804  0.00  0.00    +0.083 C 
ATOM      9  C   UNL     1      33.548 -13.497 -24.666  0.00  0.00    +0.220 C 
ATOM     10  C   UNL     1      34.452 -11.516 -25.878  0.00  0.00    +0.114 C 
ENDROOT
BRANCH   5  12
ATOM     11 CL   UNL     1      30.447  -8.122 -23.840  0.00  0.00    -0.082 Cl
ATOM     12  C   UNL     1      32.159  -8.549 -21.747  0.00  0.00    +0.011 C 
ATOM     13  C   UNL     1      31.340  -7.657 -22.434  0.00  0.00    +0.058 C 
ATOM     14  C   UNL     1      32.860  -8.134 -20.618  0.00  0.00    +0.001 C 
ATOM     15  C   UNL     1      31.220  -6.341 -21.987  0.00  0.00    +0.011 C 
ATOM     16  C   UNL     1      32.740  -6.818 -20.171  0.00  0.00    +0.000 C 
ATOM     17  C   UNL     1      31.921  -5.921 -20.856  0.00  0.00    +0.001 C 
ENDBRANCH   5  12
BRANCH   7  19
ATOM     18  N   UNL     1      30.459 -10.478 -19.225  0.00  0.00    -0.191 NA
ATOM     19  C   UNL     1      31.038 -10.695 -20.202  0.00  0.00    +0.096 C 
ENDBRANCH   7  19
BRANCH   3  20
ATOM     20  C   UNL     1      33.601  -9.091 -24.171  0.00  0.00    -0.057 C 
BRANCH  20  21
ATOM     21  N   UNL     1      34.947  -8.774 -23.766  0.00  0.00    +0.383 N 
ATOM     22  H   UNL     1      35.299  -8.003 -24.333  0.00  0.00    -0.089 HD
ATOM     23  H   UNL     1      35.541  -9.592 -23.898  0.00  0.00    -0.089 HD
ATOM     24  H   UNL     1      34.952  -8.505 -22.784  0.00  0.00    -0.089 HD
ENDBRANCH  20  21
ENDBRANCH   3  20
TORSDOF 4
ENDMDL
MODEL 5
REMARK VINA RESULT:      -7.2     13.849     16.803
REMARK  Name = 11572962
REMARK  4 active torsions:
REMARK  status: ('A' for Active; 'I' for Inactive)
REMARK    1  A    between atoms: C_3  and  C_20
REMARK    2  A    between atoms: C_5  and  C_12
REMARK    3  A    between atoms: C_7  and  C_19
REMARK    4  A    between atoms: C_20  and  N_21
REMARK                            x       y       z     vdW  Elec       q    Type
REMARK                         _______ _______ _______ _____ _____    ______ ____
ROOT
ATOM      1  N   UNL     1      32.767 -12.821 -23.015  0.00  0.00    -0.285 N 
ATOM      2  N   UNL     1      34.331 -12.620 -24.581  0.00  0.00    -0.251 NA
ATOM      3  C   UNL     1      32.405 -10.365 -22.524  0.00  0.00    -0.029 C 
ATOM      4  C   UNL     1      32.973 -11.472 -23.154  0.00  0.00    +0.057 C 
ATOM      5  C   UNL     1      32.867  -9.107 -22.923  0.00  0.00    +0.002 C 
ATOM      6  C   UNL     1      33.954 -11.372 -24.137  0.00  0.00    +0.074 C 
ATOM      7  C   UNL     1      33.850  -8.975 -23.907  0.00  0.00    +0.052 C 
ATOM      8  C   UNL     1      34.406 -10.100 -24.527  0.00  0.00    +0.083 C 
ATOM      9  C   UNL     1      33.600 -13.464 -23.888  0.00  0.00    +0.220 C 
ATOM     10  C   UNL     1      31.845 -13.479 -22.119  0.00  0.00    +0.114 C 
ENDROOT
BRANCH   5  12
ATOM     11 CL   UNL     1      30.667  -7.589 -24.463  0.00  0.00    -0.082 Cl
ATOM     12  C   UNL     1      32.304  -7.921 -22.294  0.00  0.00    +0.011 C 
ATOM     13  C   UNL     1      31.307  -7.171 -22.911  0.00  0.00    +0.058 C 
ATOM     14  C   UNL     1      32.791  -7.550 -21.043  0.00  0.00    +0.001 C 
ATOM     15  C   UNL     1      30.793  -6.042 -22.273  0.00  0.00    +0.011 C 
ATOM     16  C   UNL     1      32.277  -6.422 -20.405  0.00  0.00    +0.000 C 
ATOM     17  C   UNL     1      31.278  -5.668 -21.020  0.00  0.00    +0.001 C 
ENDBRANCH   5  12
BRANCH   7  19
ATOM     18  N   UNL     1      34.708  -6.648 -24.655  0.00  0.00    -0.191 NA
ATOM     19  C   UNL     1      34.325  -7.687 -24.321  0.00  0.00    +0.096 C 
ENDBRANCH   7  19
BRANCH   3  20
ATOM     20  C   UNL     1      31.354 -10.502 -21.470  0.00  0.00    -0.057 C 
BRANCH  20  21
ATOM     21  N   UNL     1      31.919 -10.736 -20.165  0.00  0.00    +0.383 N 
ATOM     22  H   UNL     1      32.451  -9.916 -19.874  0.00  0.00    -0.089 HD
ATOM     23  H   UNL     1      32.536 -11.547 -20.204  0.00  0.00    -0.089 HD
ATOM     24  H   UNL     1      31.170 -10.910 -19.497  0.00  0.00    -0.089 HD
ENDBRANCH  20  21
ENDBRANCH   3  20
TORSDOF 4
ENDMDL
MODEL 6
REMARK VINA RESULT:      -6.9      9.992     13.566
REMARK  Name = 11572962
REMARK  4 active torsions:
REMARK  status: ('A' for Active; 'I' for Inactive)
REMARK    1  A    between atoms: C_3  and  C_20
REMARK    2  A    between atoms: C_5  and  C_12
REMARK    3  A    between atoms: C_7  and  C_19
REMARK    4  A    between atoms: C_20  and  N_21
REMARK                            x       y       z     vdW  Elec       q    Type
REMARK                         _______ _______ _______ _____ _____    ______ ____
ROOT
ATOM      1  N   UNL     1      34.880 -17.159 -22.870  0.00  0.00    -0.285 N 
ATOM      2  N   UNL     1      34.360 -17.983 -24.867  0.00  0.00    -0.251 NA
ATOM      3  C   UNL     1      34.299 -14.733 -23.298  0.00  0.00    -0.029 C 
ATOM      4  C   UNL     1      34.441 -16.087 -23.604  0.00  0.00    +0.057 C 
ATOM      5  C   UNL     1      33.811 -13.906 -24.314  0.00  0.00    +0.002 C 
ATOM      6  C   UNL     1      34.122 -16.627 -24.847  0.00  0.00    +0.074 C 
ATOM      7  C   UNL     1      33.483 -14.419 -25.572  0.00  0.00    +0.052 C 
ATOM      8  C   UNL     1      33.633 -15.781 -25.857  0.00  0.00    +0.083 C 
ATOM      9  C   UNL     1      34.813 -18.267 -23.666  0.00  0.00    +0.220 C 
ATOM     10  C   UNL     1      35.337 -17.154 -21.499  0.00  0.00    +0.114 C 
ENDROOT
BRANCH   5  12
ATOM     11 CL   UNL     1      31.514 -13.074 -22.431  0.00  0.00    -0.082 Cl
ATOM     12  C   UNL     1      33.645 -12.485 -24.043  0.00  0.00    +0.011 C 
ATOM     13  C   UNL     1      32.639 -12.014 -23.206  0.00  0.00    +0.058 C 
ATOM     14  C   UNL     1      34.532 -11.597 -24.648  0.00  0.00    +0.001 C 
ATOM     15  C   UNL     1      32.517 -10.644 -22.971  0.00  0.00    +0.011 C 
ATOM     16  C   UNL     1      34.410 -10.227 -24.412  0.00  0.00    +0.000 C 
ATOM     17  C   UNL     1      33.402  -9.751 -23.574  0.00  0.00    +0.001 C 
ENDBRANCH   5  12
BRANCH   7  19
ATOM     18  N   UNL     1      32.575 -12.894 -27.459  0.00  0.00    -0.191 NA
ATOM     19  C   UNL     1      32.980 -13.574 -26.617  0.00  0.00    +0.096 C 
ENDBRANCH   7  19
BRANCH   3  20
ATOM     20  C   UNL     1      34.649 -14.180 -21.954  0.00  0.00    -0.057 C 
BRANCH  20  21
ATOM     21  N   UNL     1      33.702 -14.571 -20.942  0.00  0.00    +0.383 N 
ATOM     22  H   UNL     1      34.200 -14.983 -20.152  0.00  0.00    -0.089 HD
ATOM     23  H   UNL     1      33.054 -15.255 -21.330  0.00  0.00    -0.089 HD
ATOM     24  H   UNL     1      33.184 -13.752 -20.627  0.00  0.00    -0.089 HD
ENDBRANCH  20  21
ENDBRANCH   3  20
TORSDOF 4
ENDMDL
MODEL 7
REMARK VINA RESULT:      -6.9     11.113     13.720
REMARK  Name = 11572962
REMARK  4 active torsions:
REMARK  status: ('A' for Active; 'I' for Inactive)
REMARK    1  A    between atoms: C_3  and  C_20
REMARK    2  A    between atoms: C_5  and  C_12
REMARK    3  A    between atoms: C_7  and  C_19
REMARK    4  A    between atoms: C_20  and  N_21
REMARK                            x       y       z     vdW  Elec       q    Type
REMARK                         _______ _______ _______ _____ _____    ______ ____
ROOT
ATOM      1  N   UNL     1      32.421  -9.339 -22.635  0.00  0.00    -0.285 N 
ATOM      2  N   UNL     1      31.456  -9.800 -20.686  0.00  0.00    -0.251 NA
ATOM      3  C   UNL     1      32.964 -11.703 -23.356  0.00  0.00    -0.029 C 
ATOM      4  C   UNL     1      32.462 -10.705 -22.521  0.00  0.00    +0.057 C 
ATOM      5  C   UNL     1      32.833 -13.022 -22.911  0.00  0.00    +0.002 C 
ATOM      6  C   UNL     1      31.854 -10.968 -21.296  0.00  0.00    +0.074 C 
ATOM      7  C   UNL     1      32.228 -13.317 -21.687  0.00  0.00    +0.052 C 
ATOM      8  C   UNL     1      31.731 -12.300 -20.864  0.00  0.00    +0.083 C 
ATOM      9  C   UNL     1      31.812  -8.844 -21.516  0.00  0.00    +0.220 C 
ATOM     10  C   UNL     1      32.922  -8.536 -23.726  0.00  0.00    +0.114 C 
ENDROOT
BRANCH   5  12
ATOM     11 CL   UNL     1      35.124 -14.747 -21.775  0.00  0.00    -0.082 Cl
ATOM     12  C   UNL     1      33.342 -14.099 -23.749  0.00  0.00    +0.011 C 
ATOM     13  C   UNL     1      34.373 -14.931 -23.322  0.00  0.00    +0.058 C 
ATOM     14  C   UNL     1      32.763 -14.282 -25.002  0.00  0.00    +0.001 C 
ATOM     15  C   UNL     1      34.829 -15.953 -24.154  0.00  0.00    +0.011 C 
ATOM     16  C   UNL     1      33.219 -15.305 -25.834  0.00  0.00    +0.000 C 
ATOM     17  C   UNL     1      34.252 -16.140 -25.410  0.00  0.00    +0.001 C 
ENDBRANCH   5  12
BRANCH   7  19
ATOM     18  N   UNL     1      31.978 -15.758 -20.856  0.00  0.00    -0.191 NA
ATOM     19  C   UNL     1      32.090 -14.669 -21.227  0.00  0.00    +0.096 C 
ENDBRANCH   7  19
BRANCH   3  20
ATOM     20  C   UNL     1      33.613 -11.392 -24.667  0.00  0.00    -0.057 C 
BRANCH  20  21
ATOM     21  N   UNL     1      34.954 -10.891 -24.503  0.00  0.00    +0.383 N 
ATOM     22  H   UNL     1      34.931 -10.033 -23.951  0.00  0.00    -0.089 HD
ATOM     23  H   UNL     1      35.356 -10.694 -25.420  0.00  0.00    -0.089 HD
ATOM     24  H   UNL     1      35.522 -11.589 -24.025  0.00  0.00    -0.089 HD
ENDBRANCH  20  21
ENDBRANCH   3  20
TORSDOF 4
ENDMDL
MODEL 8
REMARK VINA RESULT:      -6.9     16.119     18.719
REMARK  Name = 11572962
REMARK  4 active torsions:
REMARK  status: ('A' for Active; 'I' for Inactive)
REMARK    1  A    between atoms: C_3  and  C_20
REMARK    2  A    between atoms: C_5  and  C_12
REMARK    3  A    between atoms: C_7  and  C_19
REMARK    4  A    between atoms: C_20  and  N_21
REMARK                            x       y       z     vdW  Elec       q    Type
REMARK                         _______ _______ _______ _____ _____    ______ ____
ROOT
ATOM      1  N   UNL     1      31.704  -4.185 -25.020  0.00  0.00    -0.285 N 
ATOM      2  N   UNL     1      33.549  -4.480 -26.223  0.00  0.00    -0.251 NA
ATOM      3  C   UNL     1      31.812  -6.302 -23.637  0.00  0.00    -0.029 C 
ATOM      4  C   UNL     1      32.231  -5.379 -24.595  0.00  0.00    +0.057 C 
ATOM      5  C   UNL     1      32.612  -7.436 -23.465  0.00  0.00    +0.002 C 
ATOM      6  C   UNL     1      33.382  -5.541 -25.362  0.00  0.00    +0.074 C 
ATOM      7  C   UNL     1      33.772  -7.627 -24.219  0.00  0.00    +0.052 C 
ATOM      8  C   UNL     1      34.173  -6.686 -25.175  0.00  0.00    +0.083 C 
ATOM      9  C   UNL     1      32.527  -3.687 -25.991  0.00  0.00    +0.220 C 
ATOM     10  C   UNL     1      30.501  -3.540 -24.547  0.00  0.00    +0.114 C 
ENDROOT
BRANCH   5  12
ATOM     11 CL   UNL     1      33.404  -6.917 -20.529  0.00  0.00    -0.082 Cl
ATOM     12  C   UNL     1      32.216  -8.430 -22.477  0.00  0.00    +0.011 C 
ATOM     13  C   UNL     1      32.528  -8.282 -21.128  0.00  0.00    +0.058 C 
ATOM     14  C   UNL     1      31.507  -9.545 -22.917  0.00  0.00    +0.001 C 
ATOM     15  C   UNL     1      32.128  -9.256 -20.213  0.00  0.00    +0.011 C 
ATOM     16  C   UNL     1      31.107 -10.518 -22.003  0.00  0.00    +0.000 C 
ATOM     17  C   UNL     1      31.418 -10.375 -20.651  0.00  0.00    +0.001 C 
ENDBRANCH   5  12
BRANCH   7  19
ATOM     18  N   UNL     1      35.260  -9.724 -23.904  0.00  0.00    -0.191 NA
ATOM     19  C   UNL     1      34.596  -8.788 -24.044  0.00  0.00    +0.096 C 
ENDBRANCH   7  19
BRANCH   3  20
ATOM     20  C   UNL     1      30.571  -6.103 -22.829  0.00  0.00    -0.057 C 
BRANCH  20  21
ATOM     21  N   UNL     1      30.781  -5.205 -21.722  0.00  0.00    +0.383 N 
ATOM     22  H   UNL     1      30.243  -5.526 -20.917  0.00  0.00    -0.089 HD
ATOM     23  H   UNL     1      30.476  -4.268 -21.983  0.00  0.00    -0.089 HD
ATOM     24  H   UNL     1      31.772  -5.187 -21.483  0.00  0.00    -0.089 HD
ENDBRANCH  20  21
ENDBRANCH   3  20
TORSDOF 4
ENDMDL
MODEL 9
REMARK VINA RESULT:      -6.9      1.081      3.355
REMARK  Name = 11572962
REMARK  4 active torsions:
REMARK  status: ('A' for Active; 'I' for Inactive)
REMARK    1  A    between atoms: C_3  and  C_20
REMARK    2  A    between atoms: C_5  and  C_12
REMARK    3  A    between atoms: C_7  and  C_19
REMARK    4  A    between atoms: C_20  and  N_21
REMARK                            x       y       z     vdW  Elec       q    Type
REMARK                         _______ _______ _______ _____ _____    ______ ____
ROOT
ATOM      1  N   UNL     1      31.841 -23.389 -16.351  0.00  0.00    -0.285 N 
ATOM      2  N   UNL     1      32.811 -22.451 -18.118  0.00  0.00    -0.251 NA
ATOM      3  C   UNL     1      33.914 -23.816 -14.964  0.00  0.00    -0.029 C 
ATOM      4  C   UNL     1      33.183 -23.376 -16.067  0.00  0.00    +0.057 C 
ATOM      5  C   UNL     1      35.300 -23.641 -15.017  0.00  0.00    +0.002 C 
ATOM      6  C   UNL     1      33.767 -22.786 -17.185  0.00  0.00    +0.074 C 
ATOM      7  C   UNL     1      35.915 -23.052 -16.125  0.00  0.00    +0.052 C 
ATOM      8  C   UNL     1      35.161 -22.618 -17.221  0.00  0.00    +0.083 C 
ATOM      9  C   UNL     1      31.669 -22.827 -17.585  0.00  0.00    +0.220 C 
ATOM     10  C   UNL     1      30.775 -23.896 -15.519  0.00  0.00    +0.114 C 
ENDROOT
BRANCH   5  12
ATOM     11 CL   UNL     1      36.469 -26.493 -15.138  0.00  0.00    -0.082 Cl
ATOM     12  C   UNL     1      36.107 -24.084 -13.889  0.00  0.00    +0.011 C 
ATOM     13  C   UNL     1      36.677 -25.354 -13.853  0.00  0.00    +0.058 C 
ATOM     14  C   UNL     1      36.301 -23.196 -12.834  0.00  0.00    +0.001 C 
ATOM     15  C   UNL     1      37.446 -25.738 -12.755  0.00  0.00    +0.011 C 
ATOM     16  C   UNL     1      37.069 -23.581 -11.735  0.00  0.00    +0.000 C 
ATOM     17  C   UNL     1      37.642 -24.852 -11.696  0.00  0.00    +0.001 C 
ENDBRANCH   5  12
BRANCH   7  19
ATOM     18  N   UNL     1      38.482 -22.723 -16.229  0.00  0.00    -0.191 NA
ATOM     19  C   UNL     1      37.337 -22.869 -16.183  0.00  0.00    +0.096 C 
ENDBRANCH   7  19
BRANCH   3  20
ATOM     20  C   UNL     1      33.261 -24.447 -13.776  0.00  0.00    -0.057 C 
BRANCH  20  21
ATOM     21  N   UNL     1      32.729 -23.467 -12.864  0.00  0.00    +0.383 N 
ATOM     22  H   UNL     1      32.210 -22.762 -13.389  0.00  0.00    -0.089 HD
ATOM     23  H   UNL     1      33.495 -23.021 -12.361  0.00  0.00    -0.089 HD
ATOM     24  H   UNL     1      32.106 -23.924 -12.200  0.00  0.00    -0.089 HD
ENDBRANCH  20  21
ENDBRANCH   3  20
TORSDOF 4
ENDMDL
