MODEL 1
REMARK VINA RESULT:      -8.2      0.000      0.000
REMARK  Name = 896
REMARK  4 active torsions:
REMARK  status: ('A' for Active; 'I' for Inactive)
REMARK    1  A    between atoms: C_2  and  C_13
REMARK    2  A    between atoms: C_8  and  O_11
REMARK    3  A    between atoms: C_13  and  C_14
REMARK    4  A    between atoms: C_14  and  N_16
REMARK                            x       y       z     vdW  Elec       q    Type
REMARK                         _______ _______ _______ _____ _____    ______ ____
ROOT
ATOM      1  N   UNL     1      37.172 -19.544 -20.668  0.00  0.00    -0.312 N 
ATOM      2  C   UNL     1      35.240 -18.926 -21.567  0.00  0.00    -0.005 C 
ATOM      3  C   UNL     1      34.985 -19.978 -20.645  0.00  0.00    +0.014 C 
ATOM      4  C   UNL     1      36.214 -20.349 -20.094  0.00  0.00    +0.048 C 
ATOM      5  C   UNL     1      36.594 -18.681 -21.559  0.00  0.00    +0.058 C 
ATOM      6  C   UNL     1      33.822 -20.655 -20.224  0.00  0.00    +0.038 C 
ATOM      7  C   UNL     1      36.339 -21.366 -19.141  0.00  0.00    +0.018 C 
ATOM      8  C   UNL     1      33.932 -21.674 -19.271  0.00  0.00    +0.139 C 
ATOM      9  C   UNL     1      35.172 -22.022 -18.740  0.00  0.00    +0.038 C 
ATOM     10  H   UNL     1      38.135 -19.584 -20.466  0.00  0.00    +0.152 HD
ENDROOT
BRANCH   8  11
ATOM     11  O   UNL     1      32.812 -22.332 -18.858  0.00  0.00    -0.471 OA
ATOM     12  C   UNL     1      32.898 -23.045 -17.625  0.00  0.00    +0.252 C 
ENDBRANCH   8  11
BRANCH   2  13
ATOM     13  C   UNL     1      34.241 -18.216 -22.390  0.00  0.00    +0.049 C 
BRANCH  13  14
ATOM     14  C   UNL     1      34.657 -16.792 -22.795  0.00  0.00    +0.094 C 
BRANCH  14  16
ATOM     15  O   UNL     1      34.841 -15.587 -20.160  0.00  0.00    -0.275 OA
ATOM     16  N   UNL     1      33.793 -15.790 -22.230  0.00  0.00    -0.304 N 
ATOM     17  C   UNL     1      33.959 -15.270 -20.954  0.00  0.00    +0.223 C 
ATOM     18  C   UNL     1      32.933 -14.219 -20.622  0.00  0.00    +0.095 C 
ATOM     19  H   UNL     1      33.045 -15.457 -22.776  0.00  0.00    +0.149 HD
ENDBRANCH  14  16
ENDBRANCH  13  14
ENDBRANCH   2  13
TORSDOF 4
ENDMDL
MODEL 2
REMARK VINA RESULT:      -8.2      2.672      3.236
REMARK  Name = 896
REMARK  4 active torsions:
REMARK  status: ('A' for Active; 'I' for Inactive)
REMARK    1  A    between atoms: C_2  and  C_13
REMARK    2  A    between atoms: C_8  and  O_11
REMARK    3  A    between atoms: C_13  and  C_14
REMARK    4  A    between atoms: C_14  and  N_16
REMARK                            x       y       z     vdW  Elec       q    Type
REMARK                         _______ _______ _______ _____ _____    ______ ____
ROOT
ATOM      1  N   UNL     1      32.642 -20.492 -20.622  0.00  0.00    -0.312 N 
ATOM      2  C   UNL     1      34.564 -19.536 -21.184  0.00  0.00    -0.005 C 
ATOM      3  C   UNL     1      34.824 -20.491 -20.163  0.00  0.00    +0.014 C 
ATOM      4  C   UNL     1      33.601 -21.076 -19.826  0.00  0.00    +0.048 C 
ATOM      5  C   UNL     1      33.213 -19.560 -21.446  0.00  0.00    +0.058 C 
ATOM      6  C   UNL     1      35.986 -20.914 -19.487  0.00  0.00    +0.038 C 
ATOM      7  C   UNL     1      33.482 -22.067 -18.845  0.00  0.00    +0.018 C 
ATOM      8  C   UNL     1      35.883 -21.904 -18.504  0.00  0.00    +0.139 C 
ATOM      9  C   UNL     1      34.649 -22.471 -18.189  0.00  0.00    +0.038 C 
ATOM     10  H   UNL     1      31.682 -20.712 -20.601  0.00  0.00    +0.152 HD
ENDROOT
BRANCH   8  11
ATOM     11  O   UNL     1      37.003 -22.320 -17.847  0.00  0.00    -0.471 OA
ATOM     12  C   UNL     1      37.112 -21.968 -16.469  0.00  0.00    +0.252 C 
ENDBRANCH   8  11
BRANCH   2  13
ATOM     13  C   UNL     1      35.555 -18.670 -21.853  0.00  0.00    +0.049 C 
BRANCH  13  14
ATOM     14  C   UNL     1      35.243 -18.381 -23.330  0.00  0.00    +0.094 C 
BRANCH  14  16
ATOM     15  O   UNL     1      34.792 -16.967 -25.826  0.00  0.00    -0.275 OA
ATOM     16  N   UNL     1      34.585 -17.115 -23.511  0.00  0.00    -0.304 N 
ATOM     17  C   UNL     1      34.414 -16.512 -24.749  0.00  0.00    +0.223 C 
ATOM     18  C   UNL     1      33.672 -15.206 -24.657  0.00  0.00    +0.095 C 
ATOM     19  H   UNL     1      34.238 -16.651 -22.715  0.00  0.00    +0.149 HD
ENDBRANCH  14  16
ENDBRANCH  13  14
ENDBRANCH   2  13
TORSDOF 4
ENDMDL
MODEL 3
REMARK VINA RESULT:      -8.1      3.493      5.281
REMARK  Name = 896
REMARK  4 active torsions:
REMARK  status: ('A' for Active; 'I' for Inactive)
REMARK    1  A    between atoms: C_2  and  C_13
REMARK    2  A    between atoms: C_8  and  O_11
REMARK    3  A    between atoms: C_13  and  C_14
REMARK    4  A    between atoms: C_14  and  N_16
REMARK                            x       y       z     vdW  Elec       q    Type
REMARK                         _______ _______ _______ _____ _____    ______ ____
ROOT
ATOM      1  N   UNL     1      34.037 -16.569 -25.327  0.00  0.00    -0.312 N 
ATOM      2  C   UNL     1      34.156 -15.163 -23.614  0.00  0.00    -0.005 C 
ATOM      3  C   UNL     1      34.583 -16.444 -23.168  0.00  0.00    +0.014 C 
ATOM      4  C   UNL     1      34.498 -17.309 -24.262  0.00  0.00    +0.048 C 
ATOM      5  C   UNL     1      33.827 -15.271 -24.946  0.00  0.00    +0.058 C 
ATOM      6  C   UNL     1      35.034 -16.954 -21.934  0.00  0.00    +0.038 C 
ATOM      7  C   UNL     1      34.843 -18.663 -24.183  0.00  0.00    +0.018 C 
ATOM      8  C   UNL     1      35.383 -18.307 -21.841  0.00  0.00    +0.139 C 
ATOM      9  C   UNL     1      35.288 -19.146 -22.949  0.00  0.00    +0.038 C 
ATOM     10  H   UNL     1      33.879 -16.922 -26.232  0.00  0.00    +0.152 HD
ENDROOT
BRANCH   8  11
ATOM     11  O   UNL     1      35.821 -18.807 -20.651  0.00  0.00    -0.471 OA
ATOM     12  C   UNL     1      35.665 -20.210 -20.442  0.00  0.00    +0.252 C 
ENDBRANCH   8  11
BRANCH   2  13
ATOM     13  C   UNL     1      34.076 -13.931 -22.804  0.00  0.00    +0.049 C 
BRANCH  13  14
ATOM     14  C   UNL     1      33.330 -12.775 -23.490  0.00  0.00    +0.094 C 
BRANCH  14  16
ATOM     15  O   UNL     1      33.696 -11.919 -26.241  0.00  0.00    -0.275 OA
ATOM     16  N   UNL     1      34.227 -11.761 -23.979  0.00  0.00    -0.304 N 
ATOM     17  C   UNL     1      34.334 -11.418 -25.319  0.00  0.00    +0.223 C 
ATOM     18  C   UNL     1      35.328 -10.312 -25.552  0.00  0.00    +0.095 C 
ATOM     19  H   UNL     1      34.795 -11.288 -23.329  0.00  0.00    +0.149 HD
ENDBRANCH  14  16
ENDBRANCH  13  14
ENDBRANCH   2  13
TORSDOF 4
ENDMDL
MODEL 4
REMARK VINA RESULT:      -8.1      2.130      2.150
REMARK  Name = 896
REMARK  4 active torsions:
REMARK  status: ('A' for Active; 'I' for Inactive)
REMARK    1  A    between atoms: C_2  and  C_13
REMARK    2  A    between atoms: C_8  and  O_11
REMARK    3  A    between atoms: C_13  and  C_14
REMARK    4  A    between atoms: C_14  and  N_16
REMARK                            x       y       z     vdW  Elec       q    Type
REMARK                         _______ _______ _______ _____ _____    ______ ____
ROOT
ATOM      1  N   UNL     1      37.093 -19.964 -20.095  0.00  0.00    -0.312 N 
ATOM      2  C   UNL     1      35.240 -19.476 -21.213  0.00  0.00    -0.005 C 
ATOM      3  C   UNL     1      34.925 -20.465 -20.242  0.00  0.00    +0.014 C 
ATOM      4  C   UNL     1      36.105 -20.756 -19.554  0.00  0.00    +0.048 C 
ATOM      5  C   UNL     1      36.580 -19.187 -21.098  0.00  0.00    +0.058 C 
ATOM      6  C   UNL     1      33.745 -21.147 -19.881  0.00  0.00    +0.038 C 
ATOM      7  C   UNL     1      36.165 -21.696 -18.519  0.00  0.00    +0.018 C 
ATOM      8  C   UNL     1      33.789 -22.089 -18.848  0.00  0.00    +0.139 C 
ATOM      9  C   UNL     1      34.982 -22.359 -18.179  0.00  0.00    +0.038 C 
ATOM     10  H   UNL     1      38.033 -19.959 -19.803  0.00  0.00    +0.152 HD
ENDROOT
BRANCH   8  11
ATOM     11  O   UNL     1      32.652 -22.752 -18.492  0.00  0.00    -0.471 OA
ATOM     12  C   UNL     1      32.530 -23.139 -17.125  0.00  0.00    +0.252 C 
ENDBRANCH   8  11
BRANCH   2  13
ATOM     13  C   UNL     1      34.306 -18.860 -22.177  0.00  0.00    +0.049 C 
BRANCH  13  14
ATOM     14  C   UNL     1      34.994 -18.078 -23.308  0.00  0.00    +0.094 C 
BRANCH  14  16
ATOM     15  O   UNL     1      34.695 -16.732 -25.863  0.00  0.00    -0.275 OA
ATOM     16  N   UNL     1      34.361 -16.811 -23.560  0.00  0.00    -0.304 N 
ATOM     17  C   UNL     1      34.265 -16.243 -24.822  0.00  0.00    +0.223 C 
ATOM     18  C   UNL     1      33.533 -14.927 -24.807  0.00  0.00    +0.095 C 
ATOM     19  H   UNL     1      33.977 -16.322 -22.797  0.00  0.00    +0.149 HD
ENDBRANCH  14  16
ENDBRANCH  13  14
ENDBRANCH   2  13
TORSDOF 4
ENDMDL
MODEL 5
REMARK VINA RESULT:      -8.0      4.462      6.096
REMARK  Name = 896
REMARK  4 active torsions:
REMARK  status: ('A' for Active; 'I' for Inactive)
REMARK    1  A    between atoms: C_2  and  C_13
REMARK    2  A    between atoms: C_8  and  O_11
REMARK    3  A    between atoms: C_13  and  C_14
REMARK    4  A    between atoms: C_14  and  N_16
REMARK                            x       y       z     vdW  Elec       q    Type
REMARK                         _______ _______ _______ _____ _____    ______ ____
ROOT
ATOM      1  N   UNL     1      35.270 -17.796 -21.763  0.00  0.00    -0.312 N 
ATOM      2  C   UNL     1      34.418 -15.756 -21.577  0.00  0.00    -0.005 C 
ATOM      3  C   UNL     1      34.366 -16.136 -22.946  0.00  0.00    +0.014 C 
ATOM      4  C   UNL     1      34.908 -17.420 -23.037  0.00  0.00    +0.048 C 
ATOM      5  C   UNL     1      34.978 -16.797 -20.873  0.00  0.00    +0.058 C 
ATOM      6  C   UNL     1      33.910 -15.509 -24.123  0.00  0.00    +0.038 C 
ATOM      7  C   UNL     1      35.016 -18.112 -24.249  0.00  0.00    +0.018 C 
ATOM      8  C   UNL     1      34.011 -16.188 -25.342  0.00  0.00    +0.139 C 
ATOM      9  C   UNL     1      34.557 -17.469 -25.402  0.00  0.00    +0.038 C 
ATOM     10  H   UNL     1      35.682 -18.659 -21.526  0.00  0.00    +0.152 HD
ENDROOT
BRANCH   8  11
ATOM     11  O   UNL     1      33.571 -15.589 -26.485  0.00  0.00    -0.471 OA
ATOM     12  C   UNL     1      32.909 -14.333 -26.343  0.00  0.00    +0.252 C 
ENDBRANCH   8  11
BRANCH   2  13
ATOM     13  C   UNL     1      33.956 -14.477 -21.001  0.00  0.00    +0.049 C 
BRANCH  13  14
ATOM     14  C   UNL     1      32.426 -14.329 -20.945  0.00  0.00    +0.094 C 
BRANCH  14  16
ATOM     15  O   UNL     1      31.614 -11.757 -19.868  0.00  0.00    -0.275 OA
ATOM     16  N   UNL     1      31.962 -13.181 -21.678  0.00  0.00    -0.304 N 
ATOM     17  C   UNL     1      31.594 -11.987 -21.075  0.00  0.00    +0.223 C 
ATOM     18  C   UNL     1      31.171 -10.943 -22.074  0.00  0.00    +0.095 C 
ATOM     19  H   UNL     1      31.902 -13.247 -22.658  0.00  0.00    +0.149 HD
ENDBRANCH  14  16
ENDBRANCH  13  14
ENDBRANCH   2  13
TORSDOF 4
ENDMDL
MODEL 6
REMARK VINA RESULT:      -7.9      3.100      6.905
REMARK  Name = 896
REMARK  4 active torsions:
REMARK  status: ('A' for Active; 'I' for Inactive)
REMARK    1  A    between atoms: C_2  and  C_13
REMARK    2  A    between atoms: C_8  and  O_11
REMARK    3  A    between atoms: C_13  and  C_14
REMARK    4  A    between atoms: C_14  and  N_16
REMARK                            x       y       z     vdW  Elec       q    Type
REMARK                         _______ _______ _______ _____ _____    ______ ____
ROOT
ATOM      1  N   UNL     1      33.181 -21.912 -19.111  0.00  0.00    -0.312 N 
ATOM      2  C   UNL     1      35.368 -21.762 -18.765  0.00  0.00    -0.005 C 
ATOM      3  C   UNL     1      35.015 -20.840 -19.789  0.00  0.00    +0.014 C 
ATOM      4  C   UNL     1      33.637 -20.954 -19.988  0.00  0.00    +0.048 C 
ATOM      5  C   UNL     1      34.219 -22.406 -18.367  0.00  0.00    +0.058 C 
ATOM      6  C   UNL     1      35.738 -19.917 -20.570  0.00  0.00    +0.038 C 
ATOM      7  C   UNL     1      32.944 -20.188 -20.932  0.00  0.00    +0.018 C 
ATOM      8  C   UNL     1      35.058 -19.143 -21.518  0.00  0.00    +0.139 C 
ATOM      9  C   UNL     1      33.682 -19.279 -21.695  0.00  0.00    +0.038 C 
ATOM     10  H   UNL     1      32.243 -22.201 -19.030  0.00  0.00    +0.152 HD
ENDROOT
BRANCH   8  11
ATOM     11  O   UNL     1      35.750 -18.247 -22.277  0.00  0.00    -0.471 OA
ATOM     12  C   UNL     1      35.221 -17.947 -23.567  0.00  0.00    +0.252 C 
ENDBRANCH   8  11
BRANCH   2  13
ATOM     13  C   UNL     1      36.719 -21.994 -18.218  0.00  0.00    +0.049 C 
BRANCH  13  14
ATOM     14  C   UNL     1      36.871 -21.615 -16.735  0.00  0.00    +0.094 C 
BRANCH  14  16
ATOM     15  O   UNL     1      35.874 -24.095 -15.601  0.00  0.00    -0.275 OA
ATOM     16  N   UNL     1      37.615 -22.599 -15.994  0.00  0.00    -0.304 N 
ATOM     17  C   UNL     1      37.051 -23.761 -15.487  0.00  0.00    +0.223 C 
ATOM     18  C   UNL     1      38.056 -24.626 -14.775  0.00  0.00    +0.095 C 
ATOM     19  H   UNL     1      38.574 -22.438 -15.838  0.00  0.00    +0.149 HD
ENDBRANCH  14  16
ENDBRANCH  13  14
ENDBRANCH   2  13
TORSDOF 4
ENDMDL
MODEL 7
REMARK VINA RESULT:      -7.9      2.896      6.943
REMARK  Name = 896
REMARK  4 active torsions:
REMARK  status: ('A' for Active; 'I' for Inactive)
REMARK    1  A    between atoms: C_2  and  C_13
REMARK    2  A    between atoms: C_8  and  O_11
REMARK    3  A    between atoms: C_13  and  C_14
REMARK    4  A    between atoms: C_14  and  N_16
REMARK                            x       y       z     vdW  Elec       q    Type
REMARK                         _______ _______ _______ _____ _____    ______ ____
ROOT
ATOM      1  N   UNL     1      33.953 -15.066 -21.108  0.00  0.00    -0.312 N 
ATOM      2  C   UNL     1      35.013 -16.733 -22.117  0.00  0.00    -0.005 C 
ATOM      3  C   UNL     1      34.384 -15.938 -23.114  0.00  0.00    +0.014 C 
ATOM      4  C   UNL     1      33.724 -14.898 -22.455  0.00  0.00    +0.048 C 
ATOM      5  C   UNL     1      34.731 -16.172 -20.893  0.00  0.00    +0.058 C 
ATOM      6  C   UNL     1      34.310 -16.003 -24.520  0.00  0.00    +0.038 C 
ATOM      7  C   UNL     1      32.993 -13.917 -23.133  0.00  0.00    +0.018 C 
ATOM      8  C   UNL     1      33.583 -15.028 -25.212  0.00  0.00    +0.139 C 
ATOM      9  C   UNL     1      32.934 -14.002 -24.527  0.00  0.00    +0.038 C 
ATOM     10  H   UNL     1      33.606 -14.476 -20.400  0.00  0.00    +0.152 HD
ENDROOT
BRANCH   8  11
ATOM     11  O   UNL     1      33.508 -15.084 -26.572  0.00  0.00    -0.471 OA
ATOM     12  C   UNL     1      33.280 -13.854 -27.258  0.00  0.00    +0.252 C 
ENDBRANCH   8  11
BRANCH   2  13
ATOM     13  C   UNL     1      35.827 -17.945 -22.342  0.00  0.00    +0.049 C 
BRANCH  13  14
ATOM     14  C   UNL     1      35.021 -19.164 -22.820  0.00  0.00    +0.094 C 
BRANCH  14  16
ATOM     15  O   UNL     1      35.357 -20.670 -20.360  0.00  0.00    -0.275 OA
ATOM     16  N   UNL     1      33.999 -19.544 -21.881  0.00  0.00    -0.304 N 
ATOM     17  C   UNL     1      34.255 -20.269 -20.725  0.00  0.00    +0.223 C 
ATOM     18  C   UNL     1      33.013 -20.510 -19.910  0.00  0.00    +0.095 C 
ATOM     19  H   UNL     1      33.070 -19.278 -22.069  0.00  0.00    +0.149 HD
ENDBRANCH  14  16
ENDBRANCH  13  14
ENDBRANCH   2  13
TORSDOF 4
ENDMDL
MODEL 8
REMARK VINA RESULT:      -7.8      2.802      7.179
REMARK  Name = 896
REMARK  4 active torsions:
REMARK  status: ('A' for Active; 'I' for Inactive)
REMARK    1  A    between atoms: C_2  and  C_13
REMARK    2  A    between atoms: C_8  and  O_11
REMARK    3  A    between atoms: C_13  and  C_14
REMARK    4  A    between atoms: C_14  and  N_16
REMARK                            x       y       z     vdW  Elec       q    Type
REMARK                         _______ _______ _______ _____ _____    ______ ____
ROOT
ATOM      1  N   UNL     1      34.551 -17.710 -25.109  0.00  0.00    -0.312 N 
ATOM      2  C   UNL     1      34.912 -17.242 -22.970  0.00  0.00    -0.005 C 
ATOM      3  C   UNL     1      34.310 -16.106 -23.579  0.00  0.00    +0.014 C 
ATOM      4  C   UNL     1      34.095 -16.425 -24.921  0.00  0.00    +0.048 C 
ATOM      5  C   UNL     1      35.047 -18.213 -23.936  0.00  0.00    +0.058 C 
ATOM      6  C   UNL     1      33.928 -14.832 -23.115  0.00  0.00    +0.038 C 
ATOM      7  C   UNL     1      33.513 -15.531 -25.827  0.00  0.00    +0.018 C 
ATOM      8  C   UNL     1      33.345 -13.926 -24.009  0.00  0.00    +0.139 C 
ATOM      9  C   UNL     1      33.142 -14.273 -25.344  0.00  0.00    +0.038 C 
ATOM     10  H   UNL     1      34.526 -18.198 -25.965  0.00  0.00    +0.152 HD
ENDROOT
BRANCH   8  11
ATOM     11  O   UNL     1      32.970 -12.692 -23.568  0.00  0.00    -0.471 OA
ATOM     12  C   UNL     1      33.718 -11.578 -24.054  0.00  0.00    +0.252 C 
ENDBRANCH   8  11
BRANCH   2  13
ATOM     13  C   UNL     1      35.322 -17.370 -21.558  0.00  0.00    +0.049 C 
BRANCH  13  14
ATOM     14  C   UNL     1      36.010 -18.703 -21.220  0.00  0.00    +0.094 C 
BRANCH  14  16
ATOM     15  O   UNL     1      36.682 -21.228 -19.953  0.00  0.00    -0.275 OA
ATOM     16  N   UNL     1      35.107 -19.645 -20.613  0.00  0.00    -0.304 N 
ATOM     17  C   UNL     1      35.521 -20.833 -20.029  0.00  0.00    +0.223 C 
ATOM     18  C   UNL     1      34.377 -21.619 -19.447  0.00  0.00    +0.095 C 
ATOM     19  H   UNL     1      34.145 -19.436 -20.614  0.00  0.00    +0.149 HD
ENDBRANCH  14  16
ENDBRANCH  13  14
ENDBRANCH   2  13
TORSDOF 4
ENDMDL
MODEL 9
REMARK VINA RESULT:      -7.8      3.057      5.024
REMARK  Name = 896
REMARK  4 active torsions:
REMARK  status: ('A' for Active; 'I' for Inactive)
REMARK    1  A    between atoms: C_2  and  C_13
REMARK    2  A    between atoms: C_8  and  O_11
REMARK    3  A    between atoms: C_13  and  C_14
REMARK    4  A    between atoms: C_14  and  N_16
REMARK                            x       y       z     vdW  Elec       q    Type
REMARK                         _______ _______ _______ _____ _____    ______ ____
ROOT
ATOM      1  N   UNL     1      33.973 -16.430 -25.371  0.00  0.00    -0.312 N 
ATOM      2  C   UNL     1      33.948 -15.023 -23.655  0.00  0.00    -0.005 C 
ATOM      3  C   UNL     1      34.472 -16.265 -23.204  0.00  0.00    +0.014 C 
ATOM      4  C   UNL     1      34.476 -17.132 -24.300  0.00  0.00    +0.048 C 
ATOM      5  C   UNL     1      33.651 -15.154 -24.993  0.00  0.00    +0.058 C 
ATOM      6  C   UNL     1      34.943 -16.740 -21.963  0.00  0.00    +0.038 C 
ATOM      7  C   UNL     1      34.930 -18.453 -24.217  0.00  0.00    +0.018 C 
ATOM      8  C   UNL     1      35.401 -18.059 -21.865  0.00  0.00    +0.139 C 
ATOM      9  C   UNL     1      35.393 -18.900 -22.976  0.00  0.00    +0.038 C 
ATOM     10  H   UNL     1      33.860 -16.793 -26.280  0.00  0.00    +0.152 HD
ENDROOT
BRANCH   8  11
ATOM     11  O   UNL     1      35.860 -18.524 -20.669  0.00  0.00    -0.471 OA
ATOM     12  C   UNL     1      36.012 -19.937 -20.540  0.00  0.00    +0.252 C 
ENDBRANCH   8  11
BRANCH   2  13
ATOM     13  C   UNL     1      33.754 -13.804 -22.846  0.00  0.00    +0.049 C 
BRANCH  13  14
ATOM     14  C   UNL     1      32.289 -13.523 -22.472  0.00  0.00    +0.094 C 
BRANCH  14  16
ATOM     15  O   UNL     1      30.735 -11.129 -21.938  0.00  0.00    -0.275 OA
ATOM     16  N   UNL     1      32.170 -12.819 -21.223  0.00  0.00    -0.304 N 
ATOM     17  C   UNL     1      31.400 -11.676 -21.061  0.00  0.00    +0.223 C 
ATOM     18  C   UNL     1      31.431 -11.156 -19.649  0.00  0.00    +0.095 C 
ATOM     19  H   UNL     1      32.661 -13.165 -20.444  0.00  0.00    +0.149 HD
ENDBRANCH  14  16
ENDBRANCH  13  14
ENDBRANCH   2  13
TORSDOF 4
ENDMDL
