MODEL 1
REMARK VINA RESULT:      -6.5      0.000      0.000
REMARK  Name = 146089
REMARK  10 active torsions:
REMARK  status: ('A' for Active; 'I' for Inactive)
REMARK    1  A    between atoms: S_1  and  C_2
REMARK    2  A    between atoms: S_1  and  C_10
REMARK    3  A    between atoms: C_2  and  C_3
REMARK    4  A    between atoms: C_3  and  C_4
REMARK    5  A    between atoms: C_4  and  C_5
REMARK    6  A    between atoms: C_5  and  C_6
REMARK    7  A    between atoms: C_6  and  C_7
REMARK    8  A    between atoms: C_7  and  C_8
REMARK    9  A    between atoms: C_10  and  C_12
REMARK   10  A    between atoms: C_12  and  C_16
REMARK                            x       y       z     vdW  Elec       q    Type
REMARK                         _______ _______ _______ _____ _____    ______ ____
ROOT
ATOM      1  S   UNL     1      33.432 -14.417 -24.771  0.00  0.00    -0.132 S 
ENDROOT
BRANCH   1   2
ATOM      2  C   UNL     1      33.672 -16.008 -25.611  0.00  0.00    +0.058 C 
BRANCH   2   3
ATOM      3  C   UNL     1      34.701 -16.854 -24.869  0.00  0.00    +0.012 C 
BRANCH   3   4
ATOM      4  C   UNL     1      34.359 -18.345 -24.969  0.00  0.00    +0.001 C 
BRANCH   4   5
ATOM      5  C   UNL     1      35.024 -19.142 -23.844  0.00  0.00    +0.000 C 
BRANCH   5   6
ATOM      6  C   UNL     1      35.414 -18.282 -22.638  0.00  0.00    +0.000 C 
BRANCH   6   7
ATOM      7  C   UNL     1      34.434 -18.395 -21.469  0.00  0.00    +0.000 C 
BRANCH   7   8
ATOM      8  C   UNL     1      34.310 -19.842 -20.989  0.00  0.00    +0.000 C 
ATOM      9  C   UNL     1      32.882 -20.173 -20.582  0.00  0.00    +0.000 C 
ENDBRANCH   7   8
ENDBRANCH   6   7
ENDBRANCH   5   6
ENDBRANCH   4   5
ENDBRANCH   3   4
ENDBRANCH   2   3
ENDBRANCH   1   2
BRANCH   1  10
ATOM     10  C   UNL     1      33.769 -14.958 -23.080  0.00  0.00    +0.131 C 
BRANCH  10  12
ATOM     11  O   UNL     1      32.104 -13.356 -22.341  0.00  0.00    -0.286 OA
ATOM     12  C   UNL     1      32.832 -14.312 -22.080  0.00  0.00    +0.255 C 
BRANCH  12  16
ATOM     13  F   UNL     1      32.057 -16.022 -20.635  0.00  0.00    -0.163 F 
ATOM     14  F   UNL     1      32.370 -14.048 -19.765  0.00  0.00    -0.163 F 
ATOM     15  F   UNL     1      34.082 -15.281 -20.315  0.00  0.00    -0.163 F 
ATOM     16  C   UNL     1      32.835 -14.913 -20.702  0.00  0.00    +0.452 C 
ENDBRANCH  12  16
ENDBRANCH  10  12
ENDBRANCH   1  10
TORSDOF 10
ENDMDL
MODEL 2
REMARK VINA RESULT:      -6.3      3.729      4.623
REMARK  Name = 146089
REMARK  10 active torsions:
REMARK  status: ('A' for Active; 'I' for Inactive)
REMARK    1  A    between atoms: S_1  and  C_2
REMARK    2  A    between atoms: S_1  and  C_10
REMARK    3  A    between atoms: C_2  and  C_3
REMARK    4  A    between atoms: C_3  and  C_4
REMARK    5  A    between atoms: C_4  and  C_5
REMARK    6  A    between atoms: C_5  and  C_6
REMARK    7  A    between atoms: C_6  and  C_7
REMARK    8  A    between atoms: C_7  and  C_8
REMARK    9  A    between atoms: C_10  and  C_12
REMARK   10  A    between atoms: C_12  and  C_16
REMARK                            x       y       z     vdW  Elec       q    Type
REMARK                         _______ _______ _______ _____ _____    ______ ____
ROOT
ATOM      1  S   UNL     1      33.918 -13.748 -23.505  0.00  0.00    -0.132 S 
ENDROOT
BRANCH   1   2
ATOM      2  C   UNL     1      32.853 -13.804 -22.035  0.00  0.00    +0.058 C 
BRANCH   2   3
ATOM      3  C   UNL     1      33.325 -14.891 -21.075  0.00  0.00    +0.012 C 
BRANCH   3   4
ATOM      4  C   UNL     1      34.616 -15.544 -21.580  0.00  0.00    +0.001 C 
BRANCH   4   5
ATOM      5  C   UNL     1      34.784 -16.954 -21.007  0.00  0.00    +0.000 C 
BRANCH   5   6
ATOM      6  C   UNL     1      35.398 -17.944 -22.001  0.00  0.00    +0.000 C 
BRANCH   6   7
ATOM      7  C   UNL     1      34.615 -19.254 -22.117  0.00  0.00    +0.000 C 
BRANCH   7   8
ATOM      8  C   UNL     1      34.381 -19.880 -20.741  0.00  0.00    +0.000 C 
ATOM      9  C   UNL     1      32.902 -20.132 -20.488  0.00  0.00    +0.000 C 
ENDBRANCH   7   8
ENDBRANCH   6   7
ENDBRANCH   5   6
ENDBRANCH   4   5
ENDBRANCH   3   4
ENDBRANCH   2   3
ENDBRANCH   1   2
BRANCH   1  10
ATOM     10  C   UNL     1      32.657 -14.085 -24.756  0.00  0.00    +0.131 C 
BRANCH  10  12
ATOM     11  O   UNL     1      33.689 -15.404 -26.511  0.00  0.00    -0.286 OA
ATOM     12  C   UNL     1      33.264 -14.317 -26.125  0.00  0.00    +0.255 C 
BRANCH  12  16
ATOM     13  F   UNL     1      32.160 -12.910 -27.679  0.00  0.00    -0.163 F 
ATOM     14  F   UNL     1      34.298 -13.226 -27.965  0.00  0.00    -0.163 F 
ATOM     15  F   UNL     1      33.591 -11.978 -26.323  0.00  0.00    -0.163 F 
ATOM     16  C   UNL     1      33.330 -13.112 -27.021  0.00  0.00    +0.452 C 
ENDBRANCH  12  16
ENDBRANCH  10  12
ENDBRANCH   1  10
TORSDOF 10
ENDMDL
MODEL 3
REMARK VINA RESULT:      -6.3      1.145      1.939
REMARK  Name = 146089
REMARK  10 active torsions:
REMARK  status: ('A' for Active; 'I' for Inactive)
REMARK    1  A    between atoms: S_1  and  C_2
REMARK    2  A    between atoms: S_1  and  C_10
REMARK    3  A    between atoms: C_2  and  C_3
REMARK    4  A    between atoms: C_3  and  C_4
REMARK    5  A    between atoms: C_4  and  C_5
REMARK    6  A    between atoms: C_5  and  C_6
REMARK    7  A    between atoms: C_6  and  C_7
REMARK    8  A    between atoms: C_7  and  C_8
REMARK    9  A    between atoms: C_10  and  C_12
REMARK   10  A    between atoms: C_12  and  C_16
REMARK                            x       y       z     vdW  Elec       q    Type
REMARK                         _______ _______ _______ _____ _____    ______ ____
ROOT
ATOM      1  S   UNL     1      34.902 -15.671 -23.643  0.00  0.00    -0.132 S 
ENDROOT
BRANCH   1   2
ATOM      2  C   UNL     1      34.540 -16.823 -24.998  0.00  0.00    +0.058 C 
BRANCH   2   3
ATOM      3  C   UNL     1      34.634 -18.266 -24.512  0.00  0.00    +0.012 C 
BRANCH   3   4
ATOM      4  C   UNL     1      35.113 -18.324 -23.057  0.00  0.00    +0.001 C 
BRANCH   4   5
ATOM      5  C   UNL     1      34.694 -19.634 -22.387  0.00  0.00    +0.000 C 
BRANCH   5   6
ATOM      6  C   UNL     1      34.428 -19.491 -20.886  0.00  0.00    +0.000 C 
BRANCH   6   7
ATOM      7  C   UNL     1      33.129 -20.161 -20.432  0.00  0.00    +0.000 C 
BRANCH   7   8
ATOM      8  C   UNL     1      33.415 -21.388 -19.564  0.00  0.00    +0.000 C 
ATOM      9  C   UNL     1      34.908 -21.581 -19.347  0.00  0.00    +0.000 C 
ENDBRANCH   7   8
ENDBRANCH   6   7
ENDBRANCH   5   6
ENDBRANCH   4   5
ENDBRANCH   3   4
ENDBRANCH   2   3
ENDBRANCH   1   2
BRANCH   1  10
ATOM     10  C   UNL     1      33.211 -15.144 -23.286  0.00  0.00    +0.131 C 
BRANCH  10  12
ATOM     11  O   UNL     1      32.864 -13.199 -21.877  0.00  0.00    -0.286 OA
ATOM     12  C   UNL     1      33.114 -14.400 -21.969  0.00  0.00    +0.255 C 
BRANCH  12  16
ATOM     13  F   UNL     1      34.631 -15.127 -20.301  0.00  0.00    -0.163 F 
ATOM     14  F   UNL     1      33.105 -16.543 -20.946  0.00  0.00    -0.163 F 
ATOM     15  F   UNL     1      32.554 -14.835 -19.709  0.00  0.00    -0.163 F 
ATOM     16  C   UNL     1      33.350 -15.225 -20.735  0.00  0.00    +0.452 C 
ENDBRANCH  12  16
ENDBRANCH  10  12
ENDBRANCH   1  10
TORSDOF 10
ENDMDL
MODEL 4
REMARK VINA RESULT:      -6.3      3.735      4.839
REMARK  Name = 146089
REMARK  10 active torsions:
REMARK  status: ('A' for Active; 'I' for Inactive)
REMARK    1  A    between atoms: S_1  and  C_2
REMARK    2  A    between atoms: S_1  and  C_10
REMARK    3  A    between atoms: C_2  and  C_3
REMARK    4  A    between atoms: C_3  and  C_4
REMARK    5  A    between atoms: C_4  and  C_5
REMARK    6  A    between atoms: C_5  and  C_6
REMARK    7  A    between atoms: C_6  and  C_7
REMARK    8  A    between atoms: C_7  and  C_8
REMARK    9  A    between atoms: C_10  and  C_12
REMARK   10  A    between atoms: C_12  and  C_16
REMARK                            x       y       z     vdW  Elec       q    Type
REMARK                         _______ _______ _______ _____ _____    ______ ____
ROOT
ATOM      1  S   UNL     1      33.985 -15.031 -23.650  0.00  0.00    -0.132 S 
ENDROOT
BRANCH   1   2
ATOM      2  C   UNL     1      32.988 -14.952 -22.135  0.00  0.00    +0.058 C 
BRANCH   2   3
ATOM      3  C   UNL     1      33.859 -15.203 -20.909  0.00  0.00    +0.012 C 
BRANCH   3   4
ATOM      4  C   UNL     1      34.759 -16.427 -21.118  0.00  0.00    +0.001 C 
BRANCH   4   5
ATOM      5  C   UNL     1      33.958 -17.727 -21.015  0.00  0.00    +0.000 C 
BRANCH   5   6
ATOM      6  C   UNL     1      34.675 -18.932 -21.630  0.00  0.00    +0.000 C 
BRANCH   6   7
ATOM      7  C   UNL     1      35.489 -18.583 -22.878  0.00  0.00    +0.000 C 
BRANCH   7   8
ATOM      8  C   UNL     1      34.982 -19.349 -24.101  0.00  0.00    +0.000 C 
ATOM      9  C   UNL     1      34.279 -18.425 -25.084  0.00  0.00    +0.000 C 
ENDBRANCH   7   8
ENDBRANCH   6   7
ENDBRANCH   5   6
ENDBRANCH   4   5
ENDBRANCH   3   4
ENDBRANCH   2   3
ENDBRANCH   1   2
BRANCH   1  10
ATOM     10  C   UNL     1      32.891 -14.086 -24.735  0.00  0.00    +0.131 C 
BRANCH  10  12
ATOM     11  O   UNL     1      33.351 -15.459 -26.682  0.00  0.00    -0.286 OA
ATOM     12  C   UNL     1      33.188 -14.340 -26.199  0.00  0.00    +0.255 C 
BRANCH  12  16
ATOM     13  F   UNL     1      33.499 -11.995 -26.335  0.00  0.00    -0.163 F 
ATOM     14  F   UNL     1      32.142 -12.904 -27.777  0.00  0.00    -0.163 F 
ATOM     15  F   UNL     1      34.293 -13.208 -27.964  0.00  0.00    -0.163 F 
ATOM     16  C   UNL     1      33.279 -13.116 -27.067  0.00  0.00    +0.452 C 
ENDBRANCH  12  16
ENDBRANCH  10  12
ENDBRANCH   1  10
TORSDOF 10
ENDMDL
MODEL 5
REMARK VINA RESULT:      -6.1      9.550     11.552
REMARK  Name = 146089
REMARK  10 active torsions:
REMARK  status: ('A' for Active; 'I' for Inactive)
REMARK    1  A    between atoms: S_1  and  C_2
REMARK    2  A    between atoms: S_1  and  C_10
REMARK    3  A    between atoms: C_2  and  C_3
REMARK    4  A    between atoms: C_3  and  C_4
REMARK    5  A    between atoms: C_4  and  C_5
REMARK    6  A    between atoms: C_5  and  C_6
REMARK    7  A    between atoms: C_6  and  C_7
REMARK    8  A    between atoms: C_7  and  C_8
REMARK    9  A    between atoms: C_10  and  C_12
REMARK   10  A    between atoms: C_12  and  C_16
REMARK                            x       y       z     vdW  Elec       q    Type
REMARK                         _______ _______ _______ _____ _____    ______ ____
ROOT
ATOM      1  S   UNL     1      35.288 -24.266 -14.068  0.00  0.00    -0.132 S 
ENDROOT
BRANCH   1   2
ATOM      2  C   UNL     1      35.546 -23.552 -15.717  0.00  0.00    +0.058 C 
BRANCH   2   3
ATOM      3  C   UNL     1      36.480 -22.349 -15.638  0.00  0.00    +0.012 C 
BRANCH   3   4
ATOM      4  C   UNL     1      37.068 -22.021 -17.015  0.00  0.00    +0.001 C 
BRANCH   4   5
ATOM      5  C   UNL     1      35.965 -21.848 -18.062  0.00  0.00    +0.000 C 
BRANCH   5   6
ATOM      6  C   UNL     1      36.471 -21.277 -19.390  0.00  0.00    +0.000 C 
BRANCH   6   7
ATOM      7  C   UNL     1      35.358 -20.695 -20.264  0.00  0.00    +0.000 C 
BRANCH   7   8
ATOM      8  C   UNL     1      33.983 -21.177 -19.802  0.00  0.00    +0.000 C 
ATOM      9  C   UNL     1      32.884 -20.215 -20.225  0.00  0.00    +0.000 C 
ENDBRANCH   7   8
ENDBRANCH   6   7
ENDBRANCH   5   6
ENDBRANCH   4   5
ENDBRANCH   3   4
ENDBRANCH   2   3
ENDBRANCH   1   2
BRANCH   1  10
ATOM     10  C   UNL     1      36.376 -25.701 -14.231  0.00  0.00    +0.131 C 
BRANCH  10  12
ATOM     11  O   UNL     1      37.093 -26.415 -12.026  0.00  0.00    -0.286 OA
ATOM     12  C   UNL     1      37.343 -25.814 -13.069  0.00  0.00    +0.255 C 
BRANCH  12  16
ATOM     13  F   UNL     1      39.696 -26.016 -13.259  0.00  0.00    -0.163 F 
ATOM     14  F   UNL     1      38.926 -24.232 -12.272  0.00  0.00    -0.163 F 
ATOM     15  F   UNL     1      38.726 -24.455 -14.431  0.00  0.00    -0.163 F 
ATOM     16  C   UNL     1      38.668 -25.130 -13.256  0.00  0.00    +0.452 C 
ENDBRANCH  12  16
ENDBRANCH  10  12
ENDBRANCH   1  10
TORSDOF 10
ENDMDL
MODEL 6
REMARK VINA RESULT:      -6.0      3.225      4.804
REMARK  Name = 146089
REMARK  10 active torsions:
REMARK  status: ('A' for Active; 'I' for Inactive)
REMARK    1  A    between atoms: S_1  and  C_2
REMARK    2  A    between atoms: S_1  and  C_10
REMARK    3  A    between atoms: C_2  and  C_3
REMARK    4  A    between atoms: C_3  and  C_4
REMARK    5  A    between atoms: C_4  and  C_5
REMARK    6  A    between atoms: C_5  and  C_6
REMARK    7  A    between atoms: C_6  and  C_7
REMARK    8  A    between atoms: C_7  and  C_8
REMARK    9  A    between atoms: C_10  and  C_12
REMARK   10  A    between atoms: C_12  and  C_16
REMARK                            x       y       z     vdW  Elec       q    Type
REMARK                         _______ _______ _______ _____ _____    ______ ____
ROOT
ATOM      1  S   UNL     1      36.119 -18.506 -21.554  0.00  0.00    -0.132 S 
ENDROOT
BRANCH   1   2
ATOM      2  C   UNL     1      35.241 -19.899 -20.790  0.00  0.00    +0.058 C 
BRANCH   2   3
ATOM      3  C   UNL     1      33.734 -19.745 -20.972  0.00  0.00    +0.012 C 
BRANCH   3   4
ATOM      4  C   UNL     1      32.970 -20.672 -20.019  0.00  0.00    +0.001 C 
BRANCH   4   5
ATOM      5  C   UNL     1      33.917 -21.652 -19.323  0.00  0.00    +0.000 C 
BRANCH   5   6
ATOM      6  C   UNL     1      33.212 -22.563 -18.313  0.00  0.00    +0.000 C 
BRANCH   6   7
ATOM      7  C   UNL     1      34.139 -23.077 -17.209  0.00  0.00    +0.000 C 
BRANCH   7   8
ATOM      8  C   UNL     1      33.359 -23.368 -15.925  0.00  0.00    +0.000 C 
ATOM      9  C   UNL     1      31.858 -23.310 -16.160  0.00  0.00    +0.000 C 
ENDBRANCH   7   8
ENDBRANCH   6   7
ENDBRANCH   5   6
ENDBRANCH   4   5
ENDBRANCH   3   4
ENDBRANCH   2   3
ENDBRANCH   1   2
BRANCH   1  10
ATOM     10  C   UNL     1      34.747 -17.823 -22.512  0.00  0.00    +0.131 C 
BRANCH  10  12
ATOM     11  O   UNL     1      35.401 -15.682 -23.446  0.00  0.00    -0.286 OA
ATOM     12  C   UNL     1      34.798 -16.310 -22.578  0.00  0.00    +0.255 C 
BRANCH  12  16
ATOM     13  F   UNL     1      34.896 -14.934 -20.652  0.00  0.00    -0.163 F 
ATOM     14  F   UNL     1      33.310 -16.427 -20.729  0.00  0.00    -0.163 F 
ATOM     15  F   UNL     1      33.203 -14.657 -21.997  0.00  0.00    -0.163 F 
ATOM     16  C   UNL     1      34.053 -15.585 -21.492  0.00  0.00    +0.452 C 
ENDBRANCH  12  16
ENDBRANCH  10  12
ENDBRANCH   1  10
TORSDOF 10
ENDMDL
MODEL 7
REMARK VINA RESULT:      -6.0      2.776      4.367
REMARK  Name = 146089
REMARK  10 active torsions:
REMARK  status: ('A' for Active; 'I' for Inactive)
REMARK    1  A    between atoms: S_1  and  C_2
REMARK    2  A    between atoms: S_1  and  C_10
REMARK    3  A    between atoms: C_2  and  C_3
REMARK    4  A    between atoms: C_3  and  C_4
REMARK    5  A    between atoms: C_4  and  C_5
REMARK    6  A    between atoms: C_5  and  C_6
REMARK    7  A    between atoms: C_6  and  C_7
REMARK    8  A    between atoms: C_7  and  C_8
REMARK    9  A    between atoms: C_10  and  C_12
REMARK   10  A    between atoms: C_12  and  C_16
REMARK                            x       y       z     vdW  Elec       q    Type
REMARK                         _______ _______ _______ _____ _____    ______ ____
ROOT
ATOM      1  S   UNL     1      34.295 -18.183 -24.982  0.00  0.00    -0.132 S 
ENDROOT
BRANCH   1   2
ATOM      2  C   UNL     1      35.375 -18.729 -23.629  0.00  0.00    +0.058 C 
BRANCH   2   3
ATOM      3  C   UNL     1      34.549 -19.328 -22.495  0.00  0.00    +0.012 C 
BRANCH   3   4
ATOM      4  C   UNL     1      34.713 -18.512 -21.208  0.00  0.00    +0.001 C 
BRANCH   4   5
ATOM      5  C   UNL     1      34.056 -17.136 -21.338  0.00  0.00    +0.000 C 
BRANCH   5   6
ATOM      6  C   UNL     1      34.722 -16.061 -20.472  0.00  0.00    +0.000 C 
BRANCH   6   7
ATOM      7  C   UNL     1      34.254 -14.642 -20.800  0.00  0.00    +0.000 C 
BRANCH   7   8
ATOM      8  C   UNL     1      32.731 -14.530 -20.720  0.00  0.00    +0.000 C 
ATOM      9  C   UNL     1      32.248 -13.162 -21.179  0.00  0.00    +0.000 C 
ENDBRANCH   7   8
ENDBRANCH   6   7
ENDBRANCH   5   6
ENDBRANCH   4   5
ENDBRANCH   3   4
ENDBRANCH   2   3
ENDBRANCH   1   2
BRANCH   1  10
ATOM     10  C   UNL     1      34.726 -16.428 -24.971  0.00  0.00    +0.131 C 
BRANCH  10  12
ATOM     11  O   UNL     1      32.940 -15.901 -26.526  0.00  0.00    -0.286 OA
ATOM     12  C   UNL     1      33.625 -15.569 -25.560  0.00  0.00    +0.255 C 
BRANCH  12  16
ATOM     13  F   UNL     1      32.181 -14.177 -24.299  0.00  0.00    -0.163 F 
ATOM     14  F   UNL     1      33.475 -13.207 -25.760  0.00  0.00    -0.163 F 
ATOM     15  F   UNL     1      34.321 -14.009 -23.918  0.00  0.00    -0.163 F 
ATOM     16  C   UNL     1      33.402 -14.244 -24.887  0.00  0.00    +0.452 C 
ENDBRANCH  12  16
ENDBRANCH  10  12
ENDBRANCH   1  10
TORSDOF 10
ENDMDL
MODEL 8
REMARK VINA RESULT:      -6.0      1.684      3.164
REMARK  Name = 146089
REMARK  10 active torsions:
REMARK  status: ('A' for Active; 'I' for Inactive)
REMARK    1  A    between atoms: S_1  and  C_2
REMARK    2  A    between atoms: S_1  and  C_10
REMARK    3  A    between atoms: C_2  and  C_3
REMARK    4  A    between atoms: C_3  and  C_4
REMARK    5  A    between atoms: C_4  and  C_5
REMARK    6  A    between atoms: C_5  and  C_6
REMARK    7  A    between atoms: C_6  and  C_7
REMARK    8  A    between atoms: C_7  and  C_8
REMARK    9  A    between atoms: C_10  and  C_12
REMARK   10  A    between atoms: C_12  and  C_16
REMARK                            x       y       z     vdW  Elec       q    Type
REMARK                         _______ _______ _______ _____ _____    ______ ____
ROOT
ATOM      1  S   UNL     1      34.576 -16.948 -23.439  0.00  0.00    -0.132 S 
ENDROOT
BRANCH   1   2
ATOM      2  C   UNL     1      35.419 -17.875 -22.126  0.00  0.00    +0.058 C 
BRANCH   2   3
ATOM      3  C   UNL     1      34.430 -18.279 -21.037  0.00  0.00    +0.012 C 
BRANCH   3   4
ATOM      4  C   UNL     1      33.716 -19.585 -21.403  0.00  0.00    +0.001 C 
BRANCH   4   5
ATOM      5  C   UNL     1      33.056 -20.218 -20.176  0.00  0.00    +0.000 C 
BRANCH   5   6
ATOM      6  C   UNL     1      33.461 -21.679 -19.954  0.00  0.00    +0.000 C 
BRANCH   6   7
ATOM      7  C   UNL     1      34.709 -21.837 -19.083  0.00  0.00    +0.000 C 
BRANCH   7   8
ATOM      8  C   UNL     1      35.979 -21.851 -19.936  0.00  0.00    +0.000 C 
ATOM      9  C   UNL     1      36.820 -20.606 -19.704  0.00  0.00    +0.000 C 
ENDBRANCH   7   8
ENDBRANCH   6   7
ENDBRANCH   5   6
ENDBRANCH   4   5
ENDBRANCH   3   4
ENDBRANCH   2   3
ENDBRANCH   1   2
BRANCH   1  10
ATOM     10  C   UNL     1      34.746 -15.289 -22.741  0.00  0.00    +0.131 C 
BRANCH  10  12
ATOM     11  O   UNL     1      32.610 -14.180 -23.042  0.00  0.00    -0.286 OA
ATOM     12  C   UNL     1      33.415 -14.725 -22.288  0.00  0.00    +0.255 C 
BRANCH  12  16
ATOM     13  F   UNL     1      34.223 -15.171 -20.106  0.00  0.00    -0.163 F 
ATOM     14  F   UNL     1      32.202 -15.840 -20.577  0.00  0.00    -0.163 F 
ATOM     15  F   UNL     1      32.611 -13.717 -20.301  0.00  0.00    -0.163 F 
ATOM     16  C   UNL     1      33.112 -14.864 -20.822  0.00  0.00    +0.452 C 
ENDBRANCH  12  16
ENDBRANCH  10  12
ENDBRANCH   1  10
TORSDOF 10
ENDMDL
MODEL 9
REMARK VINA RESULT:      -5.9      3.839      6.862
REMARK  Name = 146089
REMARK  10 active torsions:
REMARK  status: ('A' for Active; 'I' for Inactive)
REMARK    1  A    between atoms: S_1  and  C_2
REMARK    2  A    between atoms: S_1  and  C_10
REMARK    3  A    between atoms: C_2  and  C_3
REMARK    4  A    between atoms: C_3  and  C_4
REMARK    5  A    between atoms: C_4  and  C_5
REMARK    6  A    between atoms: C_5  and  C_6
REMARK    7  A    between atoms: C_6  and  C_7
REMARK    8  A    between atoms: C_7  and  C_8
REMARK    9  A    between atoms: C_10  and  C_12
REMARK   10  A    between atoms: C_12  and  C_16
REMARK                            x       y       z     vdW  Elec       q    Type
REMARK                         _______ _______ _______ _____ _____    ______ ____
ROOT
ATOM      1  S   UNL     1      34.400 -14.681 -22.295  0.00  0.00    -0.132 S 
ENDROOT
BRANCH   1   2
ATOM      2  C   UNL     1      32.691 -14.456 -22.866  0.00  0.00    +0.058 C 
BRANCH   2   3
ATOM      3  C   UNL     1      32.245 -13.012 -22.661  0.00  0.00    +0.012 C 
BRANCH   3   4
ATOM      4  C   UNL     1      31.986 -12.725 -21.178  0.00  0.00    +0.001 C 
BRANCH   4   5
ATOM      5  C   UNL     1      31.172 -11.441 -20.996  0.00  0.00    +0.000 C 
BRANCH   5   6
ATOM      6  C   UNL     1      31.137 -10.944 -19.548  0.00  0.00    +0.000 C 
BRANCH   6   7
ATOM      7  C   UNL     1      32.003  -9.705 -19.310  0.00  0.00    +0.000 C 
BRANCH   7   8
ATOM      8  C   UNL     1      32.229  -8.931 -20.610  0.00  0.00    +0.000 C 
ATOM      9  C   UNL     1      32.545  -7.468 -20.339  0.00  0.00    +0.000 C 
ENDBRANCH   7   8
ENDBRANCH   6   7
ENDBRANCH   5   6
ENDBRANCH   4   5
ENDBRANCH   3   4
ENDBRANCH   2   3
ENDBRANCH   1   2
BRANCH   1  10
ATOM     10  C   UNL     1      34.546 -16.458 -22.595  0.00  0.00    +0.131 C 
BRANCH  10  12
ATOM     11  O   UNL     1      35.258 -16.730 -20.291  0.00  0.00    -0.286 OA
ATOM     12  C   UNL     1      34.795 -17.230 -21.315  0.00  0.00    +0.255 C 
BRANCH  12  16
ATOM     13  F   UNL     1      34.381 -19.159 -22.627  0.00  0.00    -0.163 F 
ATOM     14  F   UNL     1      33.233 -18.940 -20.788  0.00  0.00    -0.163 F 
ATOM     15  F   UNL     1      35.351 -19.449 -20.695  0.00  0.00    -0.163 F 
ATOM     16  C   UNL     1      34.440 -18.690 -21.355  0.00  0.00    +0.452 C 
ENDBRANCH  12  16
ENDBRANCH  10  12
ENDBRANCH   1  10
TORSDOF 10
ENDMDL
