MODEL 1
REMARK VINA RESULT:      -7.6      0.000      0.000
REMARK  Name = 5289289
REMARK  4 active torsions:
REMARK  status: ('A' for Active; 'I' for Inactive)
REMARK    1  A    between atoms: C_1  and  N_10
REMARK    2  A    between atoms: C_8  and  O_16
REMARK    3  A    between atoms: N_10  and  C_13
REMARK    4  A    between atoms: C_13  and  C_14
REMARK                            x       y       z     vdW  Elec       q    Type
REMARK                         _______ _______ _______ _____ _____    ______ ____
ROOT
ATOM      1  C   UNL     1      35.249 -17.113 -22.351  0.00  0.00    -0.037 C 
ATOM      2  C   UNL     1      34.800 -16.512 -21.003  0.00  0.00    -0.012 C 
ATOM      3  C   UNL     1      34.594 -15.011 -21.249  0.00  0.00    +0.024 C 
ATOM      4  C   UNL     1      34.523 -16.214 -23.313  0.00  0.00    -0.043 C 
ATOM      5  C   UNL     1      34.158 -15.017 -22.681  0.00  0.00    -0.028 C 
ATOM      6  C   UNL     1      34.263 -16.411 -24.661  0.00  0.00    +0.030 C 
ATOM      7  C   UNL     1      33.523 -14.001 -23.378  0.00  0.00    -0.002 C 
ATOM      8  C   UNL     1      33.609 -15.398 -25.367  0.00  0.00    +0.133 C 
ATOM      9  C   UNL     1      33.242 -14.203 -24.730  0.00  0.00    +0.036 C 
ENDROOT
BRANCH   1  10
ATOM     10  N   UNL     1      34.891 -18.520 -22.442  0.00  0.00    +0.396 N 
ATOM     11  H   UNL     1      35.438 -18.956 -23.184  0.00  0.00    -0.082 HD
ATOM     12  H   UNL     1      33.894 -18.589 -22.645  0.00  0.00    -0.082 HD
BRANCH  10  13
ATOM     13  C   UNL     1      35.158 -19.209 -21.185  0.00  0.00    -0.001 C 
BRANCH  13  14
ATOM     14  C   UNL     1      33.958 -19.898 -20.700  0.00  0.00    -0.102 C 
ATOM     15  C   UNL     1      32.973 -20.456 -20.302  0.00  0.00    -0.016 C 
ENDBRANCH  13  14
ENDBRANCH  10  13
ENDBRANCH   1  10
BRANCH   8  16
ATOM     16  O   UNL     1      33.335 -15.568 -26.690  0.00  0.00    -0.506 OA
ATOM     17  H   UNL     1      32.477 -15.383 -27.019  0.00  0.00    +0.292 HD
ENDBRANCH   8  16
TORSDOF 4
ENDMDL
MODEL 2
REMARK VINA RESULT:      -7.5      3.939      6.970
REMARK  Name = 5289289
REMARK  4 active torsions:
REMARK  status: ('A' for Active; 'I' for Inactive)
REMARK    1  A    between atoms: C_1  and  N_10
REMARK    2  A    between atoms: C_8  and  O_16
REMARK    3  A    between atoms: N_10  and  C_13
REMARK    4  A    between atoms: C_13  and  C_14
REMARK                            x       y       z     vdW  Elec       q    Type
REMARK                         _______ _______ _______ _____ _____    ______ ____
ROOT
ATOM      1  C   UNL     1      34.955 -19.594 -21.111  0.00  0.00    -0.037 C 
ATOM      2  C   UNL     1      33.446 -19.274 -21.106  0.00  0.00    -0.012 C 
ATOM      3  C   UNL     1      32.736 -20.558 -20.652  0.00  0.00    +0.024 C 
ATOM      4  C   UNL     1      35.032 -20.593 -19.990  0.00  0.00    -0.043 C 
ATOM      5  C   UNL     1      33.767 -21.142 -19.738  0.00  0.00    -0.028 C 
ATOM      6  C   UNL     1      36.147 -21.032 -19.291  0.00  0.00    +0.030 C 
ATOM      7  C   UNL     1      33.590 -22.130 -18.782  0.00  0.00    -0.002 C 
ATOM      8  C   UNL     1      35.975 -22.017 -18.315  0.00  0.00    +0.133 C 
ATOM      9  C   UNL     1      34.706 -22.561 -18.063  0.00  0.00    +0.036 C 
ENDROOT
BRANCH   1  10
ATOM     10  N   UNL     1      35.746 -18.390 -20.910  0.00  0.00    +0.396 N 
ATOM     11  H   UNL     1      36.729 -18.606 -21.076  0.00  0.00    -0.082 HD
ATOM     12  H   UNL     1      35.607 -18.066 -19.954  0.00  0.00    -0.082 HD
BRANCH  10  13
ATOM     13  C   UNL     1      35.330 -17.334 -21.826  0.00  0.00    -0.001 C 
BRANCH  13  14
ATOM     14  C   UNL     1      34.812 -16.177 -21.089  0.00  0.00    -0.102 C 
ATOM     15  C   UNL     1      34.382 -15.232 -20.486  0.00  0.00    -0.016 C 
ENDBRANCH  13  14
ENDBRANCH  10  13
ENDBRANCH   1  10
BRANCH   8  16
ATOM     16  O   UNL     1      37.051 -22.462 -17.608  0.00  0.00    -0.506 OA
ATOM     17  H   UNL     1      37.593 -23.140 -17.957  0.00  0.00    +0.292 HD
ENDBRANCH   8  16
TORSDOF 4
ENDMDL
MODEL 3
REMARK VINA RESULT:      -7.5      3.421      6.367
REMARK  Name = 5289289
REMARK  4 active torsions:
REMARK  status: ('A' for Active; 'I' for Inactive)
REMARK    1  A    between atoms: C_1  and  N_10
REMARK    2  A    between atoms: C_8  and  O_16
REMARK    3  A    between atoms: N_10  and  C_13
REMARK    4  A    between atoms: C_13  and  C_14
REMARK                            x       y       z     vdW  Elec       q    Type
REMARK                         _______ _______ _______ _____ _____    ______ ____
ROOT
ATOM      1  C   UNL     1      35.002 -18.664 -21.448  0.00  0.00    -0.037 C 
ATOM      2  C   UNL     1      36.494 -18.772 -21.823  0.00  0.00    -0.012 C 
ATOM      3  C   UNL     1      37.185 -19.464 -20.640  0.00  0.00    +0.024 C 
ATOM      4  C   UNL     1      34.835 -19.898 -20.606  0.00  0.00    -0.043 C 
ATOM      5  C   UNL     1      36.082 -20.345 -20.144  0.00  0.00    -0.028 C 
ATOM      6  C   UNL     1      33.667 -20.539 -20.223  0.00  0.00    +0.030 C 
ATOM      7  C   UNL     1      36.185 -21.440 -19.301  0.00  0.00    -0.002 C 
ATOM      8  C   UNL     1      33.763 -21.653 -19.384  0.00  0.00    +0.133 C 
ATOM      9  C   UNL     1      35.012 -22.099 -18.928  0.00  0.00    +0.036 C 
ENDROOT
BRANCH   1  10
ATOM     10  N   UNL     1      34.165 -18.619 -22.637  0.00  0.00    +0.396 N 
ATOM     11  H   UNL     1      33.614 -17.761 -22.625  0.00  0.00    -0.082 HD
ATOM     12  H   UNL     1      33.555 -19.436 -22.636  0.00  0.00    -0.082 HD
BRANCH  10  13
ATOM     13  C   UNL     1      34.977 -18.647 -23.848  0.00  0.00    -0.001 C 
BRANCH  13  14
ATOM     14  C   UNL     1      34.683 -17.491 -24.701  0.00  0.00    -0.102 C 
ATOM     15  C   UNL     1      34.446 -16.548 -25.405  0.00  0.00    -0.016 C 
ENDBRANCH  13  14
ENDBRANCH  10  13
ENDBRANCH   1  10
BRANCH   8  16
ATOM     16  O   UNL     1      32.632 -22.306 -18.998  0.00  0.00    -0.506 OA
ATOM     17  H   UNL     1      32.575 -22.677 -18.140  0.00  0.00    +0.292 HD
ENDBRANCH   8  16
TORSDOF 4
ENDMDL
MODEL 4
REMARK VINA RESULT:      -7.2      2.911      5.822
REMARK  Name = 5289289
REMARK  4 active torsions:
REMARK  status: ('A' for Active; 'I' for Inactive)
REMARK    1  A    between atoms: C_1  and  N_10
REMARK    2  A    between atoms: C_8  and  O_16
REMARK    3  A    between atoms: N_10  and  C_13
REMARK    4  A    between atoms: C_13  and  C_14
REMARK                            x       y       z     vdW  Elec       q    Type
REMARK                         _______ _______ _______ _____ _____    ______ ____
ROOT
ATOM      1  C   UNL     1      32.871 -13.644 -23.659  0.00  0.00    -0.037 C 
ATOM      2  C   UNL     1      32.489 -12.702 -22.498  0.00  0.00    -0.012 C 
ATOM      3  C   UNL     1      32.363 -13.588 -21.250  0.00  0.00    +0.024 C 
ATOM      4  C   UNL     1      33.671 -14.683 -22.924  0.00  0.00    -0.043 C 
ATOM      5  C   UNL     1      33.373 -14.649 -21.554  0.00  0.00    -0.028 C 
ATOM      6  C   UNL     1      34.547 -15.629 -23.435  0.00  0.00    +0.030 C 
ATOM      7  C   UNL     1      33.947 -15.551 -20.672  0.00  0.00    -0.002 C 
ATOM      8  C   UNL     1      35.140 -16.533 -22.551  0.00  0.00    +0.133 C 
ATOM      9  C   UNL     1      34.843 -16.493 -21.180  0.00  0.00    +0.036 C 
ENDROOT
BRANCH   1  10
ATOM     10  N   UNL     1      33.602 -12.929 -24.693  0.00  0.00    +0.396 N 
ATOM     11  H   UNL     1      33.074 -12.973 -25.565  0.00  0.00    -0.082 HD
ATOM     12  H   UNL     1      34.515 -13.366 -24.806  0.00  0.00    -0.082 HD
BRANCH  10  13
ATOM     13  C   UNL     1      33.797 -11.532 -24.325  0.00  0.00    -0.001 C 
BRANCH  13  14
ATOM     14  C   UNL     1      34.732 -10.875 -25.242  0.00  0.00    -0.102 C 
ATOM     15  C   UNL     1      35.502 -10.334 -25.989  0.00  0.00    -0.016 C 
ENDBRANCH  13  14
ENDBRANCH  10  13
ENDBRANCH   1  10
BRANCH   8  16
ATOM     16  O   UNL     1      36.010 -17.468 -23.024  0.00  0.00    -0.506 OA
ATOM     17  H   UNL     1      35.739 -18.361 -23.108  0.00  0.00    +0.292 HD
ENDBRANCH   8  16
TORSDOF 4
ENDMDL
MODEL 5
REMARK VINA RESULT:      -7.2      2.006      2.793
REMARK  Name = 5289289
REMARK  4 active torsions:
REMARK  status: ('A' for Active; 'I' for Inactive)
REMARK    1  A    between atoms: C_1  and  N_10
REMARK    2  A    between atoms: C_8  and  O_16
REMARK    3  A    between atoms: N_10  and  C_13
REMARK    4  A    between atoms: C_13  and  C_14
REMARK                            x       y       z     vdW  Elec       q    Type
REMARK                         _______ _______ _______ _____ _____    ______ ____
ROOT
ATOM      1  C   UNL     1      34.791 -18.254 -22.109  0.00  0.00    -0.037 C 
ATOM      2  C   UNL     1      35.613 -18.371 -23.409  0.00  0.00    -0.012 C 
ATOM      3  C   UNL     1      34.945 -17.435 -24.426  0.00  0.00    +0.024 C 
ATOM      4  C   UNL     1      34.330 -16.826 -22.198  0.00  0.00    -0.043 C 
ATOM      5  C   UNL     1      34.415 -16.367 -23.521  0.00  0.00    -0.028 C 
ATOM      6  C   UNL     1      33.814 -16.014 -21.199  0.00  0.00    +0.030 C 
ATOM      7  C   UNL     1      33.994 -15.093 -23.867  0.00  0.00    -0.002 C 
ATOM      8  C   UNL     1      33.401 -14.722 -21.538  0.00  0.00    +0.133 C 
ATOM      9  C   UNL     1      33.491 -14.266 -22.862  0.00  0.00    +0.036 C 
ENDROOT
BRANCH   1  10
ATOM     10  N   UNL     1      35.606 -18.560 -20.944  0.00  0.00    +0.396 N 
ATOM     11  H   UNL     1      35.278 -18.007 -20.153  0.00  0.00    -0.082 HD
ATOM     12  H   UNL     1      36.577 -18.336 -21.159  0.00  0.00    -0.082 HD
BRANCH  10  13
ATOM     13  C   UNL     1      35.520 -19.975 -20.605  0.00  0.00    -0.001 C 
BRANCH  13  14
ATOM     14  C   UNL     1      34.138 -20.356 -20.295  0.00  0.00    -0.102 C 
ATOM     15  C   UNL     1      33.008 -20.673 -20.042  0.00  0.00    -0.016 C 
ENDBRANCH  13  14
ENDBRANCH  10  13
ENDBRANCH   1  10
BRANCH   8  16
ATOM     16  O   UNL     1      32.896 -13.901 -20.575  0.00  0.00    -0.506 OA
ATOM     17  H   UNL     1      33.208 -13.964 -19.694  0.00  0.00    +0.292 HD
ENDBRANCH   8  16
TORSDOF 4
ENDMDL
MODEL 6
REMARK VINA RESULT:      -7.1      2.711      5.710
REMARK  Name = 5289289
REMARK  4 active torsions:
REMARK  status: ('A' for Active; 'I' for Inactive)
REMARK    1  A    between atoms: C_1  and  N_10
REMARK    2  A    between atoms: C_8  and  O_16
REMARK    3  A    between atoms: N_10  and  C_13
REMARK    4  A    between atoms: C_13  and  C_14
REMARK                            x       y       z     vdW  Elec       q    Type
REMARK                         _______ _______ _______ _____ _____    ______ ____
ROOT
ATOM      1  C   UNL     1      34.453 -16.303 -24.784  0.00  0.00    -0.037 C 
ATOM      2  C   UNL     1      34.030 -17.608 -25.489  0.00  0.00    -0.012 C 
ATOM      3  C   UNL     1      34.756 -18.746 -24.758  0.00  0.00    +0.024 C 
ATOM      4  C   UNL     1      34.654 -16.798 -23.378  0.00  0.00    -0.043 C 
ATOM      5  C   UNL     1      34.831 -18.189 -23.371  0.00  0.00    -0.028 C 
ATOM      6  C   UNL     1      34.738 -16.068 -22.202  0.00  0.00    +0.030 C 
ATOM      7  C   UNL     1      35.088 -18.875 -22.195  0.00  0.00    -0.002 C 
ATOM      8  C   UNL     1      34.982 -16.753 -21.009  0.00  0.00    +0.133 C 
ATOM      9  C   UNL     1      35.155 -18.146 -21.006  0.00  0.00    +0.036 C 
ENDROOT
BRANCH   1  10
ATOM     10  N   UNL     1      33.435 -15.276 -24.929  0.00  0.00    +0.396 N 
ATOM     11  H   UNL     1      33.826 -14.376 -24.650  0.00  0.00    -0.082 HD
ATOM     12  H   UNL     1      32.641 -15.519 -24.338  0.00  0.00    -0.082 HD
BRANCH  10  13
ATOM     13  C   UNL     1      32.976 -15.187 -26.310  0.00  0.00    -0.001 C 
BRANCH  13  14
ATOM     14  C   UNL     1      33.215 -13.847 -26.856  0.00  0.00    -0.102 C 
ATOM     15  C   UNL     1      33.404 -12.751 -27.306  0.00  0.00    -0.016 C 
ENDBRANCH  13  14
ENDBRANCH  10  13
ENDBRANCH   1  10
BRANCH   8  16
ATOM     16  O   UNL     1      35.063 -16.062 -19.839  0.00  0.00    -0.506 OA
ATOM     17  H   UNL     1      35.761 -15.453 -19.701  0.00  0.00    +0.292 HD
ENDBRANCH   8  16
TORSDOF 4
ENDMDL
MODEL 7
REMARK VINA RESULT:      -7.1      4.921      8.298
REMARK  Name = 5289289
REMARK  4 active torsions:
REMARK  status: ('A' for Active; 'I' for Inactive)
REMARK    1  A    between atoms: C_1  and  N_10
REMARK    2  A    between atoms: C_8  and  O_16
REMARK    3  A    between atoms: N_10  and  C_13
REMARK    4  A    between atoms: C_13  and  C_14
REMARK                            x       y       z     vdW  Elec       q    Type
REMARK                         _______ _______ _______ _____ _____    ______ ____
ROOT
ATOM      1  C   UNL     1      35.472 -21.193 -19.875  0.00  0.00    -0.037 C 
ATOM      2  C   UNL     1      33.933 -21.096 -19.922  0.00  0.00    -0.012 C 
ATOM      3  C   UNL     1      33.404 -22.253 -19.063  0.00  0.00    +0.024 C 
ATOM      4  C   UNL     1      35.674 -21.764 -18.499  0.00  0.00    -0.043 C 
ATOM      5  C   UNL     1      34.494 -22.372 -18.045  0.00  0.00    -0.028 C 
ATOM      6  C   UNL     1      36.830 -21.803 -17.733  0.00  0.00    +0.030 C 
ATOM      7  C   UNL     1      34.445 -23.019 -16.821  0.00  0.00    -0.002 C 
ATOM      8  C   UNL     1      36.784 -22.442 -16.491  0.00  0.00    +0.133 C 
ATOM      9  C   UNL     1      35.600 -23.044 -16.039  0.00  0.00    +0.036 C 
ENDROOT
BRANCH   1  10
ATOM     10  N   UNL     1      36.086 -19.892 -20.090  0.00  0.00    +0.396 N 
ATOM     11  H   UNL     1      37.099 -20.002 -20.123  0.00  0.00    -0.082 HD
ATOM     12  H   UNL     1      35.818 -19.275 -19.324  0.00  0.00    -0.082 HD
BRANCH  10  13
ATOM     13  C   UNL     1      35.630 -19.302 -21.343  0.00  0.00    -0.001 C 
BRANCH  13  14
ATOM     14  C   UNL     1      35.239 -17.902 -21.151  0.00  0.00    -0.102 C 
ATOM     15  C   UNL     1      34.915 -16.756 -20.998  0.00  0.00    -0.016 C 
ENDBRANCH  13  14
ENDBRANCH  10  13
ENDBRANCH   1  10
BRANCH   8  16
ATOM     16  O   UNL     1      37.903 -22.489 -15.716  0.00  0.00    -0.506 OA
ATOM     17  H   UNL     1      37.983 -21.922 -14.974  0.00  0.00    +0.292 HD
ENDBRANCH   8  16
TORSDOF 4
ENDMDL
MODEL 8
REMARK VINA RESULT:      -7.1      2.871      5.305
REMARK  Name = 5289289
REMARK  4 active torsions:
REMARK  status: ('A' for Active; 'I' for Inactive)
REMARK    1  A    between atoms: C_1  and  N_10
REMARK    2  A    between atoms: C_8  and  O_16
REMARK    3  A    between atoms: N_10  and  C_13
REMARK    4  A    between atoms: C_13  and  C_14
REMARK                            x       y       z     vdW  Elec       q    Type
REMARK                         _______ _______ _______ _____ _____    ______ ____
ROOT
ATOM      1  C   UNL     1      34.239 -14.665 -23.068  0.00  0.00    -0.037 C 
ATOM      2  C   UNL     1      33.451 -14.809 -24.387  0.00  0.00    -0.012 C 
ATOM      3  C   UNL     1      34.100 -15.974 -25.149  0.00  0.00    +0.024 C 
ATOM      4  C   UNL     1      34.638 -16.094 -22.824  0.00  0.00    -0.043 C 
ATOM      5  C   UNL     1      34.562 -16.832 -24.014  0.00  0.00    -0.028 C 
ATOM      6  C   UNL     1      35.096 -16.682 -21.654  0.00  0.00    +0.030 C 
ATOM      7  C   UNL     1      34.933 -18.166 -24.056  0.00  0.00    -0.002 C 
ATOM      8  C   UNL     1      35.459 -18.031 -21.685  0.00  0.00    +0.133 C 
ATOM      9  C   UNL     1      35.377 -18.767 -22.877  0.00  0.00    +0.036 C 
ENDROOT
BRANCH   1  10
ATOM     10  N   UNL     1      33.412 -14.076 -22.027  0.00  0.00    +0.396 N 
ATOM     11  H   UNL     1      33.992 -13.477 -21.440  0.00  0.00    -0.082 HD
ATOM     12  H   UNL     1      33.001 -14.828 -21.474  0.00  0.00    -0.082 HD
BRANCH  10  13
ATOM     13  C   UNL     1      32.335 -13.280 -22.603  0.00  0.00    -0.001 C 
BRANCH  13  14
ATOM     14  C   UNL     1      31.807 -12.326 -21.622  0.00  0.00    -0.102 C 
ATOM     15  C   UNL     1      31.370 -11.544 -20.824  0.00  0.00    -0.016 C 
ENDBRANCH  13  14
ENDBRANCH  10  13
ENDBRANCH   1  10
BRANCH   8  16
ATOM     16  O   UNL     1      35.905 -18.635 -20.549  0.00  0.00    -0.506 OA
ATOM     17  H   UNL     1      36.823 -18.672 -20.367  0.00  0.00    +0.292 HD
ENDBRANCH   8  16
TORSDOF 4
ENDMDL
MODEL 9
REMARK VINA RESULT:      -7.0      2.884      4.932
REMARK  Name = 5289289
REMARK  4 active torsions:
REMARK  status: ('A' for Active; 'I' for Inactive)
REMARK    1  A    between atoms: C_1  and  N_10
REMARK    2  A    between atoms: C_8  and  O_16
REMARK    3  A    between atoms: N_10  and  C_13
REMARK    4  A    between atoms: C_13  and  C_14
REMARK                            x       y       z     vdW  Elec       q    Type
REMARK                         _______ _______ _______ _____ _____    ______ ____
ROOT
ATOM      1  C   UNL     1      32.419 -13.856 -22.029  0.00  0.00    -0.037 C 
ATOM      2  C   UNL     1      33.283 -14.271 -20.820  0.00  0.00    -0.012 C 
ATOM      3  C   UNL     1      33.758 -15.703 -21.104  0.00  0.00    +0.024 C 
ATOM      4  C   UNL     1      33.091 -14.627 -23.131  0.00  0.00    -0.043 C 
ATOM      5  C   UNL     1      33.847 -15.680 -22.598  0.00  0.00    -0.028 C 
ATOM      6  C   UNL     1      32.990 -14.451 -24.503  0.00  0.00    +0.030 C 
ATOM      7  C   UNL     1      34.520 -16.570 -23.420  0.00  0.00    -0.002 C 
ATOM      8  C   UNL     1      33.677 -15.335 -25.339  0.00  0.00    +0.133 C 
ATOM      9  C   UNL     1      34.436 -16.386 -24.801  0.00  0.00    +0.036 C 
ENDROOT
BRANCH   1  10
ATOM     10  N   UNL     1      32.423 -12.412 -22.204  0.00  0.00    +0.396 N 
ATOM     11  H   UNL     1      32.516 -12.197 -23.196  0.00  0.00    -0.082 HD
ATOM     12  H   UNL     1      33.206 -12.023 -21.680  0.00  0.00    -0.082 HD
BRANCH  10  13
ATOM     13  C   UNL     1      31.188 -11.822 -21.702  0.00  0.00    -0.001 C 
BRANCH  13  14
ATOM     14  C   UNL     1      31.363 -11.330 -20.332  0.00  0.00    -0.102 C 
ATOM     15  C   UNL     1      31.508 -10.922 -19.212  0.00  0.00    -0.016 C 
ENDBRANCH  13  14
ENDBRANCH  10  13
ENDBRANCH   1  10
BRANCH   8  16
ATOM     16  O   UNL     1      33.601 -15.182 -26.690  0.00  0.00    -0.506 OA
ATOM     17  H   UNL     1      34.302 -14.771 -27.156  0.00  0.00    +0.292 HD
ENDBRANCH   8  16
TORSDOF 4
ENDMDL
