MODEL 1
REMARK VINA RESULT:      -8.1      0.000      0.000
REMARK  Name = 446156
REMARK  14 active torsions:
REMARK  status: ('A' for Active; 'I' for Inactive)
REMARK    1  A    between atoms: C_2  and  C_17
REMARK    2  A    between atoms: C_3  and  C_14
REMARK    3  A    between atoms: C_4  and  C_34
REMARK    4  A    between atoms: C_5  and  C_20
REMARK    5  A    between atoms: C_6  and  C_8
REMARK    6  A    between atoms: C_21  and  C_22
REMARK    7  A    between atoms: C_22  and  O_23
REMARK    8  A    between atoms: C_22  and  C_25
REMARK    9  A    between atoms: C_25  and  C_26
REMARK   10  A    between atoms: C_26  and  O_27
REMARK   11  A    between atoms: C_26  and  C_29
REMARK   12  A    between atoms: C_29  and  C_31
REMARK   13  A    between atoms: C_31  and  O_32
REMARK   14  A    between atoms: C_34  and  O_35
REMARK                            x       y       z     vdW  Elec       q    Type
REMARK                         _______ _______ _______ _____ _____    ______ ____
ROOT
ATOM      1  N   UNL     1      32.396 -10.089 -22.157  0.00  0.00    -0.414 NA
ATOM      2  C   UNL     1      32.970 -10.094 -23.381  0.00  0.00    +0.106 C 
ATOM      3  C   UNL     1      32.170 -11.298 -21.596  0.00  0.00    +0.094 C 
ATOM      4  C   UNL     1      33.326 -11.243 -24.067  0.00  0.00    +0.029 C 
ATOM      5  C   UNL     1      32.489 -12.505 -22.198  0.00  0.00    +0.092 C 
ATOM      6  C   UNL     1      33.078 -12.468 -23.458  0.00  0.00    -0.012 C 
ENDROOT
BRANCH   6   8
ATOM      7  F   UNL     1      34.461 -17.190 -26.095  0.00  0.00    -0.204 F 
ATOM      8  C   UNL     1      33.437 -13.699 -24.144  0.00  0.00    -0.003 C 
ATOM      9  C   UNL     1      34.504 -14.469 -23.680  0.00  0.00    +0.002 C 
ATOM     10  C   UNL     1      32.717 -14.107 -25.267  0.00  0.00    +0.002 C 
ATOM     11  C   UNL     1      34.850 -15.649 -24.340  0.00  0.00    +0.030 C 
ATOM     12  C   UNL     1      33.063 -15.287 -25.926  0.00  0.00    +0.030 C 
ATOM     13  C   UNL     1      34.129 -16.058 -25.463  0.00  0.00    +0.140 C 
ENDBRANCH   6   8
BRANCH   3  14
ATOM     14  C   UNL     1      31.534 -11.259 -20.243  0.00  0.00    +0.049 C 
ATOM     15  C   UNL     1      30.004 -11.114 -20.320  0.00  0.00    +0.007 C 
ATOM     16  C   UNL     1      32.123 -10.150 -19.353  0.00  0.00    +0.007 C 
ENDBRANCH   3  14
BRANCH   2  17
ATOM     17  C   UNL     1      33.212  -8.748 -23.984  0.00  0.00    +0.052 C 
ATOM     18  C   UNL     1      31.954  -7.861 -23.962  0.00  0.00    +0.007 C 
ATOM     19  C   UNL     1      34.387  -8.010 -23.318  0.00  0.00    +0.007 C 
ENDBRANCH   2  17
BRANCH   5  20
ATOM     20  C   UNL     1      32.206 -13.777 -21.512  0.00  0.00    -0.018 C 
ATOM     21  C   UNL     1      33.139 -14.600 -21.005  0.00  0.00    -0.001 C 
BRANCH  21  22
ATOM     22  C   UNL     1      32.882 -15.912 -20.302  0.00  0.00    +0.135 C 
BRANCH  22  23
ATOM     23  O   UNL     1      31.520 -16.016 -19.901  0.00  0.00    -0.380 OA
ATOM     24  H   UNL     1      30.945 -15.817 -20.656  0.00  0.00    +0.211 HD
ENDBRANCH  22  23
BRANCH  22  25
ATOM     25  C   UNL     1      33.249 -17.092 -21.221  0.00  0.00    +0.064 C 
BRANCH  25  26
ATOM     26  C   UNL     1      34.763 -17.267 -21.420  0.00  0.00    +0.124 C 
BRANCH  26  27
ATOM     27  O   UNL     1      35.433 -16.952 -20.202  0.00  0.00    -0.384 OA
ATOM     28  H   UNL     1      36.363 -17.217 -20.267  0.00  0.00    +0.210 HD
ENDBRANCH  26  27
BRANCH  26  29
ATOM     29  C   UNL     1      35.150 -18.675 -21.878  0.00  0.00    +0.139 C 
BRANCH  29  31
ATOM     30  O   UNL     1      34.366 -20.378 -20.350  0.00  0.00    -0.250 OA
ATOM     31  C   UNL     1      35.277 -19.657 -20.737  0.00  0.00    +0.316 C 
BRANCH  31  32
ATOM     32  O   UNL     1      36.506 -19.642 -20.163  0.00  0.00    -0.480 OA
ATOM     33  H   UNL     1      36.798 -18.880 -19.702  0.00  0.00    +0.295 HD
ENDBRANCH  31  32
ENDBRANCH  29  31
ENDBRANCH  26  29
ENDBRANCH  25  26
ENDBRANCH  22  25
ENDBRANCH  21  22
ENDBRANCH   5  20
BRANCH   4  34
ATOM     34  C   UNL     1      33.957 -11.154 -25.418  0.00  0.00    +0.171 C 
BRANCH  34  35
ATOM     35  O   UNL     1      35.296 -10.700 -25.283  0.00  0.00    -0.346 OA
ATOM     36  C   UNL     1      35.850 -10.327 -26.538  0.00  0.00    +0.175 C 
ENDBRANCH  34  35
ENDBRANCH   4  34
TORSDOF 14
ENDMDL
MODEL 2
REMARK VINA RESULT:      -8.0      9.760     13.563
REMARK  Name = 446156
REMARK  14 active torsions:
REMARK  status: ('A' for Active; 'I' for Inactive)
REMARK    1  A    between atoms: C_2  and  C_17
REMARK    2  A    between atoms: C_3  and  C_14
REMARK    3  A    between atoms: C_4  and  C_34
REMARK    4  A    between atoms: C_5  and  C_20
REMARK    5  A    between atoms: C_6  and  C_8
REMARK    6  A    between atoms: C_21  and  C_22
REMARK    7  A    between atoms: C_22  and  O_23
REMARK    8  A    between atoms: C_22  and  C_25
REMARK    9  A    between atoms: C_25  and  C_26
REMARK   10  A    between atoms: C_26  and  O_27
REMARK   11  A    between atoms: C_26  and  C_29
REMARK   12  A    between atoms: C_29  and  C_31
REMARK   13  A    between atoms: C_31  and  O_32
REMARK   14  A    between atoms: C_34  and  O_35
REMARK                            x       y       z     vdW  Elec       q    Type
REMARK                         _______ _______ _______ _____ _____    ______ ____
ROOT
ATOM      1  N   UNL     1      35.418 -22.333 -17.576  0.00  0.00    -0.414 NA
ATOM      2  C   UNL     1      34.139 -22.610 -17.917  0.00  0.00    +0.106 C 
ATOM      3  C   UNL     1      35.738 -22.493 -16.273  0.00  0.00    +0.094 C 
ATOM      4  C   UNL     1      33.172 -23.036 -17.021  0.00  0.00    +0.029 C 
ATOM      5  C   UNL     1      34.846 -22.914 -15.299  0.00  0.00    +0.092 C 
ATOM      6  C   UNL     1      33.539 -23.188 -15.689  0.00  0.00    -0.012 C 
ENDROOT
BRANCH   6   8
ATOM      7  F   UNL     1      29.758 -24.899 -11.955  0.00  0.00    -0.204 F 
ATOM      8  C   UNL     1      32.554 -23.634 -14.718  0.00  0.00    -0.003 C 
ATOM      9  C   UNL     1      31.855 -22.698 -13.955  0.00  0.00    +0.002 C 
ATOM     10  C   UNL     1      32.309 -24.997 -14.548  0.00  0.00    +0.002 C 
ATOM     11  C   UNL     1      30.910 -23.126 -13.021  0.00  0.00    +0.030 C 
ATOM     12  C   UNL     1      31.364 -25.424 -13.614  0.00  0.00    +0.030 C 
ATOM     13  C   UNL     1      30.665 -24.489 -12.851  0.00  0.00    +0.140 C 
ENDBRANCH   6   8
BRANCH   3  14
ATOM     14  C   UNL     1      37.159 -22.179 -15.928  0.00  0.00    +0.049 C 
ATOM     15  C   UNL     1      37.711 -20.996 -16.743  0.00  0.00    +0.007 C 
ATOM     16  C   UNL     1      38.082 -23.401 -16.084  0.00  0.00    +0.007 C 
ENDBRANCH   3  14
BRANCH   2  17
ATOM     17  C   UNL     1      33.805 -22.428 -19.362  0.00  0.00    +0.052 C 
ATOM     18  C   UNL     1      33.173 -21.054 -19.649  0.00  0.00    +0.007 C 
ATOM     19  C   UNL     1      35.022 -22.648 -20.277  0.00  0.00    +0.007 C 
ENDBRANCH   2  17
BRANCH   5  20
ATOM     20  C   UNL     1      35.283 -23.059 -13.900  0.00  0.00    -0.018 C 
ATOM     21  C   UNL     1      35.683 -24.212 -13.337  0.00  0.00    -0.001 C 
BRANCH  21  22
ATOM     22  C   UNL     1      36.132 -24.396 -11.907  0.00  0.00    +0.135 C 
BRANCH  22  23
ATOM     23  O   UNL     1      35.128 -25.053 -11.140  0.00  0.00    -0.380 OA
ATOM     24  H   UNL     1      34.483 -24.400 -10.825  0.00  0.00    +0.211 HD
ENDBRANCH  22  23
BRANCH  22  25
ATOM     25  C   UNL     1      37.442 -25.204 -11.856  0.00  0.00    +0.064 C 
BRANCH  25  26
ATOM     26  C   UNL     1      38.448 -24.809 -12.948  0.00  0.00    +0.124 C 
BRANCH  26  27
ATOM     27  O   UNL     1      39.492 -24.034 -12.362  0.00  0.00    -0.384 OA
ATOM     28  H   UNL     1      39.250 -23.095 -12.386  0.00  0.00    +0.210 HD
ENDBRANCH  26  27
BRANCH  26  29
ATOM     29  C   UNL     1      39.044 -26.014 -13.681  0.00  0.00    +0.139 C 
BRANCH  29  31
ATOM     30  O   UNL     1      40.895 -24.756 -14.597  0.00  0.00    -0.250 OA
ATOM     31  C   UNL     1      40.477 -25.798 -14.110  0.00  0.00    +0.316 C 
BRANCH  31  32
ATOM     32  O   UNL     1      41.253 -26.894 -13.923  0.00  0.00    -0.480 OA
ATOM     33  H   UNL     1      42.166 -26.863 -14.135  0.00  0.00    +0.295 HD
ENDBRANCH  31  32
ENDBRANCH  29  31
ENDBRANCH  26  29
ENDBRANCH  25  26
ENDBRANCH  22  25
ENDBRANCH  21  22
ENDBRANCH   5  20
BRANCH   4  34
ATOM     34  C   UNL     1      31.781 -23.319 -17.488  0.00  0.00    +0.171 C 
BRANCH  34  35
ATOM     35  O   UNL     1      30.940 -22.225 -17.149  0.00  0.00    -0.346 OA
ATOM     36  C   UNL     1      29.648 -22.663 -16.751  0.00  0.00    +0.175 C 
ENDBRANCH  34  35
ENDBRANCH   4  34
TORSDOF 14
ENDMDL
MODEL 3
REMARK VINA RESULT:      -7.8      2.139      3.873
REMARK  Name = 446156
REMARK  14 active torsions:
REMARK  status: ('A' for Active; 'I' for Inactive)
REMARK    1  A    between atoms: C_2  and  C_17
REMARK    2  A    between atoms: C_3  and  C_14
REMARK    3  A    between atoms: C_4  and  C_34
REMARK    4  A    between atoms: C_5  and  C_20
REMARK    5  A    between atoms: C_6  and  C_8
REMARK    6  A    between atoms: C_21  and  C_22
REMARK    7  A    between atoms: C_22  and  O_23
REMARK    8  A    between atoms: C_22  and  C_25
REMARK    9  A    between atoms: C_25  and  C_26
REMARK   10  A    between atoms: C_26  and  O_27
REMARK   11  A    between atoms: C_26  and  C_29
REMARK   12  A    between atoms: C_29  and  C_31
REMARK   13  A    between atoms: C_31  and  O_32
REMARK   14  A    between atoms: C_34  and  O_35
REMARK                            x       y       z     vdW  Elec       q    Type
REMARK                         _______ _______ _______ _____ _____    ______ ____
ROOT
ATOM      1  N   UNL     1      32.156 -12.572 -20.871  0.00  0.00    -0.414 NA
ATOM      2  C   UNL     1      32.124 -11.331 -21.407  0.00  0.00    +0.106 C 
ATOM      3  C   UNL     1      32.811 -13.515 -21.583  0.00  0.00    +0.094 C 
ATOM      4  C   UNL     1      32.711 -10.991 -22.614  0.00  0.00    +0.029 C 
ATOM      5  C   UNL     1      33.432 -13.278 -22.799  0.00  0.00    +0.092 C 
ATOM      6  C   UNL     1      33.376 -11.989 -23.318  0.00  0.00    -0.012 C 
ENDROOT
BRANCH   6   8
ATOM      7  F   UNL     1      35.795 -10.776 -28.202  0.00  0.00    -0.204 F 
ATOM      8  C   UNL     1      34.007 -11.674 -24.590  0.00  0.00    -0.003 C 
ATOM      9  C   UNL     1      34.983 -10.679 -24.656  0.00  0.00    +0.002 C 
ATOM     10  C   UNL     1      33.635 -12.365 -25.743  0.00  0.00    +0.002 C 
ATOM     11  C   UNL     1      35.587 -10.376 -25.877  0.00  0.00    +0.030 C 
ATOM     12  C   UNL     1      34.239 -12.061 -26.963  0.00  0.00    +0.030 C 
ATOM     13  C   UNL     1      35.215 -11.068 -27.030  0.00  0.00    +0.140 C 
ENDBRANCH   6   8
BRANCH   3  14
ATOM     14  C   UNL     1      32.830 -14.876 -20.963  0.00  0.00    +0.049 C 
ATOM     15  C   UNL     1      31.851 -14.993 -19.781  0.00  0.00    +0.007 C 
ATOM     16  C   UNL     1      34.242 -15.298 -20.520  0.00  0.00    +0.007 C 
ENDBRANCH   3  14
BRANCH   2  17
ATOM     17  C   UNL     1      31.395 -10.302 -20.604  0.00  0.00    +0.052 C 
ATOM     18  C   UNL     1      30.648 -10.913 -19.406  0.00  0.00    +0.007 C 
ATOM     19  C   UNL     1      32.321  -9.170 -20.124  0.00  0.00    +0.007 C 
ENDBRANCH   2  17
BRANCH   5  20
ATOM     20  C   UNL     1      34.124 -14.369 -23.507  0.00  0.00    -0.018 C 
ATOM     21  C   UNL     1      33.511 -15.376 -24.152  0.00  0.00    -0.001 C 
BRANCH  21  22
ATOM     22  C   UNL     1      34.190 -16.511 -24.881  0.00  0.00    +0.135 C 
BRANCH  22  23
ATOM     23  O   UNL     1      34.638 -16.093 -26.166  0.00  0.00    -0.380 OA
ATOM     24  H   UNL     1      35.362 -16.670 -26.460  0.00  0.00    +0.211 HD
ENDBRANCH  22  23
BRANCH  22  25
ATOM     25  C   UNL     1      35.379 -17.040 -24.058  0.00  0.00    +0.064 C 
BRANCH  25  26
ATOM     26  C   UNL     1      35.009 -18.201 -23.123  0.00  0.00    +0.124 C 
BRANCH  26  27
ATOM     27  O   UNL     1      34.967 -19.412 -23.875  0.00  0.00    -0.384 OA
ATOM     28  H   UNL     1      34.446 -19.274 -24.681  0.00  0.00    +0.210 HD
ENDBRANCH  26  27
BRANCH  26  29
ATOM     29  C   UNL     1      35.974 -18.355 -21.944  0.00  0.00    +0.139 C 
BRANCH  29  31
ATOM     30  O   UNL     1      34.433 -19.920 -20.933  0.00  0.00    -0.250 OA
ATOM     31  C   UNL     1      35.554 -19.430 -20.969  0.00  0.00    +0.316 C 
BRANCH  31  32
ATOM     32  O   UNL     1      36.546 -19.784 -20.115  0.00  0.00    -0.480 OA
ATOM     33  H   UNL     1      36.374 -19.843 -19.196  0.00  0.00    +0.295 HD
ENDBRANCH  31  32
ENDBRANCH  29  31
ENDBRANCH  26  29
ENDBRANCH  25  26
ENDBRANCH  22  25
ENDBRANCH  21  22
ENDBRANCH   5  20
BRANCH   4  34
ATOM     34  C   UNL     1      32.625  -9.592 -23.132  0.00  0.00    +0.171 C 
BRANCH  34  35
ATOM     35  O   UNL     1      31.291  -9.324 -23.542  0.00  0.00    -0.346 OA
ATOM     36  C   UNL     1      31.042  -7.928 -23.627  0.00  0.00    +0.175 C 
ENDBRANCH  34  35
ENDBRANCH   4  34
TORSDOF 14
ENDMDL
MODEL 4
REMARK VINA RESULT:      -7.7      3.469      8.384
REMARK  Name = 446156
REMARK  14 active torsions:
REMARK  status: ('A' for Active; 'I' for Inactive)
REMARK    1  A    between atoms: C_2  and  C_17
REMARK    2  A    between atoms: C_3  and  C_14
REMARK    3  A    between atoms: C_4  and  C_34
REMARK    4  A    between atoms: C_5  and  C_20
REMARK    5  A    between atoms: C_6  and  C_8
REMARK    6  A    between atoms: C_21  and  C_22
REMARK    7  A    between atoms: C_22  and  O_23
REMARK    8  A    between atoms: C_22  and  C_25
REMARK    9  A    between atoms: C_25  and  C_26
REMARK   10  A    between atoms: C_26  and  O_27
REMARK   11  A    between atoms: C_26  and  C_29
REMARK   12  A    between atoms: C_29  and  C_31
REMARK   13  A    between atoms: C_31  and  O_32
REMARK   14  A    between atoms: C_34  and  O_35
REMARK                            x       y       z     vdW  Elec       q    Type
REMARK                         _______ _______ _______ _____ _____    ______ ____
ROOT
ATOM      1  N   UNL     1      32.189 -12.768 -21.087  0.00  0.00    -0.414 NA
ATOM      2  C   UNL     1      32.913 -13.653 -21.809  0.00  0.00    +0.106 C 
ATOM      3  C   UNL     1      32.098 -11.517 -21.590  0.00  0.00    +0.094 C 
ATOM      4  C   UNL     1      33.547 -13.348 -23.002  0.00  0.00    +0.029 C 
ATOM      5  C   UNL     1      32.693 -11.111 -22.775  0.00  0.00    +0.092 C 
ATOM      6  C   UNL     1      33.430 -12.051 -23.488  0.00  0.00    -0.012 C 
ENDROOT
BRANCH   6   8
ATOM      7  F   UNL     1      35.927 -10.668 -28.286  0.00  0.00    -0.204 F 
ATOM      8  C   UNL     1      34.080 -11.690 -24.738  0.00  0.00    -0.003 C 
ATOM      9  C   UNL     1      33.710 -12.324 -25.924  0.00  0.00    +0.002 C 
ATOM     10  C   UNL     1      35.074 -10.710 -24.750  0.00  0.00    +0.002 C 
ATOM     11  C   UNL     1      34.334 -11.978 -27.123  0.00  0.00    +0.030 C 
ATOM     12  C   UNL     1      35.698 -10.366 -25.949  0.00  0.00    +0.030 C 
ATOM     13  C   UNL     1      35.328 -10.999 -27.135  0.00  0.00    +0.140 C 
ENDBRANCH   6   8
BRANCH   3  14
ATOM     14  C   UNL     1      31.291 -10.562 -20.770  0.00  0.00    +0.049 C 
ATOM     15  C   UNL     1      32.092  -9.984 -19.589  0.00  0.00    +0.007 C 
ATOM     16  C   UNL     1      29.983 -11.191 -20.259  0.00  0.00    +0.007 C 
ENDBRANCH   3  14
BRANCH   2  17
ATOM     17  C   UNL     1      33.002 -15.031 -21.235  0.00  0.00    +0.052 C 
ATOM     18  C   UNL     1      34.359 -15.299 -20.561  0.00  0.00    +0.007 C 
ATOM     19  C   UNL     1      31.857 -15.330 -20.251  0.00  0.00    +0.007 C 
ENDBRANCH   2  17
BRANCH   5  20
ATOM     20  C   UNL     1      32.541  -9.724 -23.248  0.00  0.00    -0.018 C 
ATOM     21  C   UNL     1      33.273  -8.682 -22.819  0.00  0.00    -0.001 C 
BRANCH  21  22
ATOM     22  C   UNL     1      33.138  -7.250 -23.279  0.00  0.00    +0.135 C 
BRANCH  22  23
ATOM     23  O   UNL     1      33.967  -6.999 -24.408  0.00  0.00    -0.380 OA
ATOM     24  H   UNL     1      33.636  -6.222 -24.886  0.00  0.00    +0.211 HD
ENDBRANCH  22  23
BRANCH  22  25
ATOM     25  C   UNL     1      31.671  -6.936 -23.626  0.00  0.00    +0.064 C 
BRANCH  25  26
ATOM     26  C   UNL     1      31.146  -5.651 -22.967  0.00  0.00    +0.124 C 
BRANCH  26  27
ATOM     27  O   UNL     1      31.895  -5.396 -21.780  0.00  0.00    -0.384 OA
ATOM     28  H   UNL     1      31.300  -5.407 -21.014  0.00  0.00    +0.210 HD
ENDBRANCH  26  27
BRANCH  26  29
ATOM     29  C   UNL     1      31.208  -4.432 -23.891  0.00  0.00    +0.139 C 
BRANCH  29  31
ATOM     30  O   UNL     1      31.937  -2.187 -23.368  0.00  0.00    -0.250 OA
ATOM     31  C   UNL     1      31.174  -3.119 -23.146  0.00  0.00    +0.316 C 
BRANCH  31  32
ATOM     32  O   UNL     1      30.221  -3.083 -22.182  0.00  0.00    -0.480 OA
ATOM     33  H   UNL     1      29.480  -2.517 -22.276  0.00  0.00    +0.295 HD
ENDBRANCH  31  32
ENDBRANCH  29  31
ENDBRANCH  26  29
ENDBRANCH  25  26
ENDBRANCH  22  25
ENDBRANCH  21  22
ENDBRANCH   5  20
BRANCH   4  34
ATOM     34  C   UNL     1      34.327 -14.391 -23.733  0.00  0.00    +0.171 C 
BRANCH  34  35
ATOM     35  O   UNL     1      33.433 -15.238 -24.441  0.00  0.00    -0.346 OA
ATOM     36  C   UNL     1      34.124 -16.279 -25.117  0.00  0.00    +0.175 C 
ENDBRANCH  34  35
ENDBRANCH   4  34
TORSDOF 14
ENDMDL
MODEL 5
REMARK VINA RESULT:      -7.5      3.121      8.158
REMARK  Name = 446156
REMARK  14 active torsions:
REMARK  status: ('A' for Active; 'I' for Inactive)
REMARK    1  A    between atoms: C_2  and  C_17
REMARK    2  A    between atoms: C_3  and  C_14
REMARK    3  A    between atoms: C_4  and  C_34
REMARK    4  A    between atoms: C_5  and  C_20
REMARK    5  A    between atoms: C_6  and  C_8
REMARK    6  A    between atoms: C_21  and  C_22
REMARK    7  A    between atoms: C_22  and  O_23
REMARK    8  A    between atoms: C_22  and  C_25
REMARK    9  A    between atoms: C_25  and  C_26
REMARK   10  A    between atoms: C_26  and  O_27
REMARK   11  A    between atoms: C_26  and  C_29
REMARK   12  A    between atoms: C_29  and  C_31
REMARK   13  A    between atoms: C_31  and  O_32
REMARK   14  A    between atoms: C_34  and  O_35
REMARK                            x       y       z     vdW  Elec       q    Type
REMARK                         _______ _______ _______ _____ _____    ______ ____
ROOT
ATOM      1  N   UNL     1      32.254 -13.115 -21.079  0.00  0.00    -0.414 NA
ATOM      2  C   UNL     1      33.000 -13.946 -21.842  0.00  0.00    +0.106 C 
ATOM      3  C   UNL     1      32.113 -11.850 -21.532  0.00  0.00    +0.094 C 
ATOM      4  C   UNL     1      33.610 -13.573 -23.028  0.00  0.00    +0.029 C 
ATOM      5  C   UNL     1      32.681 -11.378 -22.706  0.00  0.00    +0.092 C 
ATOM      6  C   UNL     1      33.442 -12.262 -23.462  0.00  0.00    -0.012 C 
ENDROOT
BRANCH   6   8
ATOM      7  F   UNL     1      35.830 -10.602 -28.228  0.00  0.00    -0.204 F 
ATOM      8  C   UNL     1      34.065 -11.831 -24.703  0.00  0.00    -0.003 C 
ATOM      9  C   UNL     1      35.013 -10.807 -24.688  0.00  0.00    +0.002 C 
ATOM     10  C   UNL     1      33.713 -12.439 -25.908  0.00  0.00    +0.002 C 
ATOM     11  C   UNL     1      35.609 -10.392 -25.879  0.00  0.00    +0.030 C 
ATOM     12  C   UNL     1      34.310 -12.023 -27.099  0.00  0.00    +0.030 C 
ATOM     13  C   UNL     1      35.257 -11.000 -27.084  0.00  0.00    +0.140 C 
ENDBRANCH   6   8
BRANCH   3  14
ATOM     14  C   UNL     1      31.282 -10.957 -20.668  0.00  0.00    +0.049 C 
ATOM     15  C   UNL     1      31.746 -10.967 -19.200  0.00  0.00    +0.007 C 
ATOM     16  C   UNL     1      29.783 -11.296 -20.748  0.00  0.00    +0.007 C 
ENDBRANCH   3  14
BRANCH   2  17
ATOM     17  C   UNL     1      33.143 -15.340 -21.323  0.00  0.00    +0.052 C 
ATOM     18  C   UNL     1      34.467 -15.552 -20.567  0.00  0.00    +0.007 C 
ATOM     19  C   UNL     1      31.958 -15.760 -20.436  0.00  0.00    +0.007 C 
ENDBRANCH   2  17
BRANCH   5  20
ATOM     20  C   UNL     1      32.475  -9.980 -23.123  0.00  0.00    -0.018 C 
ATOM     21  C   UNL     1      33.007  -8.910 -22.510  0.00  0.00    -0.001 C 
BRANCH  21  22
ATOM     22  C   UNL     1      32.811  -7.466 -22.909  0.00  0.00    +0.135 C 
BRANCH  22  23
ATOM     23  O   UNL     1      33.651  -7.123 -24.006  0.00  0.00    -0.380 OA
ATOM     24  H   UNL     1      33.802  -7.909 -24.555  0.00  0.00    +0.211 HD
ENDBRANCH  22  23
BRANCH  22  25
ATOM     25  C   UNL     1      31.338  -7.208 -23.276  0.00  0.00    +0.064 C 
BRANCH  25  26
ATOM     26  C   UNL     1      30.940  -5.725 -23.211  0.00  0.00    +0.124 C 
BRANCH  26  27
ATOM     27  O   UNL     1      31.915  -5.014 -22.452  0.00  0.00    -0.384 OA
ATOM     28  H   UNL     1      32.109  -4.168 -22.885  0.00  0.00    +0.210 HD
ENDBRANCH  26  27
BRANCH  26  29
ATOM     29  C   UNL     1      30.787  -5.083 -24.592  0.00  0.00    +0.139 C 
BRANCH  29  31
ATOM     30  O   UNL     1      32.987  -4.776 -25.548  0.00  0.00    -0.250 OA
ATOM     31  C   UNL     1      32.000  -4.286 -25.014  0.00  0.00    +0.316 C 
BRANCH  31  32
ATOM     32  O   UNL     1      31.893  -2.967 -24.719  0.00  0.00    -0.480 OA
ATOM     33  H   UNL     1      31.757  -2.695 -23.832  0.00  0.00    +0.295 HD
ENDBRANCH  31  32
ENDBRANCH  29  31
ENDBRANCH  26  29
ENDBRANCH  25  26
ENDBRANCH  22  25
ENDBRANCH  21  22
ENDBRANCH   5  20
BRANCH   4  34
ATOM     34  C   UNL     1      34.418 -14.558 -23.807  0.00  0.00    +0.171 C 
BRANCH  34  35
ATOM     35  O   UNL     1      33.547 -15.404 -24.544  0.00  0.00    -0.346 OA
ATOM     36  C   UNL     1      34.247 -16.495 -25.126  0.00  0.00    +0.175 C 
ENDBRANCH  34  35
ENDBRANCH   4  34
TORSDOF 14
ENDMDL
MODEL 6
REMARK VINA RESULT:      -7.4      2.901      5.332
REMARK  Name = 446156
REMARK  14 active torsions:
REMARK  status: ('A' for Active; 'I' for Inactive)
REMARK    1  A    between atoms: C_2  and  C_17
REMARK    2  A    between atoms: C_3  and  C_14
REMARK    3  A    between atoms: C_4  and  C_34
REMARK    4  A    between atoms: C_5  and  C_20
REMARK    5  A    between atoms: C_6  and  C_8
REMARK    6  A    between atoms: C_21  and  C_22
REMARK    7  A    between atoms: C_22  and  O_23
REMARK    8  A    between atoms: C_22  and  C_25
REMARK    9  A    between atoms: C_25  and  C_26
REMARK   10  A    between atoms: C_26  and  O_27
REMARK   11  A    between atoms: C_26  and  C_29
REMARK   12  A    between atoms: C_29  and  C_31
REMARK   13  A    between atoms: C_31  and  O_32
REMARK   14  A    between atoms: C_34  and  O_35
REMARK                            x       y       z     vdW  Elec       q    Type
REMARK                         _______ _______ _______ _____ _____    ______ ____
ROOT
ATOM      1  N   UNL     1      34.373  -8.571 -25.093  0.00  0.00    -0.414 NA
ATOM      2  C   UNL     1      33.726  -7.686 -24.302  0.00  0.00    +0.106 C 
ATOM      3  C   UNL     1      34.328  -9.865 -24.707  0.00  0.00    +0.094 C 
ATOM      4  C   UNL     1      33.041  -8.032 -23.148  0.00  0.00    +0.029 C 
ATOM      5  C   UNL     1      33.671 -10.315 -23.572  0.00  0.00    +0.092 C 
ATOM      6  C   UNL     1      33.018  -9.374 -22.783  0.00  0.00    -0.012 C 
ENDROOT
BRANCH   6   8
ATOM      7  F   UNL     1      30.300 -10.934 -18.163  0.00  0.00    -0.204 F 
ATOM      8  C   UNL     1      32.309  -9.779 -21.580  0.00  0.00    -0.003 C 
ATOM      9  C   UNL     1      32.649  -9.218 -20.349  0.00  0.00    +0.002 C 
ATOM     10  C   UNL     1      31.291 -10.730 -21.657  0.00  0.00    +0.002 C 
ATOM     11  C   UNL     1      31.970  -9.608 -19.194  0.00  0.00    +0.030 C 
ATOM     12  C   UNL     1      30.613 -11.120 -20.502  0.00  0.00    +0.030 C 
ATOM     13  C   UNL     1      30.952 -10.559 -19.271  0.00  0.00    +0.140 C 
ENDBRANCH   6   8
BRANCH   3  14
ATOM     14  C   UNL     1      35.052 -10.818 -25.603  0.00  0.00    +0.049 C 
ATOM     15  C   UNL     1      36.097 -10.111 -26.486  0.00  0.00    +0.007 C 
ATOM     16  C   UNL     1      34.092 -11.640 -26.481  0.00  0.00    +0.007 C 
ENDBRANCH   3  14
BRANCH   2  17
ATOM     17  C   UNL     1      33.787  -6.260 -24.746  0.00  0.00    +0.052 C 
ATOM     18  C   UNL     1      34.893  -6.017 -25.788  0.00  0.00    +0.007 C 
ATOM     19  C   UNL     1      32.437  -5.757 -25.286  0.00  0.00    +0.007 C 
ENDBRANCH   2  17
BRANCH   5  20
ATOM     20  C   UNL     1      33.675 -11.746 -23.227  0.00  0.00    -0.018 C 
ATOM     21  C   UNL     1      32.978 -12.694 -23.876  0.00  0.00    -0.001 C 
BRANCH  21  22
ATOM     22  C   UNL     1      32.956 -14.168 -23.545  0.00  0.00    +0.135 C 
BRANCH  22  23
ATOM     23  O   UNL     1      33.087 -14.956 -24.723  0.00  0.00    -0.380 OA
ATOM     24  H   UNL     1      32.967 -15.893 -24.500  0.00  0.00    +0.211 HD
ENDBRANCH  22  23
BRANCH  22  25
ATOM     25  C   UNL     1      34.085 -14.510 -22.556  0.00  0.00    +0.064 C 
BRANCH  25  26
ATOM     26  C   UNL     1      34.522 -15.983 -22.609  0.00  0.00    +0.124 C 
BRANCH  26  27
ATOM     27  O   UNL     1      35.637 -16.107 -23.488  0.00  0.00    -0.384 OA
ATOM     28  H   UNL     1      36.409 -16.416 -22.990  0.00  0.00    +0.210 HD
ENDBRANCH  26  27
BRANCH  26  29
ATOM     29  C   UNL     1      34.877 -16.555 -21.235  0.00  0.00    +0.139 C 
BRANCH  29  31
ATOM     30  O   UNL     1      36.001 -18.561 -20.487  0.00  0.00    -0.250 OA
ATOM     31  C   UNL     1      35.236 -18.021 -21.277  0.00  0.00    +0.316 C 
BRANCH  31  32
ATOM     32  O   UNL     1      34.639 -18.682 -22.300  0.00  0.00    -0.480 OA
ATOM     33  H   UNL     1      34.778 -18.400 -23.183  0.00  0.00    +0.295 HD
ENDBRANCH  31  32
ENDBRANCH  29  31
ENDBRANCH  26  29
ENDBRANCH  25  26
ENDBRANCH  22  25
ENDBRANCH  21  22
ENDBRANCH   5  20
BRANCH   4  34
ATOM     34  C   UNL     1      32.354  -6.986 -22.333  0.00  0.00    +0.171 C 
BRANCH  34  35
ATOM     35  O   UNL     1      30.979  -6.941 -22.687  0.00  0.00    -0.346 OA
ATOM     36  C   UNL     1      30.361  -5.747 -22.228  0.00  0.00    +0.175 C 
ENDBRANCH  34  35
ENDBRANCH   4  34
TORSDOF 14
ENDMDL
MODEL 7
REMARK VINA RESULT:      -6.8      3.629      8.956
REMARK  Name = 446156
REMARK  14 active torsions:
REMARK  status: ('A' for Active; 'I' for Inactive)
REMARK    1  A    between atoms: C_2  and  C_17
REMARK    2  A    between atoms: C_3  and  C_14
REMARK    3  A    between atoms: C_4  and  C_34
REMARK    4  A    between atoms: C_5  and  C_20
REMARK    5  A    between atoms: C_6  and  C_8
REMARK    6  A    between atoms: C_21  and  C_22
REMARK    7  A    between atoms: C_22  and  O_23
REMARK    8  A    between atoms: C_22  and  C_25
REMARK    9  A    between atoms: C_25  and  C_26
REMARK   10  A    between atoms: C_26  and  O_27
REMARK   11  A    between atoms: C_26  and  C_29
REMARK   12  A    between atoms: C_29  and  C_31
REMARK   13  A    between atoms: C_31  and  O_32
REMARK   14  A    between atoms: C_34  and  O_35
REMARK                            x       y       z     vdW  Elec       q    Type
REMARK                         _______ _______ _______ _____ _____    ______ ____
ROOT
ATOM      1  N   UNL     1      33.995 -13.608 -25.035  0.00  0.00    -0.414 NA
ATOM      2  C   UNL     1      33.591 -14.357 -23.984  0.00  0.00    +0.106 C 
ATOM      3  C   UNL     1      33.725 -12.285 -24.967  0.00  0.00    +0.094 C 
ATOM      4  C   UNL     1      32.934 -13.849 -22.876  0.00  0.00    +0.029 C 
ATOM      5  C   UNL     1      33.075 -11.679 -23.903  0.00  0.00    +0.092 C 
ATOM      6  C   UNL     1      32.674 -12.483 -22.842  0.00  0.00    -0.012 C 
ENDROOT
BRANCH   6   8
ATOM      7  F   UNL     1      30.035 -10.286 -18.440  0.00  0.00    -0.204 F 
ATOM      8  C   UNL     1      31.987 -11.910 -21.696  0.00  0.00    -0.003 C 
ATOM      9  C   UNL     1      32.662 -11.755 -20.484  0.00  0.00    +0.002 C 
ATOM     10  C   UNL     1      30.653 -11.517 -21.807  0.00  0.00    +0.002 C 
ATOM     11  C   UNL     1      32.002 -11.206 -19.384  0.00  0.00    +0.030 C 
ATOM     12  C   UNL     1      29.994 -10.969 -20.707  0.00  0.00    +0.030 C 
ATOM     13  C   UNL     1      30.668 -10.813 -19.496  0.00  0.00    +0.140 C 
ENDBRANCH   6   8
BRANCH   3  14
ATOM     14  C   UNL     1      34.185 -11.485 -26.143  0.00  0.00    +0.049 C 
ATOM     15  C   UNL     1      34.423 -12.358 -27.388  0.00  0.00    +0.007 C 
ATOM     16  C   UNL     1      35.446 -10.659 -25.832  0.00  0.00    +0.007 C 
ENDBRANCH   3  14
BRANCH   2  17
ATOM     17  C   UNL     1      33.898 -15.816 -24.079  0.00  0.00    +0.052 C 
ATOM     18  C   UNL     1      33.762 -16.353 -25.514  0.00  0.00    +0.007 C 
ATOM     19  C   UNL     1      35.290 -16.159 -23.519  0.00  0.00    +0.007 C 
ENDBRANCH   2  17
BRANCH   5  20
ATOM     20  C   UNL     1      32.823 -10.228 -23.914  0.00  0.00    -0.018 C 
ATOM     21  C   UNL     1      33.496  -9.326 -23.179  0.00  0.00    -0.001 C 
BRANCH  21  22
ATOM     22  C   UNL     1      33.258  -7.835 -23.163  0.00  0.00    +0.135 C 
BRANCH  22  23
ATOM     23  O   UNL     1      34.093  -7.176 -24.110  0.00  0.00    -0.380 OA
ATOM     24  H   UNL     1      34.776  -6.671 -23.642  0.00  0.00    +0.211 HD
ENDBRANCH  22  23
BRANCH  22  25
ATOM     25  C   UNL     1      31.780  -7.525 -23.463  0.00  0.00    +0.064 C 
BRANCH  25  26
ATOM     26  C   UNL     1      31.296  -6.197 -22.861  0.00  0.00    +0.124 C 
BRANCH  26  27
ATOM     27  O   UNL     1      32.198  -5.795 -21.833  0.00  0.00    -0.384 OA
ATOM     28  H   UNL     1      32.572  -6.581 -21.405  0.00  0.00    +0.210 HD
ENDBRANCH  26  27
BRANCH  26  29
ATOM     29  C   UNL     1      31.160  -5.080 -23.899  0.00  0.00    +0.139 C 
BRANCH  29  31
ATOM     30  O   UNL     1      31.849  -2.769 -23.723  0.00  0.00    -0.250 OA
ATOM     31  C   UNL     1      31.179  -3.698 -23.290  0.00  0.00    +0.316 C 
BRANCH  31  32
ATOM     32  O   UNL     1      30.391  -3.595 -22.191  0.00  0.00    -0.480 OA
ATOM     33  H   UNL     1      30.361  -2.791 -21.710  0.00  0.00    +0.295 HD
ENDBRANCH  31  32
ENDBRANCH  29  31
ENDBRANCH  26  29
ENDBRANCH  25  26
ENDBRANCH  22  25
ENDBRANCH  21  22
ENDBRANCH   5  20
BRANCH   4  34
ATOM     34  C   UNL     1      32.523 -14.752 -21.759  0.00  0.00    +0.171 C 
BRANCH  34  35
ATOM     35  O   UNL     1      33.510 -14.717 -20.738  0.00  0.00    -0.346 OA
ATOM     36  C   UNL     1      33.995 -16.018 -20.435  0.00  0.00    +0.175 C 
ENDBRANCH  34  35
ENDBRANCH   4  34
TORSDOF 14
ENDMDL
MODEL 8
REMARK VINA RESULT:      -6.8     10.436     13.388
REMARK  Name = 446156
REMARK  14 active torsions:
REMARK  status: ('A' for Active; 'I' for Inactive)
REMARK    1  A    between atoms: C_2  and  C_17
REMARK    2  A    between atoms: C_3  and  C_14
REMARK    3  A    between atoms: C_4  and  C_34
REMARK    4  A    between atoms: C_5  and  C_20
REMARK    5  A    between atoms: C_6  and  C_8
REMARK    6  A    between atoms: C_21  and  C_22
REMARK    7  A    between atoms: C_22  and  O_23
REMARK    8  A    between atoms: C_22  and  C_25
REMARK    9  A    between atoms: C_25  and  C_26
REMARK   10  A    between atoms: C_26  and  O_27
REMARK   11  A    between atoms: C_26  and  C_29
REMARK   12  A    between atoms: C_29  and  C_31
REMARK   13  A    between atoms: C_31  and  O_32
REMARK   14  A    between atoms: C_34  and  O_35
REMARK                            x       y       z     vdW  Elec       q    Type
REMARK                         _______ _______ _______ _____ _____    ______ ____
ROOT
ATOM      1  N   UNL     1      33.653 -24.031 -13.053  0.00  0.00    -0.414 NA
ATOM      2  C   UNL     1      34.933 -23.924 -13.477  0.00  0.00    +0.106 C 
ATOM      3  C   UNL     1      32.695 -23.732 -13.957  0.00  0.00    +0.094 C 
ATOM      4  C   UNL     1      35.297 -23.533 -14.755  0.00  0.00    +0.029 C 
ATOM      5  C   UNL     1      32.953 -23.333 -15.260  0.00  0.00    +0.092 C 
ATOM      6  C   UNL     1      34.282 -23.234 -15.658  0.00  0.00    -0.012 C 
ENDROOT
BRANCH   6   8
ATOM      7  F   UNL     1      35.583 -21.644 -20.849  0.00  0.00    -0.204 F 
ATOM      8  C   UNL     1      34.622 -22.821 -17.010  0.00  0.00    -0.003 C 
ATOM      9  C   UNL     1      35.786 -22.089 -17.244  0.00  0.00    +0.002 C 
ATOM     10  C   UNL     1      33.782 -23.155 -18.073  0.00  0.00    +0.002 C 
ATOM     11  C   UNL     1      36.111 -21.692 -18.541  0.00  0.00    +0.030 C 
ATOM     12  C   UNL     1      34.107 -22.757 -19.370  0.00  0.00    +0.030 C 
ATOM     13  C   UNL     1      35.271 -22.026 -19.604  0.00  0.00    +0.140 C 
ENDBRANCH   6   8
BRANCH   3  14
ATOM     14  C   UNL     1      31.292 -23.861 -13.458  0.00  0.00    +0.049 C 
ATOM     15  C   UNL     1      31.025 -22.973 -12.229  0.00  0.00    +0.007 C 
ATOM     16  C   UNL     1      30.914 -25.320 -13.144  0.00  0.00    +0.007 C 
ENDBRANCH   3  14
BRANCH   2  17
ATOM     17  C   UNL     1      35.978 -24.258 -12.462  0.00  0.00    +0.052 C 
ATOM     18  C   UNL     1      36.835 -23.039 -12.078  0.00  0.00    +0.007 C 
ATOM     19  C   UNL     1      35.381 -24.901 -11.197  0.00  0.00    +0.007 C 
ENDBRANCH   2  17
BRANCH   5  20
ATOM     20  C   UNL     1      31.844 -23.026 -16.179  0.00  0.00    -0.018 C 
ATOM     21  C   UNL     1      30.673 -23.683 -16.214  0.00  0.00    -0.001 C 
BRANCH  21  22
ATOM     22  C   UNL     1      29.519 -23.397 -17.146  0.00  0.00    +0.135 C 
BRANCH  22  23
ATOM     23  O   UNL     1      28.601 -24.486 -17.167  0.00  0.00    -0.380 OA
ATOM     24  H   UNL     1      28.890 -25.164 -16.537  0.00  0.00    +0.211 HD
ENDBRANCH  22  23
BRANCH  22  25
ATOM     25  C   UNL     1      28.793 -22.108 -16.720  0.00  0.00    +0.064 C 
BRANCH  25  26
ATOM     26  C   UNL     1      27.652 -22.349 -15.720  0.00  0.00    +0.124 C 
BRANCH  26  27
ATOM     27  O   UNL     1      27.961 -21.693 -14.492  0.00  0.00    -0.384 OA
ATOM     28  H   UNL     1      27.950 -20.733 -14.626  0.00  0.00    +0.210 HD
ENDBRANCH  26  27
BRANCH  26  29
ATOM     29  C   UNL     1      26.291 -21.872 -16.235  0.00  0.00    +0.139 C 
BRANCH  29  31
ATOM     30  O   UNL     1      26.501 -22.360 -18.594  0.00  0.00    -0.250 OA
ATOM     31  C   UNL     1      26.297 -21.539 -17.708  0.00  0.00    +0.316 C 
BRANCH  31  32
ATOM     32  O   UNL     1      26.075 -20.224 -17.953  0.00  0.00    -0.480 OA
ATOM     33  H   UNL     1      26.608 -19.574 -17.538  0.00  0.00    +0.295 HD
ENDBRANCH  31  32
ENDBRANCH  29  31
ENDBRANCH  26  29
ENDBRANCH  25  26
ENDBRANCH  22  25
ENDBRANCH  21  22
ENDBRANCH   5  20
BRANCH   4  34
ATOM     34  C   UNL     1      36.738 -23.442 -15.138  0.00  0.00    +0.171 C 
BRANCH  34  35
ATOM     35  O   UNL     1      37.245 -24.747 -15.379  0.00  0.00    -0.346 OA
ATOM     36  C   UNL     1      38.596 -24.868 -14.957  0.00  0.00    +0.175 C 
ENDBRANCH  34  35
ENDBRANCH   4  34
TORSDOF 14
ENDMDL
MODEL 9
REMARK VINA RESULT:      -6.7      3.087      7.332
REMARK  Name = 446156
REMARK  14 active torsions:
REMARK  status: ('A' for Active; 'I' for Inactive)
REMARK    1  A    between atoms: C_2  and  C_17
REMARK    2  A    between atoms: C_3  and  C_14
REMARK    3  A    between atoms: C_4  and  C_34
REMARK    4  A    between atoms: C_5  and  C_20
REMARK    5  A    between atoms: C_6  and  C_8
REMARK    6  A    between atoms: C_21  and  C_22
REMARK    7  A    between atoms: C_22  and  O_23
REMARK    8  A    between atoms: C_22  and  C_25
REMARK    9  A    between atoms: C_25  and  C_26
REMARK   10  A    between atoms: C_26  and  O_27
REMARK   11  A    between atoms: C_26  and  C_29
REMARK   12  A    between atoms: C_29  and  C_31
REMARK   13  A    between atoms: C_31  and  O_32
REMARK   14  A    between atoms: C_34  and  O_35
REMARK                            x       y       z     vdW  Elec       q    Type
REMARK                         _______ _______ _______ _____ _____    ______ ____
ROOT
ATOM      1  N   UNL     1      32.275 -13.074 -21.061  0.00  0.00    -0.414 NA
ATOM      2  C   UNL     1      32.970 -13.920 -21.854  0.00  0.00    +0.106 C 
ATOM      3  C   UNL     1      32.197 -11.791 -21.477  0.00  0.00    +0.094 C 
ATOM      4  C   UNL     1      33.586 -13.546 -23.037  0.00  0.00    +0.029 C 
ATOM      5  C   UNL     1      32.776 -11.316 -22.644  0.00  0.00    +0.092 C 
ATOM      6  C   UNL     1      33.483 -12.217 -23.432  0.00  0.00    -0.012 C 
ENDROOT
BRANCH   6   8
ATOM      7  F   UNL     1      35.906 -10.550 -28.178  0.00  0.00    -0.204 F 
ATOM      8  C   UNL     1      34.115 -11.784 -24.668  0.00  0.00    -0.003 C 
ATOM      9  C   UNL     1      35.054 -10.752 -24.646  0.00  0.00    +0.002 C 
ATOM     10  C   UNL     1      33.781 -12.398 -25.875  0.00  0.00    +0.002 C 
ATOM     11  C   UNL     1      35.659 -10.335 -25.832  0.00  0.00    +0.030 C 
ATOM     12  C   UNL     1      34.386 -11.981 -27.061  0.00  0.00    +0.030 C 
ATOM     13  C   UNL     1      35.325 -10.950 -27.039  0.00  0.00    +0.140 C 
ENDBRANCH   6   8
BRANCH   3  14
ATOM     14  C   UNL     1      31.422 -10.881 -20.579  0.00  0.00    +0.049 C 
ATOM     15  C   UNL     1      31.881 -10.976 -19.113  0.00  0.00    +0.007 C 
ATOM     16  C   UNL     1      29.904 -11.121 -20.671  0.00  0.00    +0.007 C 
ENDBRANCH   3  14
BRANCH   2  17
ATOM     17  C   UNL     1      33.046 -15.334 -21.376  0.00  0.00    +0.052 C 
ATOM     18  C   UNL     1      34.365 -15.636 -20.644  0.00  0.00    +0.007 C 
ATOM     19  C   UNL     1      31.851 -15.716 -20.484  0.00  0.00    +0.007 C 
ENDBRANCH   2  17
BRANCH   5  20
ATOM     20  C   UNL     1      32.639  -9.898 -23.020  0.00  0.00    -0.018 C 
ATOM     21  C   UNL     1      31.590  -9.378 -23.679  0.00  0.00    -0.001 C 
BRANCH  21  22
ATOM     22  C   UNL     1      31.422  -7.932 -24.084  0.00  0.00    +0.135 C 
BRANCH  22  23
ATOM     23  O   UNL     1      30.253  -7.372 -23.496  0.00  0.00    -0.380 OA
ATOM     24  H   UNL     1      30.322  -6.404 -23.499  0.00  0.00    +0.211 HD
ENDBRANCH  22  23
BRANCH  22  25
ATOM     25  C   UNL     1      32.659  -7.114 -23.672  0.00  0.00    +0.064 C 
BRANCH  25  26
ATOM     26  C   UNL     1      32.351  -6.009 -22.648  0.00  0.00    +0.124 C 
BRANCH  26  27
ATOM     27  O   UNL     1      31.513  -5.030 -23.257  0.00  0.00    -0.384 OA
ATOM     28  H   UNL     1      31.884  -4.775 -24.116  0.00  0.00    +0.210 HD
ENDBRANCH  26  27
BRANCH  26  29
ATOM     29  C   UNL     1      31.690  -6.539 -21.373  0.00  0.00    +0.139 C 
BRANCH  29  31
ATOM     30  O   UNL     1      32.659  -6.780 -19.171  0.00  0.00    -0.250 OA
ATOM     31  C   UNL     1      32.684  -7.061 -20.362  0.00  0.00    +0.316 C 
BRANCH  31  32
ATOM     32  O   UNL     1      33.629  -7.861 -20.916  0.00  0.00    -0.480 OA
ATOM     33  H   UNL     1      33.397  -8.715 -21.225  0.00  0.00    +0.295 HD
ENDBRANCH  31  32
ENDBRANCH  29  31
ENDBRANCH  26  29
ENDBRANCH  25  26
ENDBRANCH  22  25
ENDBRANCH  21  22
ENDBRANCH   5  20
BRANCH   4  34
ATOM     34  C   UNL     1      34.335 -14.550 -23.851  0.00  0.00    +0.171 C 
BRANCH  34  35
ATOM     35  O   UNL     1      33.412 -15.346 -24.581  0.00  0.00    -0.346 OA
ATOM     36  C   UNL     1      34.051 -16.459 -25.192  0.00  0.00    +0.175 C 
ENDBRANCH  34  35
ENDBRANCH   4  34
TORSDOF 14
ENDMDL
