MODEL 1
REMARK VINA RESULT:      -9.7      0.000      0.000
REMARK  Name = 44129623
REMARK  7 active torsions:
REMARK  status: ('A' for Active; 'I' for Inactive)
REMARK    1  A    between atoms: C_1  and  O_7
REMARK    2  A    between atoms: C_2  and  C_16
REMARK    3  A    between atoms: O_7  and  C_8
REMARK    4  A    between atoms: C_8  and  C_9
REMARK    5  A    between atoms: C_9  and  N_10
REMARK    6  A    between atoms: C_16  and  C_18
REMARK    7  A    between atoms: C_16  and  O_23
REMARK                            x       y       z     vdW  Elec       q    Type
REMARK                         _______ _______ _______ _____ _____    ______ ____
ROOT
ATOM      1  C   UNL     1      33.558 -21.467 -19.575  0.00  0.00    +0.138 C 
ATOM      2  C   UNL     1      34.997 -19.459 -20.873  0.00  0.00    +0.009 C 
ATOM      3  C   UNL     1      34.951 -21.527 -19.624  0.00  0.00    +0.037 C 
ATOM      4  C   UNL     1      32.885 -20.403 -20.176  0.00  0.00    +0.037 C 
ATOM      5  C   UNL     1      35.670 -20.524 -20.272  0.00  0.00    +0.001 C 
ATOM      6  C   UNL     1      33.605 -19.399 -20.823  0.00  0.00    +0.001 C 
ENDROOT
BRANCH   1   7
ATOM      7  O   UNL     1      32.851 -22.453 -18.938  0.00  0.00    -0.478 OA
BRANCH   7   8
ATOM      8  C   UNL     1      33.522 -23.148 -17.895  0.00  0.00    +0.183 C 
BRANCH   8   9
ATOM      9  C   UNL     1      32.584 -23.260 -16.702  0.00  0.00    -0.029 C 
BRANCH   9  10
ATOM     10  N   UNL     1      33.328 -23.164 -15.454  0.00  0.00    +0.389 N 
ATOM     11  C   UNL     1      34.767 -23.336 -15.647  0.00  0.00    -0.077 C 
ATOM     12  C   UNL     1      32.946 -24.202 -14.496  0.00  0.00    -0.077 C 
ATOM     13  C   UNL     1      35.271 -23.587 -14.234  0.00  0.00    -0.025 C 
ATOM     14  C   UNL     1      34.076 -24.160 -13.478  0.00  0.00    -0.025 C 
ATOM     15  H   UNL     1      33.104 -22.232 -15.105  0.00  0.00    -0.080 HD
ENDBRANCH   9  10
ENDBRANCH   8   9
ENDBRANCH   7   8
ENDBRANCH   1   7
BRANCH   2  16
ATOM     16  C   UNL     1      35.766 -18.386 -21.565  0.00  0.00    +0.155 C 
BRANCH  16  18
ATOM     17  N   UNL     1      34.211 -17.359 -25.462  0.00  0.00    -0.242 NA
ATOM     18  C   UNL     1      35.218 -18.023 -22.941  0.00  0.00    +0.012 C 
ATOM     19  C   UNL     1      34.989 -16.693 -23.272  0.00  0.00    +0.019 C 
ATOM     20  C   UNL     1      34.943 -19.022 -23.869  0.00  0.00    +0.019 C 
ATOM     21  C   UNL     1      34.490 -16.415 -24.535  0.00  0.00    +0.099 C 
ATOM     22  C   UNL     1      34.447 -18.641 -25.105  0.00  0.00    +0.099 C 
ENDBRANCH  16  18
BRANCH  16  23
ATOM     23  O   UNL     1      37.161 -18.727 -21.666  0.00  0.00    -0.376 OA
ATOM     24  H   UNL     1      37.638 -18.006 -22.105  0.00  0.00    +0.211 HD
ENDBRANCH  16  23
ENDBRANCH   2  16
TORSDOF 7
ENDMDL
MODEL 2
REMARK VINA RESULT:      -9.7      1.073      1.612
REMARK  Name = 44129623
REMARK  7 active torsions:
REMARK  status: ('A' for Active; 'I' for Inactive)
REMARK    1  A    between atoms: C_1  and  O_7
REMARK    2  A    between atoms: C_2  and  C_16
REMARK    3  A    between atoms: O_7  and  C_8
REMARK    4  A    between atoms: C_8  and  C_9
REMARK    5  A    between atoms: C_9  and  N_10
REMARK    6  A    between atoms: C_16  and  C_18
REMARK    7  A    between atoms: C_16  and  O_23
REMARK                            x       y       z     vdW  Elec       q    Type
REMARK                         _______ _______ _______ _____ _____    ______ ____
ROOT
ATOM      1  C   UNL     1      33.719 -21.650 -19.653  0.00  0.00    +0.138 C 
ATOM      2  C   UNL     1      35.043 -19.540 -20.913  0.00  0.00    +0.009 C 
ATOM      3  C   UNL     1      35.113 -21.633 -19.706  0.00  0.00    +0.037 C 
ATOM      4  C   UNL     1      32.987 -20.611 -20.230  0.00  0.00    +0.037 C 
ATOM      5  C   UNL     1      35.774 -20.579 -20.336  0.00  0.00    +0.001 C 
ATOM      6  C   UNL     1      33.649 -19.557 -20.858  0.00  0.00    +0.001 C 
ENDROOT
BRANCH   1   7
ATOM      7  O   UNL     1      33.069 -22.685 -19.034  0.00  0.00    -0.478 OA
BRANCH   7   8
ATOM      8  C   UNL     1      33.261 -22.814 -17.631  0.00  0.00    +0.183 C 
BRANCH   8   9
ATOM      9  C   UNL     1      31.902 -22.782 -16.948  0.00  0.00    -0.029 C 
BRANCH   9  10
ATOM     10  N   UNL     1      31.758 -23.911 -16.041  0.00  0.00    +0.389 N 
ATOM     11  C   UNL     1      30.358 -24.220 -15.751  0.00  0.00    -0.077 C 
ATOM     12  C   UNL     1      32.370 -23.660 -14.736  0.00  0.00    -0.077 C 
ATOM     13  C   UNL     1      30.455 -25.125 -14.533  0.00  0.00    -0.025 C 
ATOM     14  C   UNL     1      31.774 -24.755 -13.863  0.00  0.00    -0.025 C 
ATOM     15  H   UNL     1      32.218 -24.680 -16.529  0.00  0.00    -0.080 HD
ENDBRANCH   9  10
ENDBRANCH   8   9
ENDBRANCH   7   8
ENDBRANCH   1   7
BRANCH   2  16
ATOM     16  C   UNL     1      35.750 -18.414 -21.584  0.00  0.00    +0.155 C 
BRANCH  16  18
ATOM     17  N   UNL     1      34.194 -17.460 -25.500  0.00  0.00    -0.242 NA
ATOM     18  C   UNL     1      35.201 -18.077 -22.968  0.00  0.00    +0.012 C 
ATOM     19  C   UNL     1      34.954 -16.754 -23.316  0.00  0.00    +0.019 C 
ATOM     20  C   UNL     1      34.945 -19.092 -23.883  0.00  0.00    +0.019 C 
ATOM     21  C   UNL     1      34.455 -16.500 -24.585  0.00  0.00    +0.099 C 
ATOM     22  C   UNL     1      34.447 -18.734 -25.125  0.00  0.00    +0.099 C 
ENDBRANCH  16  18
BRANCH  16  23
ATOM     23  O   UNL     1      37.166 -18.661 -21.665  0.00  0.00    -0.376 OA
ATOM     24  H   UNL     1      37.542 -18.147 -22.396  0.00  0.00    +0.211 HD
ENDBRANCH  16  23
ENDBRANCH   2  16
TORSDOF 7
ENDMDL
MODEL 3
REMARK VINA RESULT:      -9.5      1.788      2.679
REMARK  Name = 44129623
REMARK  7 active torsions:
REMARK  status: ('A' for Active; 'I' for Inactive)
REMARK    1  A    between atoms: C_1  and  O_7
REMARK    2  A    between atoms: C_2  and  C_16
REMARK    3  A    between atoms: O_7  and  C_8
REMARK    4  A    between atoms: C_8  and  C_9
REMARK    5  A    between atoms: C_9  and  N_10
REMARK    6  A    between atoms: C_16  and  C_18
REMARK    7  A    between atoms: C_16  and  O_23
REMARK                            x       y       z     vdW  Elec       q    Type
REMARK                         _______ _______ _______ _____ _____    ______ ____
ROOT
ATOM      1  C   UNL     1      33.727 -21.105 -19.844  0.00  0.00    +0.138 C 
ATOM      2  C   UNL     1      35.043 -19.115 -21.291  0.00  0.00    +0.009 C 
ATOM      3  C   UNL     1      32.992 -20.178 -20.582  0.00  0.00    +0.037 C 
ATOM      4  C   UNL     1      35.121 -21.037 -19.829  0.00  0.00    +0.037 C 
ATOM      5  C   UNL     1      33.649 -19.183 -21.305  0.00  0.00    +0.001 C 
ATOM      6  C   UNL     1      35.778 -20.042 -20.553  0.00  0.00    +0.001 C 
ENDROOT
BRANCH   1   7
ATOM      7  O   UNL     1      33.081 -22.084 -19.134  0.00  0.00    -0.478 OA
BRANCH   7   8
ATOM      8  C   UNL     1      33.814 -22.703 -18.085  0.00  0.00    +0.183 C 
BRANCH   8   9
ATOM      9  C   UNL     1      32.898 -23.673 -17.355  0.00  0.00    -0.029 C 
BRANCH   9  10
ATOM     10  N   UNL     1      32.281 -23.030 -16.205  0.00  0.00    +0.389 N 
ATOM     11  C   UNL     1      32.660 -23.661 -14.942  0.00  0.00    -0.077 C 
ATOM     12  C   UNL     1      30.820 -23.102 -16.243  0.00  0.00    -0.077 C 
ATOM     13  C   UNL     1      31.635 -23.107 -13.964  0.00  0.00    -0.025 C 
ATOM     14  C   UNL     1      30.424 -22.743 -14.818  0.00  0.00    -0.025 C 
ATOM     15  H   UNL     1      32.609 -22.065 -16.256  0.00  0.00    -0.080 HD
ENDBRANCH   9  10
ENDBRANCH   8   9
ENDBRANCH   7   8
ENDBRANCH   1   7
BRANCH   2  16
ATOM     16  C   UNL     1      35.745 -18.052 -22.064  0.00  0.00    +0.155 C 
BRANCH  16  18
ATOM     17  N   UNL     1      33.760 -14.216 -21.967  0.00  0.00    -0.242 NA
ATOM     18  C   UNL     1      35.043 -16.697 -22.030  0.00  0.00    +0.012 C 
ATOM     19  C   UNL     1      34.672 -16.074 -23.216  0.00  0.00    +0.019 C 
ATOM     20  C   UNL     1      34.773 -16.082 -20.813  0.00  0.00    +0.019 C 
ATOM     21  C   UNL     1      34.038 -14.845 -23.132  0.00  0.00    +0.099 C 
ATOM     22  C   UNL     1      34.134 -14.853 -20.836  0.00  0.00    +0.099 C 
ENDBRANCH  16  18
BRANCH  16  23
ATOM     23  O   UNL     1      35.963 -18.457 -23.428  0.00  0.00    -0.376 OA
ATOM     24  H   UNL     1      36.726 -19.054 -23.469  0.00  0.00    +0.211 HD
ENDBRANCH  16  23
ENDBRANCH   2  16
TORSDOF 7
ENDMDL
MODEL 4
REMARK VINA RESULT:      -9.5      3.487      9.740
REMARK  Name = 44129623
REMARK  7 active torsions:
REMARK  status: ('A' for Active; 'I' for Inactive)
REMARK    1  A    between atoms: C_1  and  O_7
REMARK    2  A    between atoms: C_2  and  C_16
REMARK    3  A    between atoms: O_7  and  C_8
REMARK    4  A    between atoms: C_8  and  C_9
REMARK    5  A    between atoms: C_9  and  N_10
REMARK    6  A    between atoms: C_16  and  C_18
REMARK    7  A    between atoms: C_16  and  O_23
REMARK                            x       y       z     vdW  Elec       q    Type
REMARK                         _______ _______ _______ _____ _____    ______ ____
ROOT
ATOM      1  C   UNL     1      34.507 -16.033 -23.106  0.00  0.00    +0.138 C 
ATOM      2  C   UNL     1      35.492 -18.312 -21.830  0.00  0.00    +0.009 C 
ATOM      3  C   UNL     1      34.628 -16.058 -21.716  0.00  0.00    +0.037 C 
ATOM      4  C   UNL     1      34.880 -17.148 -23.857  0.00  0.00    +0.037 C 
ATOM      5  C   UNL     1      35.119 -17.197 -21.079  0.00  0.00    +0.001 C 
ATOM      6  C   UNL     1      35.372 -18.287 -23.219  0.00  0.00    +0.001 C 
ENDROOT
BRANCH   1   7
ATOM      7  O   UNL     1      34.025 -14.914 -23.732  0.00  0.00    -0.478 OA
BRANCH   7   8
ATOM      8  C   UNL     1      33.829 -13.762 -22.923  0.00  0.00    +0.183 C 
BRANCH   8   9
ATOM      9  C   UNL     1      33.254 -12.650 -23.787  0.00  0.00    -0.029 C 
BRANCH   9  10
ATOM     10  N   UNL     1      34.286 -11.685 -24.136  0.00  0.00    +0.389 N 
ATOM     11  C   UNL     1      33.945 -10.326 -23.717  0.00  0.00    -0.077 C 
ATOM     12  C   UNL     1      34.500 -11.595 -25.581  0.00  0.00    -0.077 C 
ATOM     13  C   UNL     1      34.928  -9.471 -24.501  0.00  0.00    -0.025 C 
ATOM     14  C   UNL     1      35.290 -10.302 -25.728  0.00  0.00    -0.025 C 
ATOM     15  H   UNL     1      35.117 -12.028 -23.655  0.00  0.00    -0.080 HD
ENDBRANCH   9  10
ENDBRANCH   8   9
ENDBRANCH   7   8
ENDBRANCH   1   7
BRANCH   2  16
ATOM     16  C   UNL     1      36.018 -19.528 -21.149  0.00  0.00    +0.155 C 
BRANCH  16  18
ATOM     17  N   UNL     1      32.975 -21.894 -19.197  0.00  0.00    -0.242 NA
ATOM     18  C   UNL     1      34.943 -20.364 -20.459  0.00  0.00    +0.012 C 
ATOM     19  C   UNL     1      35.303 -21.459 -19.683  0.00  0.00    +0.019 C 
ATOM     20  C   UNL     1      33.601 -20.032 -20.606  0.00  0.00    +0.019 C 
ATOM     21  C   UNL     1      34.290 -22.185 -19.077  0.00  0.00    +0.099 C 
ATOM     22  C   UNL     1      32.664 -20.822 -19.959  0.00  0.00    +0.099 C 
ENDBRANCH  16  18
BRANCH  16  23
ATOM     23  O   UNL     1      37.056 -19.192 -20.210  0.00  0.00    -0.376 OA
ATOM     24  H   UNL     1      36.782 -18.423 -19.687  0.00  0.00    +0.211 HD
ENDBRANCH  16  23
ENDBRANCH   2  16
TORSDOF 7
ENDMDL
MODEL 5
REMARK VINA RESULT:      -9.4      1.663      2.162
REMARK  Name = 44129623
REMARK  7 active torsions:
REMARK  status: ('A' for Active; 'I' for Inactive)
REMARK    1  A    between atoms: C_1  and  O_7
REMARK    2  A    between atoms: C_2  and  C_16
REMARK    3  A    between atoms: O_7  and  C_8
REMARK    4  A    between atoms: C_8  and  C_9
REMARK    5  A    between atoms: C_9  and  N_10
REMARK    6  A    between atoms: C_16  and  C_18
REMARK    7  A    between atoms: C_16  and  O_23
REMARK                            x       y       z     vdW  Elec       q    Type
REMARK                         _______ _______ _______ _____ _____    ______ ____
ROOT
ATOM      1  C   UNL     1      33.544 -21.308 -19.568  0.00  0.00    +0.138 C 
ATOM      2  C   UNL     1      34.823 -19.552 -21.319  0.00  0.00    +0.009 C 
ATOM      3  C   UNL     1      34.936 -21.313 -19.670  0.00  0.00    +0.037 C 
ATOM      4  C   UNL     1      32.793 -20.423 -20.342  0.00  0.00    +0.037 C 
ATOM      5  C   UNL     1      35.575 -20.436 -20.545  0.00  0.00    +0.001 C 
ATOM      6  C   UNL     1      33.433 -19.545 -21.217  0.00  0.00    +0.001 C 
ENDROOT
BRANCH   1   7
ATOM      7  O   UNL     1      32.916 -22.170 -18.708  0.00  0.00    -0.478 OA
BRANCH   7   8
ATOM      8  C   UNL     1      33.735 -23.132 -18.056  0.00  0.00    +0.183 C 
BRANCH   8   9
ATOM      9  C   UNL     1      33.356 -23.178 -16.583  0.00  0.00    -0.029 C 
BRANCH   9  10
ATOM     10  N   UNL     1      34.547 -23.177 -15.747  0.00  0.00    +0.389 N 
ATOM     11  C   UNL     1      35.715 -22.631 -16.438  0.00  0.00    -0.077 C 
ATOM     12  C   UNL     1      34.943 -24.525 -15.338  0.00  0.00    -0.077 C 
ATOM     13  C   UNL     1      36.871 -23.079 -15.557  0.00  0.00    -0.025 C 
ATOM     14  C   UNL     1      36.366 -24.326 -14.838  0.00  0.00    -0.025 C 
ATOM     15  H   UNL     1      34.284 -22.605 -14.944  0.00  0.00    -0.080 HD
ENDBRANCH   9  10
ENDBRANCH   8   9
ENDBRANCH   7   8
ENDBRANCH   1   7
BRANCH   2  16
ATOM     16  C   UNL     1      35.507 -18.613 -22.254  0.00  0.00    +0.155 C 
BRANCH  16  18
ATOM     17  N   UNL     1      34.321 -14.487 -21.769  0.00  0.00    -0.242 NA
ATOM     18  C   UNL     1      35.087 -17.156 -22.083  0.00  0.00    +0.012 C 
ATOM     19  C   UNL     1      34.898 -16.350 -23.199  0.00  0.00    +0.019 C 
ATOM     20  C   UNL     1      34.895 -16.631 -20.810  0.00  0.00    +0.019 C 
ATOM     21  C   UNL     1      34.517 -15.033 -22.990  0.00  0.00    +0.099 C 
ATOM     22  C   UNL     1      34.515 -15.302 -20.708  0.00  0.00    +0.099 C 
ENDBRANCH  16  18
BRANCH  16  23
ATOM     23  O   UNL     1      35.327 -19.018 -23.624  0.00  0.00    -0.376 OA
ATOM     24  H   UNL     1      36.176 -18.968 -24.089  0.00  0.00    +0.211 HD
ENDBRANCH  16  23
ENDBRANCH   2  16
TORSDOF 7
ENDMDL
MODEL 6
REMARK VINA RESULT:      -9.4      3.314      8.528
REMARK  Name = 44129623
REMARK  7 active torsions:
REMARK  status: ('A' for Active; 'I' for Inactive)
REMARK    1  A    between atoms: C_1  and  O_7
REMARK    2  A    between atoms: C_2  and  C_16
REMARK    3  A    between atoms: O_7  and  C_8
REMARK    4  A    between atoms: C_8  and  C_9
REMARK    5  A    between atoms: C_9  and  N_10
REMARK    6  A    between atoms: C_16  and  C_18
REMARK    7  A    between atoms: C_16  and  O_23
REMARK                            x       y       z     vdW  Elec       q    Type
REMARK                         _______ _______ _______ _____ _____    ______ ____
ROOT
ATOM      1  C   UNL     1      34.628 -16.436 -23.253  0.00  0.00    +0.138 C 
ATOM      2  C   UNL     1      35.558 -18.612 -21.775  0.00  0.00    +0.009 C 
ATOM      3  C   UNL     1      34.910 -17.643 -23.892  0.00  0.00    +0.037 C 
ATOM      4  C   UNL     1      34.810 -16.317 -21.875  0.00  0.00    +0.037 C 
ATOM      5  C   UNL     1      35.376 -18.731 -23.153  0.00  0.00    +0.001 C 
ATOM      6  C   UNL     1      35.274 -17.406 -21.137  0.00  0.00    +0.001 C 
ENDROOT
BRANCH   1   7
ATOM      7  O   UNL     1      34.170 -15.367 -23.979  0.00  0.00    -0.478 OA
BRANCH   7   8
ATOM      8  C   UNL     1      34.010 -14.140 -23.279  0.00  0.00    +0.183 C 
BRANCH   8   9
ATOM      9  C   UNL     1      32.709 -13.490 -23.725  0.00  0.00    -0.029 C 
BRANCH   9  10
ATOM     10  N   UNL     1      31.956 -13.008 -22.577  0.00  0.00    +0.389 N 
ATOM     11  C   UNL     1      31.956 -11.548 -22.481  0.00  0.00    -0.077 C 
ATOM     12  C   UNL     1      32.518 -13.471 -21.307  0.00  0.00    -0.077 C 
ATOM     13  C   UNL     1      31.477 -11.300 -21.060  0.00  0.00    -0.025 C 
ATOM     14  C   UNL     1      31.850 -12.561 -20.286  0.00  0.00    -0.025 C 
ATOM     15  H   UNL     1      31.016 -13.374 -22.726  0.00  0.00    -0.080 HD
ENDBRANCH   9  10
ENDBRANCH   8   9
ENDBRANCH   7   8
ENDBRANCH   1   7
BRANCH   2  16
ATOM     16  C   UNL     1      36.054 -19.775 -20.986  0.00  0.00    +0.155 C 
BRANCH  16  18
ATOM     17  N   UNL     1      32.929 -22.004 -19.004  0.00  0.00    -0.242 NA
ATOM     18  C   UNL     1      34.951 -20.562 -20.285  0.00  0.00    +0.012 C 
ATOM     19  C   UNL     1      35.272 -21.659 -19.494  0.00  0.00    +0.019 C 
ATOM     20  C   UNL     1      33.621 -20.185 -20.437  0.00  0.00    +0.019 C 
ATOM     21  C   UNL     1      34.233 -22.341 -18.879  0.00  0.00    +0.099 C 
ATOM     22  C   UNL     1      32.657 -20.933 -19.781  0.00  0.00    +0.099 C 
ENDBRANCH  16  18
BRANCH  16  23
ATOM     23  O   UNL     1      37.051 -19.369 -20.030  0.00  0.00    -0.376 OA
ATOM     24  H   UNL     1      37.859 -19.887 -20.167  0.00  0.00    +0.211 HD
ENDBRANCH  16  23
ENDBRANCH   2  16
TORSDOF 7
ENDMDL
MODEL 7
REMARK VINA RESULT:      -9.3      4.490      8.945
REMARK  Name = 44129623
REMARK  7 active torsions:
REMARK  status: ('A' for Active; 'I' for Inactive)
REMARK    1  A    between atoms: C_1  and  O_7
REMARK    2  A    between atoms: C_2  and  C_16
REMARK    3  A    between atoms: O_7  and  C_8
REMARK    4  A    between atoms: C_8  and  C_9
REMARK    5  A    between atoms: C_9  and  N_10
REMARK    6  A    between atoms: C_16  and  C_18
REMARK    7  A    between atoms: C_16  and  O_23
REMARK                            x       y       z     vdW  Elec       q    Type
REMARK                         _______ _______ _______ _____ _____    ______ ____
ROOT
ATOM      1  C   UNL     1      34.167 -14.753 -22.455  0.00  0.00    +0.138 C 
ATOM      2  C   UNL     1      35.171 -17.337 -22.137  0.00  0.00    +0.009 C 
ATOM      3  C   UNL     1      34.390 -15.557 -23.573  0.00  0.00    +0.037 C 
ATOM      4  C   UNL     1      34.446 -15.241 -21.178  0.00  0.00    +0.037 C 
ATOM      5  C   UNL     1      34.893 -16.848 -23.414  0.00  0.00    +0.001 C 
ATOM      6  C   UNL     1      34.947 -16.533 -21.020  0.00  0.00    +0.001 C 
ENDROOT
BRANCH   1   7
ATOM      7  O   UNL     1      33.674 -13.484 -22.611  0.00  0.00    -0.478 OA
BRANCH   7   8
ATOM      8  C   UNL     1      32.366 -13.240 -22.110  0.00  0.00    +0.183 C 
BRANCH   8   9
ATOM      9  C   UNL     1      31.962 -11.819 -22.471  0.00  0.00    -0.029 C 
BRANCH   9  10
ATOM     10  N   UNL     1      31.443 -11.121 -21.304  0.00  0.00    +0.389 N 
ATOM     11  C   UNL     1      32.070  -9.814 -21.109  0.00  0.00    -0.077 C 
ATOM     12  C   UNL     1      31.694 -11.851 -20.060  0.00  0.00    -0.077 C 
ATOM     13  C   UNL     1      31.685  -9.461 -19.682  0.00  0.00    -0.025 C 
ATOM     14  C   UNL     1      31.441 -10.799 -18.990  0.00  0.00    -0.025 C 
ATOM     15  H   UNL     1      30.445 -11.034 -21.492  0.00  0.00    -0.080 HD
ENDBRANCH   9  10
ENDBRANCH   8   9
ENDBRANCH   7   8
ENDBRANCH   1   7
BRANCH   2  16
ATOM     16  C   UNL     1      35.707 -18.717 -21.968  0.00  0.00    +0.155 C 
BRANCH  16  18
ATOM     17  N   UNL     1      33.210 -21.276 -19.542  0.00  0.00    -0.242 NA
ATOM     18  C   UNL     1      34.825 -19.621 -21.112  0.00  0.00    +0.012 C 
ATOM     19  C   UNL     1      33.443 -19.475 -21.139  0.00  0.00    +0.019 C 
ATOM     20  C   UNL     1      35.401 -20.593 -20.301  0.00  0.00    +0.019 C 
ATOM     21  C   UNL     1      32.686 -20.320 -20.343  0.00  0.00    +0.099 C 
ATOM     22  C   UNL     1      34.557 -21.388 -19.543  0.00  0.00    +0.099 C 
ENDBRANCH  16  18
BRANCH  16  23
ATOM     23  O   UNL     1      37.046 -18.696 -21.441  0.00  0.00    -0.376 OA
ATOM     24  H   UNL     1      37.100 -19.284 -20.672  0.00  0.00    +0.211 HD
ENDBRANCH  16  23
ENDBRANCH   2  16
TORSDOF 7
ENDMDL
MODEL 8
REMARK VINA RESULT:      -9.2      3.117      9.366
REMARK  Name = 44129623
REMARK  7 active torsions:
REMARK  status: ('A' for Active; 'I' for Inactive)
REMARK    1  A    between atoms: C_1  and  O_7
REMARK    2  A    between atoms: C_2  and  C_16
REMARK    3  A    between atoms: O_7  and  C_8
REMARK    4  A    between atoms: C_8  and  C_9
REMARK    5  A    between atoms: C_9  and  N_10
REMARK    6  A    between atoms: C_16  and  C_18
REMARK    7  A    between atoms: C_16  and  O_23
REMARK                            x       y       z     vdW  Elec       q    Type
REMARK                         _______ _______ _______ _____ _____    ______ ____
ROOT
ATOM      1  C   UNL     1      34.410 -17.142 -24.950  0.00  0.00    +0.138 C 
ATOM      2  C   UNL     1      35.343 -18.503 -22.699  0.00  0.00    +0.009 C 
ATOM      3  C   UNL     1      34.437 -18.537 -24.939  0.00  0.00    +0.037 C 
ATOM      4  C   UNL     1      34.850 -16.428 -23.835  0.00  0.00    +0.037 C 
ATOM      5  C   UNL     1      34.903 -19.217 -23.814  0.00  0.00    +0.001 C 
ATOM      6  C   UNL     1      35.315 -17.109 -22.710  0.00  0.00    +0.001 C 
ENDROOT
BRANCH   1   7
ATOM      7  O   UNL     1      33.952 -16.474 -26.055  0.00  0.00    -0.478 OA
BRANCH   7   8
ATOM      8  C   UNL     1      33.011 -15.433 -25.828  0.00  0.00    +0.183 C 
BRANCH   8   9
ATOM      9  C   UNL     1      33.515 -14.164 -26.500  0.00  0.00    -0.029 C 
BRANCH   9  10
ATOM     10  N   UNL     1      33.248 -13.002 -25.667  0.00  0.00    +0.389 N 
ATOM     11  C   UNL     1      34.072 -11.850 -26.033  0.00  0.00    -0.077 C 
ATOM     12  C   UNL     1      33.545 -13.247 -24.255  0.00  0.00    -0.077 C 
ATOM     13  C   UNL     1      33.920 -10.928 -24.834  0.00  0.00    -0.025 C 
ATOM     14  C   UNL     1      33.577 -11.845 -23.664  0.00  0.00    -0.025 C 
ATOM     15  H   UNL     1      32.256 -12.815 -25.814  0.00  0.00    -0.080 HD
ENDBRANCH   9  10
ENDBRANCH   8   9
ENDBRANCH   7   8
ENDBRANCH   1   7
BRANCH   2  16
ATOM     16  C   UNL     1      35.840 -19.230 -21.497  0.00  0.00    +0.155 C 
BRANCH  16  18
ATOM     17  N   UNL     1      32.795 -21.513 -19.452  0.00  0.00    -0.242 NA
ATOM     18  C   UNL     1      34.765 -20.036 -20.774  0.00  0.00    +0.012 C 
ATOM     19  C   UNL     1      35.109 -21.184 -20.071  0.00  0.00    +0.019 C 
ATOM     20  C   UNL     1      33.437 -19.625 -20.818  0.00  0.00    +0.019 C 
ATOM     21  C   UNL     1      34.096 -21.881 -19.431  0.00  0.00    +0.099 C 
ATOM     22  C   UNL     1      32.499 -20.391 -20.145  0.00  0.00    +0.099 C 
ENDBRANCH  16  18
BRANCH  16  23
ATOM     23  O   UNL     1      36.485 -18.333 -20.574  0.00  0.00    -0.376 OA
ATOM     24  H   UNL     1      35.874 -17.617 -20.340  0.00  0.00    +0.211 HD
ENDBRANCH  16  23
ENDBRANCH   2  16
TORSDOF 7
ENDMDL
MODEL 9
REMARK VINA RESULT:      -9.1      4.301     10.175
REMARK  Name = 44129623
REMARK  7 active torsions:
REMARK  status: ('A' for Active; 'I' for Inactive)
REMARK    1  A    between atoms: C_1  and  O_7
REMARK    2  A    between atoms: C_2  and  C_16
REMARK    3  A    between atoms: O_7  and  C_8
REMARK    4  A    between atoms: C_8  and  C_9
REMARK    5  A    between atoms: C_9  and  N_10
REMARK    6  A    between atoms: C_16  and  C_18
REMARK    7  A    between atoms: C_16  and  O_23
REMARK                            x       y       z     vdW  Elec       q    Type
REMARK                         _______ _______ _______ _____ _____    ______ ____
ROOT
ATOM      1  C   UNL     1      33.813 -15.083 -24.081  0.00  0.00    +0.138 C 
ATOM      2  C   UNL     1      35.108 -17.411 -23.253  0.00  0.00    +0.009 C 
ATOM      3  C   UNL     1      34.322 -15.175 -22.786  0.00  0.00    +0.037 C 
ATOM      4  C   UNL     1      33.952 -16.155 -24.963  0.00  0.00    +0.037 C 
ATOM      5  C   UNL     1      34.969 -16.339 -22.371  0.00  0.00    +0.001 C 
ATOM      6  C   UNL     1      34.600 -17.319 -24.548  0.00  0.00    +0.001 C 
ENDROOT
BRANCH   1   7
ATOM      7  O   UNL     1      33.177 -13.939 -24.489  0.00  0.00    -0.478 OA
BRANCH   7   8
ATOM      8  C   UNL     1      33.381 -12.777 -23.695  0.00  0.00    +0.183 C 
BRANCH   8   9
ATOM      9  C   UNL     1      33.829 -11.640 -24.600  0.00  0.00    -0.029 C 
BRANCH   9  10
ATOM     10  N   UNL     1      34.040 -10.423 -23.830  0.00  0.00    +0.389 N 
ATOM     11  C   UNL     1      32.818  -9.633 -23.687  0.00  0.00    -0.077 C 
ATOM     12  C   UNL     1      35.003  -9.522 -24.463  0.00  0.00    -0.077 C 
ATOM     13  C   UNL     1      33.338  -8.283 -23.218  0.00  0.00    -0.025 C 
ATOM     14  C   UNL     1      34.773  -8.208 -23.732  0.00  0.00    -0.025 C 
ATOM     15  H   UNL     1      34.378 -10.758 -22.928  0.00  0.00    -0.080 HD
ENDBRANCH   9  10
ENDBRANCH   8   9
ENDBRANCH   7   8
ENDBRANCH   1   7
BRANCH   2  16
ATOM     16  C   UNL     1      35.801 -18.655 -22.810  0.00  0.00    +0.155 C 
BRANCH  16  18
ATOM     17  N   UNL     1      33.653 -20.871 -19.787  0.00  0.00    -0.242 NA
ATOM     18  C   UNL     1      35.042 -19.437 -21.742  0.00  0.00    +0.012 C 
ATOM     19  C   UNL     1      35.739 -20.167 -20.786  0.00  0.00    +0.019 C 
ATOM     20  C   UNL     1      33.652 -19.423 -21.722  0.00  0.00    +0.019 C 
ATOM     21  C   UNL     1      35.005 -20.860 -19.837  0.00  0.00    +0.099 C 
ATOM     22  C   UNL     1      33.011 -20.150 -20.732  0.00  0.00    +0.099 C 
ENDBRANCH  16  18
BRANCH  16  23
ATOM     23  O   UNL     1      37.138 -18.374 -22.357  0.00  0.00    -0.376 OA
ATOM     24  H   UNL     1      37.734 -19.077 -22.656  0.00  0.00    +0.211 HD
ENDBRANCH  16  23
ENDBRANCH   2  16
TORSDOF 7
ENDMDL
