MODEL 1
REMARK VINA RESULT:      -7.6      0.000      0.000
REMARK  Name = 17754111
REMARK  4 active torsions:
REMARK  status: ('A' for Active; 'I' for Inactive)
REMARK    1  A    between atoms: C_7  and  C_12
REMARK    2  A    between atoms: C_12  and  CA_13
REMARK    3  A    between atoms: CA_13  and  N_14
REMARK    4  A    between atoms: CA_13  and  C_19
REMARK                            x       y       z     vdW  Elec       q    Type
REMARK                         _______ _______ _______ _____ _____    ______ ____
ROOT
ATOM      1  N   UNL     1      37.491 -25.183 -15.009  0.00  0.00    -0.223 N 
ATOM      2  N   UNL     1      35.300 -25.394 -15.306  0.00  0.00    -0.254 NA
ATOM      3  N   UNL     1      39.280 -26.697 -14.516  0.00  0.00    -0.095 NA
ATOM      4  N   UNL     1      39.816 -24.510 -14.758  0.00  0.00    -0.072 NA
ATOM      5  N   UNL     1      40.585 -26.434 -14.357  0.00  0.00    -0.139 N 
ATOM      6  N   UNL     1      40.948 -25.152 -14.493  0.00  0.00    -0.020 NA
ATOM      7  C   UNL     1      35.572 -24.064 -15.464  0.00  0.00    +0.053 C 
ATOM      8  C   UNL     1      36.930 -23.959 -15.275  0.00  0.00    +0.144 C 
ATOM      9  C   UNL     1      36.482 -26.026 -15.035  0.00  0.00    +0.228 C 
ATOM     10  C   UNL     1      38.840 -25.461 -14.766  0.00  0.00    +0.131 C 
ATOM     11  H   UNL     1      41.238 -27.142 -14.153  0.00  0.00    +0.197 HD
ENDROOT
BRANCH   7  12
ATOM     12  C   UNL     1      34.523 -23.033 -15.774  0.00  0.00    +0.028 C 
BRANCH  12  13
ATOM     13  CA  UNL     1      33.587 -23.438 -16.921  0.00  0.00    +0.007 C 
BRANCH  13  14
ATOM     14  N   UNL     1      33.874 -22.628 -18.104  0.00  0.00    +0.387 N 
ATOM     15  H1  UNL     1      34.577 -21.927 -17.873  0.00  0.00    -0.089 HD
ATOM     16  H2  UNL     1      33.021 -22.164 -18.414  0.00  0.00    -0.089 HD
ATOM     17  H3  UNL     1      34.225 -23.228 -18.851  0.00  0.00    -0.089 HD
ENDBRANCH  13  14
BRANCH  13  19
ATOM     18  O   UNL     1      31.321 -22.571 -17.203  0.00  0.00    -0.291 OA
ATOM     19  C   UNL     1      32.133 -23.212 -16.543  0.00  0.00    +0.186 C 
ENDBRANCH  13  19
ENDBRANCH  12  13
ENDBRANCH   7  12
TORSDOF 4
ENDMDL
MODEL 2
REMARK VINA RESULT:      -7.5      5.419      7.828
REMARK  Name = 17754111
REMARK  4 active torsions:
REMARK  status: ('A' for Active; 'I' for Inactive)
REMARK    1  A    between atoms: C_7  and  C_12
REMARK    2  A    between atoms: C_12  and  CA_13
REMARK    3  A    between atoms: CA_13  and  N_14
REMARK    4  A    between atoms: CA_13  and  C_19
REMARK                            x       y       z     vdW  Elec       q    Type
REMARK                         _______ _______ _______ _____ _____    ______ ____
ROOT
ATOM      1  N   UNL     1      33.963 -21.070 -19.738  0.00  0.00    -0.223 N 
ATOM      2  N   UNL     1      33.422 -19.579 -21.292  0.00  0.00    -0.254 NA
ATOM      3  N   UNL     1      32.730 -22.578 -18.345  0.00  0.00    -0.095 NA
ATOM      4  N   UNL     1      34.984 -22.575 -18.120  0.00  0.00    -0.072 NA
ATOM      5  N   UNL     1      33.188 -23.442 -17.427  0.00  0.00    -0.139 N 
ATOM      6  N   UNL     1      34.518 -23.475 -17.262  0.00  0.00    -0.020 NA
ATOM      7  C   UNL     1      34.784 -19.540 -21.196  0.00  0.00    +0.053 C 
ATOM      8  C   UNL     1      35.094 -20.468 -20.230  0.00  0.00    +0.144 C 
ATOM      9  C   UNL     1      32.973 -20.511 -20.399  0.00  0.00    +0.228 C 
ATOM     10  C   UNL     1      33.891 -22.059 -18.752  0.00  0.00    +0.131 C 
ATOM     11  H   UNL     1      32.584 -24.018 -16.907  0.00  0.00    +0.197 HD
ENDROOT
BRANCH   7  12
ATOM     12  C   UNL     1      35.650 -18.631 -22.023  0.00  0.00    +0.028 C 
BRANCH  12  13
ATOM     13  CA  UNL     1      34.909 -17.395 -22.553  0.00  0.00    +0.007 C 
BRANCH  13  14
ATOM     14  N   UNL     1      35.641 -16.826 -23.684  0.00  0.00    +0.387 N 
ATOM     15  H1  UNL     1      36.611 -16.667 -23.414  0.00  0.00    -0.089 HD
ATOM     16  H2  UNL     1      35.214 -15.941 -23.954  0.00  0.00    -0.089 HD
ATOM     17  H3  UNL     1      35.608 -17.474 -24.471  0.00  0.00    -0.089 HD
ENDBRANCH  13  14
BRANCH  13  19
ATOM     18  O   UNL     1      35.189 -16.440 -20.324  0.00  0.00    -0.291 OA
ATOM     19  C   UNL     1      34.800 -16.324 -21.481  0.00  0.00    +0.186 C 
ENDBRANCH  13  19
ENDBRANCH  12  13
ENDBRANCH   7  12
TORSDOF 4
ENDMDL
MODEL 3
REMARK VINA RESULT:      -7.5      8.491     12.000
REMARK  Name = 17754111
REMARK  4 active torsions:
REMARK  status: ('A' for Active; 'I' for Inactive)
REMARK    1  A    between atoms: C_7  and  C_12
REMARK    2  A    between atoms: C_12  and  CA_13
REMARK    3  A    between atoms: CA_13  and  N_14
REMARK    4  A    between atoms: CA_13  and  C_19
REMARK                            x       y       z     vdW  Elec       q    Type
REMARK                         _______ _______ _______ _____ _____    ______ ____
ROOT
ATOM      1  N   UNL     1      34.368 -16.196 -23.380  0.00  0.00    -0.223 N 
ATOM      2  N   UNL     1      34.866 -16.561 -21.247  0.00  0.00    -0.254 NA
ATOM      3  N   UNL     1      33.221 -14.465 -24.573  0.00  0.00    -0.095 NA
ATOM      4  N   UNL     1      34.035 -16.192 -25.791  0.00  0.00    -0.072 NA
ATOM      5  N   UNL     1      32.982 -14.365 -25.888  0.00  0.00    -0.139 N 
ATOM      6  N   UNL     1      33.448 -15.366 -26.649  0.00  0.00    -0.020 NA
ATOM      7  C   UNL     1      35.377 -17.624 -21.937  0.00  0.00    +0.053 C 
ATOM      8  C   UNL     1      35.056 -17.377 -23.251  0.00  0.00    +0.144 C 
ATOM      9  C   UNL     1      34.270 -15.731 -22.155  0.00  0.00    +0.228 C 
ATOM     10  C   UNL     1      33.883 -15.625 -24.561  0.00  0.00    +0.131 C 
ATOM     11  H   UNL     1      32.495 -13.602 -26.273  0.00  0.00    +0.197 HD
ENDROOT
BRANCH   7  12
ATOM     12  C   UNL     1      36.112 -18.761 -21.284  0.00  0.00    +0.028 C 
BRANCH  12  13
ATOM     13  CA  UNL     1      35.250 -20.016 -21.087  0.00  0.00    +0.007 C 
BRANCH  13  14
ATOM     14  N   UNL     1      33.889 -19.629 -20.719  0.00  0.00    +0.387 N 
ATOM     15  H1  UNL     1      33.632 -18.778 -21.217  0.00  0.00    -0.089 HD
ATOM     16  H2  UNL     1      33.844 -19.462 -19.714  0.00  0.00    -0.089 HD
ATOM     17  H3  UNL     1      33.243 -20.378 -20.968  0.00  0.00    -0.089 HD
ENDBRANCH  13  14
BRANCH  13  19
ATOM     18  O   UNL     1      36.605 -20.523 -19.120  0.00  0.00    -0.291 OA
ATOM     19  C   UNL     1      35.805 -20.889 -19.974  0.00  0.00    +0.186 C 
ENDBRANCH  13  19
ENDBRANCH  12  13
ENDBRANCH   7  12
TORSDOF 4
ENDMDL
MODEL 4
REMARK VINA RESULT:      -7.2      3.485      7.158
REMARK  Name = 17754111
REMARK  4 active torsions:
REMARK  status: ('A' for Active; 'I' for Inactive)
REMARK    1  A    between atoms: C_7  and  C_12
REMARK    2  A    between atoms: C_12  and  CA_13
REMARK    3  A    between atoms: CA_13  and  N_14
REMARK    4  A    between atoms: CA_13  and  C_19
REMARK                            x       y       z     vdW  Elec       q    Type
REMARK                         _______ _______ _______ _____ _____    ______ ____
ROOT
ATOM      1  N   UNL     1      32.737 -23.407 -15.696  0.00  0.00    -0.223 N 
ATOM      2  N   UNL     1      34.906 -23.760 -16.016  0.00  0.00    -0.254 NA
ATOM      3  N   UNL     1      30.916 -22.719 -17.091  0.00  0.00    -0.095 NA
ATOM      4  N   UNL     1      30.448 -23.138 -14.915  0.00  0.00    -0.072 NA
ATOM      5  N   UNL     1      29.628 -22.539 -16.766  0.00  0.00    -0.139 N 
ATOM      6  N   UNL     1      29.305 -22.777 -15.487  0.00  0.00    -0.020 NA
ATOM      7  C   UNL     1      34.675 -24.027 -14.696  0.00  0.00    +0.053 C 
ATOM      8  C   UNL     1      33.330 -23.801 -14.523  0.00  0.00    +0.144 C 
ATOM      9  C   UNL     1      33.714 -23.392 -16.576  0.00  0.00    +0.228 C 
ATOM     10  C   UNL     1      31.390 -23.094 -15.900  0.00  0.00    +0.131 C 
ATOM     11  H   UNL     1      28.959 -22.250 -17.427  0.00  0.00    +0.197 HD
ENDROOT
BRANCH   7  12
ATOM     12  C   UNL     1      35.747 -24.464 -13.738  0.00  0.00    +0.028 C 
BRANCH  12  13
ATOM     13  CA  UNL     1      36.666 -25.556 -14.303  0.00  0.00    +0.007 C 
BRANCH  13  14
ATOM     14  N   UNL     1      35.872 -26.548 -15.026  0.00  0.00    +0.387 N 
ATOM     15  H1  UNL     1      34.964 -26.650 -14.574  0.00  0.00    -0.089 HD
ATOM     16  H2  UNL     1      36.358 -27.443 -15.020  0.00  0.00    -0.089 HD
ATOM     17  H3  UNL     1      35.739 -26.239 -15.990  0.00  0.00    -0.089 HD
ENDBRANCH  13  14
BRANCH  13  19
ATOM     18  O   UNL     1      36.991 -26.427 -12.045  0.00  0.00    -0.291 OA
ATOM     19  C   UNL     1      37.407 -26.275 -13.188  0.00  0.00    +0.186 C 
ENDBRANCH  13  19
ENDBRANCH  12  13
ENDBRANCH   7  12
TORSDOF 4
ENDMDL
MODEL 5
REMARK VINA RESULT:      -7.2      4.535      8.665
REMARK  Name = 17754111
REMARK  4 active torsions:
REMARK  status: ('A' for Active; 'I' for Inactive)
REMARK    1  A    between atoms: C_7  and  C_12
REMARK    2  A    between atoms: C_12  and  CA_13
REMARK    3  A    between atoms: CA_13  and  N_14
REMARK    4  A    between atoms: CA_13  and  C_19
REMARK                            x       y       z     vdW  Elec       q    Type
REMARK                         _______ _______ _______ _____ _____    ______ ____
ROOT
ATOM      1  N   UNL     1      29.743 -22.867 -15.538  0.00  0.00    -0.223 N 
ATOM      2  N   UNL     1      31.423 -23.571 -14.268  0.00  0.00    -0.254 NA
ATOM      3  N   UNL     1      27.395 -22.539 -15.200  0.00  0.00    -0.095 NA
ATOM      4  N   UNL     1      28.219 -22.055 -17.253  0.00  0.00    -0.072 NA
ATOM      5  N   UNL     1      26.473 -22.102 -16.069  0.00  0.00    -0.139 N 
ATOM      6  N   UNL     1      26.916 -21.801 -17.297  0.00  0.00    -0.020 NA
ATOM      7  C   UNL     1      31.970 -23.291 -15.489  0.00  0.00    +0.053 C 
ATOM      8  C   UNL     1      30.913 -22.860 -16.255  0.00  0.00    +0.144 C 
ATOM      9  C   UNL     1      30.085 -23.301 -14.345  0.00  0.00    +0.228 C 
ATOM     10  C   UNL     1      28.473 -22.493 -15.987  0.00  0.00    +0.131 C 
ATOM     11  H   UNL     1      25.526 -22.005 -15.819  0.00  0.00    +0.197 HD
ENDROOT
BRANCH   7  12
ATOM     12  C   UNL     1      33.430 -23.463 -15.804  0.00  0.00    +0.028 C 
BRANCH  12  13
ATOM     13  CA  UNL     1      34.186 -24.304 -14.766  0.00  0.00    +0.007 C 
BRANCH  13  14
ATOM     14  N   UNL     1      34.310 -23.554 -13.516  0.00  0.00    +0.387 N 
ATOM     15  H1  UNL     1      35.195 -23.788 -13.067  0.00  0.00    -0.089 HD
ATOM     16  H2  UNL     1      33.539 -23.797 -12.896  0.00  0.00    -0.089 HD
ATOM     17  H3  UNL     1      34.284 -22.554 -13.716  0.00  0.00    -0.089 HD
ENDBRANCH  13  14
BRANCH  13  19
ATOM     18  O   UNL     1      36.007 -25.769 -15.472  0.00  0.00    -0.291 OA
ATOM     19  C   UNL     1      35.586 -24.638 -15.251  0.00  0.00    +0.186 C 
ENDBRANCH  13  19
ENDBRANCH  12  13
ENDBRANCH   7  12
TORSDOF 4
ENDMDL
MODEL 6
REMARK VINA RESULT:      -7.2      8.463     11.997
REMARK  Name = 17754111
REMARK  4 active torsions:
REMARK  status: ('A' for Active; 'I' for Inactive)
REMARK    1  A    between atoms: C_7  and  C_12
REMARK    2  A    between atoms: C_12  and  CA_13
REMARK    3  A    between atoms: CA_13  and  N_14
REMARK    4  A    between atoms: CA_13  and  C_19
REMARK                            x       y       z     vdW  Elec       q    Type
REMARK                         _______ _______ _______ _____ _____    ______ ____
ROOT
ATOM      1  N   UNL     1      34.326 -16.243 -23.533  0.00  0.00    -0.223 N 
ATOM      2  N   UNL     1      34.890 -16.719 -21.438  0.00  0.00    -0.254 NA
ATOM      3  N   UNL     1      33.393 -14.333 -24.635  0.00  0.00    -0.095 NA
ATOM      4  N   UNL     1      33.853 -16.142 -25.918  0.00  0.00    -0.072 NA
ATOM      5  N   UNL     1      33.093 -14.173 -25.933  0.00  0.00    -0.139 N 
ATOM      6  N   UNL     1      33.351 -15.219 -26.730  0.00  0.00    -0.020 NA
ATOM      7  C   UNL     1      35.187 -17.836 -22.168  0.00  0.00    +0.053 C 
ATOM      8  C   UNL     1      34.829 -17.517 -23.457  0.00  0.00    +0.144 C 
ATOM      9  C   UNL     1      34.376 -15.790 -22.299  0.00  0.00    +0.228 C 
ATOM     10  C   UNL     1      33.865 -15.581 -24.675  0.00  0.00    +0.131 C 
ATOM     11  H   UNL     1      32.709 -13.337 -26.279  0.00  0.00    +0.197 HD
ENDROOT
BRANCH   7  12
ATOM     12  C   UNL     1      35.774 -19.085 -21.573  0.00  0.00    +0.028 C 
BRANCH  12  13
ATOM     13  CA  UNL     1      34.875 -19.742 -20.517  0.00  0.00    +0.007 C 
BRANCH  13  14
ATOM     14  N   UNL     1      35.413 -21.052 -20.153  0.00  0.00    +0.387 N 
ATOM     15  H1  UNL     1      34.802 -21.491 -19.465  0.00  0.00    -0.089 HD
ATOM     16  H2  UNL     1      36.345 -20.938 -19.758  0.00  0.00    -0.089 HD
ATOM     17  H3  UNL     1      35.466 -21.641 -20.985  0.00  0.00    -0.089 HD
ENDBRANCH  13  14
BRANCH  13  19
ATOM     18  O   UNL     1      32.616 -20.668 -20.542  0.00  0.00    -0.291 OA
ATOM     19  C   UNL     1      33.468 -19.947 -21.051  0.00  0.00    +0.186 C 
ENDBRANCH  13  19
ENDBRANCH  12  13
ENDBRANCH   7  12
TORSDOF 4
ENDMDL
MODEL 7
REMARK VINA RESULT:      -7.2      6.928      9.297
REMARK  Name = 17754111
REMARK  4 active torsions:
REMARK  status: ('A' for Active; 'I' for Inactive)
REMARK    1  A    between atoms: C_7  and  C_12
REMARK    2  A    between atoms: C_12  and  CA_13
REMARK    3  A    between atoms: CA_13  and  N_14
REMARK    4  A    between atoms: CA_13  and  C_19
REMARK                            x       y       z     vdW  Elec       q    Type
REMARK                         _______ _______ _______ _____ _____    ______ ____
ROOT
ATOM      1  N   UNL     1      34.730 -19.720 -20.616  0.00  0.00    -0.223 N 
ATOM      2  N   UNL     1      36.135 -18.296 -21.579  0.00  0.00    -0.254 NA
ATOM      3  N   UNL     1      34.917 -21.938 -19.734  0.00  0.00    -0.095 NA
ATOM      4  N   UNL     1      32.881 -20.951 -19.621  0.00  0.00    -0.072 NA
ATOM      5  N   UNL     1      33.970 -22.702 -19.169  0.00  0.00    -0.139 N 
ATOM      6  N   UNL     1      32.749 -22.157 -19.081  0.00  0.00    -0.020 NA
ATOM      7  C   UNL     1      34.929 -17.656 -21.534  0.00  0.00    +0.053 C 
ATOM      8  C   UNL     1      34.077 -18.555 -20.936  0.00  0.00    +0.144 C 
ATOM      9  C   UNL     1      35.967 -19.531 -21.018  0.00  0.00    +0.228 C 
ATOM     10  C   UNL     1      34.187 -20.852 -20.000  0.00  0.00    +0.131 C 
ATOM     11  H   UNL     1      34.161 -23.608 -18.839  0.00  0.00    +0.197 HD
ENDROOT
BRANCH   7  12
ATOM     12  C   UNL     1      34.706 -16.266 -22.060  0.00  0.00    +0.028 C 
BRANCH  12  13
ATOM     13  CA  UNL     1      34.288 -16.229 -23.537  0.00  0.00    +0.007 C 
BRANCH  13  14
ATOM     14  N   UNL     1      35.360 -16.772 -24.369  0.00  0.00    +0.387 N 
ATOM     15  H1  UNL     1      36.029 -17.267 -23.780  0.00  0.00    -0.089 HD
ATOM     16  H2  UNL     1      35.832 -16.011 -24.855  0.00  0.00    -0.089 HD
ATOM     17  H3  UNL     1      34.966 -17.419 -25.052  0.00  0.00    -0.089 HD
ENDBRANCH  13  14
BRANCH  13  19
ATOM     18  O   UNL     1      34.192 -13.800 -23.310  0.00  0.00    -0.291 OA
ATOM     19  C   UNL     1      34.020 -14.805 -23.992  0.00  0.00    +0.186 C 
ENDBRANCH  13  19
ENDBRANCH  12  13
ENDBRANCH   7  12
TORSDOF 4
ENDMDL
MODEL 8
REMARK VINA RESULT:      -7.1      3.651      6.095
REMARK  Name = 17754111
REMARK  4 active torsions:
REMARK  status: ('A' for Active; 'I' for Inactive)
REMARK    1  A    between atoms: C_7  and  C_12
REMARK    2  A    between atoms: C_12  and  CA_13
REMARK    3  A    between atoms: CA_13  and  N_14
REMARK    4  A    between atoms: CA_13  and  C_19
REMARK                            x       y       z     vdW  Elec       q    Type
REMARK                         _______ _______ _______ _____ _____    ______ ____
ROOT
ATOM      1  N   UNL     1      36.392 -22.459 -16.580  0.00  0.00    -0.223 N 
ATOM      2  N   UNL     1      37.676 -22.778 -14.797  0.00  0.00    -0.254 NA
ATOM      3  N   UNL     1      36.571 -21.147 -18.575  0.00  0.00    -0.095 NA
ATOM      4  N   UNL     1      34.700 -22.399 -18.329  0.00  0.00    -0.072 NA
ATOM      5  N   UNL     1      35.705 -21.040 -19.593  0.00  0.00    -0.139 N 
ATOM      6  N   UNL     1      34.583 -21.766 -19.490  0.00  0.00    -0.020 NA
ATOM      7  C   UNL     1      36.567 -23.552 -14.601  0.00  0.00    +0.053 C 
ATOM      8  C   UNL     1      35.789 -23.337 -15.714  0.00  0.00    +0.144 C 
ATOM      9  C   UNL     1      37.526 -22.141 -15.997  0.00  0.00    +0.228 C 
ATOM     10  C   UNL     1      35.898 -22.008 -17.808  0.00  0.00    +0.131 C 
ATOM     11  H   UNL     1      35.883 -20.465 -20.371  0.00  0.00    +0.197 HD
ENDROOT
BRANCH   7  12
ATOM     12  C   UNL     1      36.358 -24.410 -13.385  0.00  0.00    +0.028 C 
BRANCH  12  13
ATOM     13  CA  UNL     1      36.496 -23.643 -12.063  0.00  0.00    +0.007 C 
BRANCH  13  14
ATOM     14  N   UNL     1      37.901 -23.599 -11.660  0.00  0.00    +0.387 N 
ATOM     15  H1  UNL     1      37.998 -23.996 -10.726  0.00  0.00    -0.089 HD
ATOM     16  H2  UNL     1      38.223 -22.632 -11.654  0.00  0.00    -0.089 HD
ATOM     17  H3  UNL     1      38.461 -24.140 -12.319  0.00  0.00    -0.089 HD
ENDBRANCH  13  14
BRANCH  13  19
ATOM     18  O   UNL     1      35.997 -24.286  -9.761  0.00  0.00    -0.291 OA
ATOM     19  C   UNL     1      35.713 -24.324 -10.953  0.00  0.00    +0.186 C 
ENDBRANCH  13  19
ENDBRANCH  12  13
ENDBRANCH   7  12
TORSDOF 4
ENDMDL
MODEL 9
REMARK VINA RESULT:      -6.9      3.761      7.473
REMARK  Name = 17754111
REMARK  4 active torsions:
REMARK  status: ('A' for Active; 'I' for Inactive)
REMARK    1  A    between atoms: C_7  and  C_12
REMARK    2  A    between atoms: C_12  and  CA_13
REMARK    3  A    between atoms: CA_13  and  N_14
REMARK    4  A    between atoms: CA_13  and  C_19
REMARK                            x       y       z     vdW  Elec       q    Type
REMARK                         _______ _______ _______ _____ _____    ______ ____
ROOT
ATOM      1  N   UNL     1      31.335 -23.874 -14.967  0.00  0.00    -0.223 N 
ATOM      2  N   UNL     1      32.747 -24.769 -13.505  0.00  0.00    -0.254 NA
ATOM      3  N   UNL     1      28.998 -24.122 -15.423  0.00  0.00    -0.095 NA
ATOM      4  N   UNL     1      30.153 -22.664 -16.717  0.00  0.00    -0.072 NA
ATOM      5  N   UNL     1      28.253 -23.511 -16.356  0.00  0.00    -0.139 N 
ATOM      6  N   UNL     1      28.896 -22.638 -17.144  0.00  0.00    -0.020 NA
ATOM      7  C   UNL     1      33.488 -23.901 -14.256  0.00  0.00    +0.053 C 
ATOM      8  C   UNL     1      32.595 -23.362 -15.152  0.00  0.00    +0.144 C 
ATOM      9  C   UNL     1      31.462 -24.719 -13.968  0.00  0.00    +0.228 C 
ATOM     10  C   UNL     1      30.180 -23.560 -15.689  0.00  0.00    +0.131 C 
ATOM     11  H   UNL     1      27.291 -23.691 -16.455  0.00  0.00    +0.197 HD
ENDROOT
BRANCH   7  12
ATOM     12  C   UNL     1      34.960 -23.673 -14.051  0.00  0.00    +0.028 C 
BRANCH  12  13
ATOM     13  CA  UNL     1      35.845 -24.474 -15.017  0.00  0.00    +0.007 C 
BRANCH  13  14
ATOM     14  N   UNL     1      35.560 -25.902 -14.881  0.00  0.00    +0.387 N 
ATOM     15  H1  UNL     1      36.130 -26.425 -15.545  0.00  0.00    -0.089 HD
ATOM     16  H2  UNL     1      34.573 -26.071 -15.072  0.00  0.00    -0.089 HD
ATOM     17  H3  UNL     1      35.780 -26.203 -13.932  0.00  0.00    -0.089 HD
ENDBRANCH  13  14
BRANCH  13  19
ATOM     18  O   UNL     1      38.046 -23.451 -15.276  0.00  0.00    -0.291 OA
ATOM     19  C   UNL     1      37.317 -24.260 -14.712  0.00  0.00    +0.186 C 
ENDBRANCH  13  19
ENDBRANCH  12  13
ENDBRANCH   7  12
TORSDOF 4
ENDMDL
