MODEL 1
REMARK VINA RESULT:      -9.8      0.000      0.000
REMARK  Name = 448729
REMARK  3 active torsions:
REMARK  status: ('A' for Active; 'I' for Inactive)
REMARK    1  A    between atoms: C_4  and  O_17
REMARK    2  A    between atoms: C_5  and  C_14
REMARK    3  A    between atoms: O_17  and  C_18
REMARK                            x       y       z     vdW  Elec       q    Type
REMARK                         _______ _______ _______ _____ _____    ______ ____
ROOT
ATOM      1 CL   UNL     1      28.823 -23.152 -17.168  0.00  0.00    -0.082 Cl
ATOM      2  O   UNL     1      35.736 -23.500 -13.179  0.00  0.00    -0.267 OA
ATOM      3  N   UNL     1      33.490 -23.287 -13.558  0.00  0.00    -0.321 N 
ATOM      4  C   UNL     1      33.993 -23.443 -16.304  0.00  0.00    +0.140 A 
ATOM      5  C   UNL     1      35.029 -23.511 -15.450  0.00  0.00    +0.067 A 
ATOM      6  C   UNL     1      32.603 -23.320 -15.818  0.00  0.00    +0.050 A 
ATOM      7  C   UNL     1      32.395 -23.232 -14.435  0.00  0.00    +0.062 A 
ATOM      8  C   UNL     1      34.796 -23.436 -13.970  0.00  0.00    +0.256 A 
ATOM      9  C   UNL     1      31.476 -23.304 -16.654  0.00  0.00    +0.016 C 
ATOM     10  C   UNL     1      31.109 -23.104 -13.897  0.00  0.00    +0.018 C 
ATOM     11  C   UNL     1      30.189 -23.179 -16.119  0.00  0.00    +0.058 C 
ATOM     12  C   UNL     1      30.006 -23.076 -14.744  0.00  0.00    +0.013 C 
ATOM     13  H   UNL     1      33.314 -23.214 -12.592  0.00  0.00    +0.169 HD
ENDROOT
BRANCH   5  14
ATOM     14  C   UNL     1      36.464 -23.653 -15.873  0.00  0.00    +0.030 C 
ATOM     15  C   UNL     1      37.207 -22.340 -15.663  0.00  0.00    +0.005 C 
ATOM     16  C   UNL     1      37.138 -24.792 -15.115  0.00  0.00    +0.005 C 
ENDBRANCH   5  14
BRANCH   4  17
ATOM     17  O   UNL     1      34.221 -23.516 -17.668  0.00  0.00    -0.479 OA
BRANCH  17  18
ATOM     18  C   UNL     1      34.349 -22.213 -18.226  0.00  0.00    +0.166 C 
ATOM     19  C   UNL     1      35.714 -22.075 -18.899  0.00  0.00    +0.044 C 
ATOM     20  C   UNL     1      33.208 -21.962 -19.211  0.00  0.00    +0.044 C 
ATOM     21  C   UNL     1      35.862 -20.728 -19.598  0.00  0.00    +0.004 C 
ATOM     22  C   UNL     1      33.356 -20.614 -19.910  0.00  0.00    +0.004 C 
ATOM     23  C   UNL     1      34.721 -20.475 -20.580  0.00  0.00    +0.000 C 
ENDBRANCH  17  18
ENDBRANCH   4  17
TORSDOF 3
ENDMDL
MODEL 2
REMARK VINA RESULT:      -8.7      2.092      4.971
REMARK  Name = 448729
REMARK  3 active torsions:
REMARK  status: ('A' for Active; 'I' for Inactive)
REMARK    1  A    between atoms: C_4  and  O_17
REMARK    2  A    between atoms: C_5  and  C_14
REMARK    3  A    between atoms: O_17  and  C_18
REMARK                            x       y       z     vdW  Elec       q    Type
REMARK                         _______ _______ _______ _____ _____    ______ ____
ROOT
ATOM      1 CL   UNL     1      33.762 -21.758 -20.121  0.00  0.00    -0.082 Cl
ATOM      2  O   UNL     1      38.002 -23.255 -13.519  0.00  0.00    -0.267 OA
ATOM      3  N   UNL     1      37.473 -22.416 -15.580  0.00  0.00    -0.321 N 
ATOM      4  C   UNL     1      35.065 -23.835 -15.480  0.00  0.00    +0.140 A 
ATOM      5  C   UNL     1      35.918 -23.930 -14.444  0.00  0.00    +0.067 A 
ATOM      6  C   UNL     1      35.364 -22.977 -16.645  0.00  0.00    +0.050 A 
ATOM      7  C   UNL     1      36.587 -22.293 -16.662  0.00  0.00    +0.062 A 
ATOM      8  C   UNL     1      37.216 -23.178 -14.462  0.00  0.00    +0.256 A 
ATOM      9  C   UNL     1      34.492 -22.789 -17.728  0.00  0.00    +0.016 C 
ATOM     10  C   UNL     1      36.946 -21.468 -17.734  0.00  0.00    +0.018 C 
ATOM     11  C   UNL     1      34.846 -21.963 -18.799  0.00  0.00    +0.058 C 
ATOM     12  C   UNL     1      36.073 -21.306 -18.805  0.00  0.00    +0.013 C 
ATOM     13  H   UNL     1      38.328 -21.931 -15.624  0.00  0.00    +0.169 HD
ENDROOT
BRANCH   5  14
ATOM     14  C   UNL     1      35.672 -24.768 -13.222  0.00  0.00    +0.030 C 
ATOM     15  C   UNL     1      36.856 -25.693 -12.971  0.00  0.00    +0.005 C 
ATOM     16  C   UNL     1      35.400 -23.885 -12.009  0.00  0.00    +0.005 C 
ENDBRANCH   5  14
BRANCH   4  17
ATOM     17  O   UNL     1      33.869 -24.532 -15.450  0.00  0.00    -0.479 OA
BRANCH  17  18
ATOM     18  C   UNL     1      32.804 -23.683 -15.036  0.00  0.00    +0.166 C 
ATOM     19  C   UNL     1      31.824 -23.489 -16.192  0.00  0.00    +0.044 C 
ATOM     20  C   UNL     1      32.117 -24.284 -13.810  0.00  0.00    +0.044 C 
ATOM     21  C   UNL     1      30.613 -22.665 -15.768  0.00  0.00    +0.004 C 
ATOM     22  C   UNL     1      30.905 -23.460 -13.387  0.00  0.00    +0.004 C 
ATOM     23  C   UNL     1      29.927 -23.264 -14.542  0.00  0.00    +0.000 C 
ENDBRANCH  17  18
ENDBRANCH   4  17
TORSDOF 3
ENDMDL
MODEL 3
REMARK VINA RESULT:      -8.4      2.489      4.447
REMARK  Name = 448729
REMARK  3 active torsions:
REMARK  status: ('A' for Active; 'I' for Inactive)
REMARK    1  A    between atoms: C_4  and  O_17
REMARK    2  A    between atoms: C_5  and  C_14
REMARK    3  A    between atoms: O_17  and  C_18
REMARK                            x       y       z     vdW  Elec       q    Type
REMARK                         _______ _______ _______ _____ _____    ______ ____
ROOT
ATOM      1 CL   UNL     1      38.824 -23.513 -15.768  0.00  0.00    -0.082 Cl
ATOM      2  O   UNL     1      31.147 -23.435 -13.563  0.00  0.00    -0.267 OA
ATOM      3  N   UNL     1      33.426 -23.481 -13.382  0.00  0.00    -0.321 N 
ATOM      4  C   UNL     1      33.591 -23.606 -16.171  0.00  0.00    +0.140 A 
ATOM      5  C   UNL     1      32.377 -23.557 -15.594  0.00  0.00    +0.067 A 
ATOM      6  C   UNL     1      34.827 -23.564 -15.364  0.00  0.00    +0.050 A 
ATOM      7  C   UNL     1      34.702 -23.514 -13.969  0.00  0.00    +0.062 A 
ATOM      8  C   UNL     1      32.252 -23.484 -14.102  0.00  0.00    +0.256 A 
ATOM      9  C   UNL     1      36.121 -23.552 -15.906  0.00  0.00    +0.016 C 
ATOM     10  C   UNL     1      35.826 -23.481 -13.135  0.00  0.00    +0.018 C 
ATOM     11  C   UNL     1      37.247 -23.516 -15.077  0.00  0.00    +0.058 C 
ATOM     12  C   UNL     1      37.099 -23.484 -13.693  0.00  0.00    +0.013 C 
ATOM     13  H   UNL     1      33.368 -23.455 -12.400  0.00  0.00    +0.169 HD
ENDROOT
BRANCH   5  14
ATOM     14  C   UNL     1      31.081 -23.579 -16.353  0.00  0.00    +0.030 C 
ATOM     15  C   UNL     1      30.239 -24.773 -15.923  0.00  0.00    +0.005 C 
ATOM     16  C   UNL     1      30.319 -22.272 -16.156  0.00  0.00    +0.005 C 
ENDBRANCH   5  14
BRANCH   4  17
ATOM     17  O   UNL     1      33.694 -23.671 -17.550  0.00  0.00    -0.479 OA
BRANCH  17  18
ATOM     18  C   UNL     1      33.929 -22.378 -18.097  0.00  0.00    +0.166 C 
ATOM     19  C   UNL     1      35.256 -22.377 -18.857  0.00  0.00    +0.044 C 
ATOM     20  C   UNL     1      32.763 -21.983 -19.002  0.00  0.00    +0.044 C 
ATOM     21  C   UNL     1      35.507 -21.040 -19.545  0.00  0.00    +0.004 C 
ATOM     22  C   UNL     1      33.015 -20.646 -19.690  0.00  0.00    +0.004 C 
ATOM     23  C   UNL     1      34.341 -20.643 -20.447  0.00  0.00    +0.000 C 
ENDBRANCH  17  18
ENDBRANCH   4  17
TORSDOF 3
ENDMDL
MODEL 4
REMARK VINA RESULT:      -8.3      2.567      5.541
REMARK  Name = 448729
REMARK  3 active torsions:
REMARK  status: ('A' for Active; 'I' for Inactive)
REMARK    1  A    between atoms: C_4  and  O_17
REMARK    2  A    between atoms: C_5  and  C_14
REMARK    3  A    between atoms: O_17  and  C_18
REMARK                            x       y       z     vdW  Elec       q    Type
REMARK                         _______ _______ _______ _____ _____    ______ ____
ROOT
ATOM      1 CL   UNL     1      37.258 -21.332 -19.612  0.00  0.00    -0.082 Cl
ATOM      2  O   UNL     1      30.593 -23.775 -15.949  0.00  0.00    -0.267 OA
ATOM      3  N   UNL     1      31.956 -22.958 -17.594  0.00  0.00    -0.321 N 
ATOM      4  C   UNL     1      34.087 -23.021 -15.784  0.00  0.00    +0.140 A 
ATOM      5  C   UNL     1      32.872 -23.422 -15.370  0.00  0.00    +0.067 A 
ATOM      6  C   UNL     1      34.317 -22.581 -17.175  0.00  0.00    +0.050 A 
ATOM      7  C   UNL     1      33.221 -22.552 -18.048  0.00  0.00    +0.062 A 
ATOM      8  C   UNL     1      31.708 -23.407 -16.315  0.00  0.00    +0.256 A 
ATOM      9  C   UNL     1      35.570 -22.207 -17.685  0.00  0.00    +0.016 C 
ATOM     10  C   UNL     1      33.357 -22.138 -19.378  0.00  0.00    +0.018 C 
ATOM     11  C   UNL     1      35.710 -21.796 -19.014  0.00  0.00    +0.058 C 
ATOM     12  C   UNL     1      34.605 -21.758 -19.858  0.00  0.00    +0.013 C 
ATOM     13  H   UNL     1      31.202 -22.920 -18.226  0.00  0.00    +0.169 HD
ENDROOT
BRANCH   5  14
ATOM     14  C   UNL     1      32.569 -23.898 -13.977  0.00  0.00    +0.030 C 
ATOM     15  C   UNL     1      31.708 -22.874 -13.248  0.00  0.00    +0.005 C 
ATOM     16  C   UNL     1      31.889 -25.262 -14.010  0.00  0.00    +0.005 C 
ENDBRANCH   5  14
BRANCH   4  17
ATOM     17  O   UNL     1      35.154 -23.042 -14.903  0.00  0.00    -0.479 OA
BRANCH  17  18
ATOM     18  C   UNL     1      36.120 -24.005 -15.307  0.00  0.00    +0.166 C 
ATOM     19  C   UNL     1      37.475 -23.665 -14.687  0.00  0.00    +0.044 C 
ATOM     20  C   UNL     1      35.652 -25.403 -14.902  0.00  0.00    +0.044 C 
ATOM     21  C   UNL     1      38.523 -24.723 -15.012  0.00  0.00    +0.004 C 
ATOM     22  C   UNL     1      36.701 -26.461 -15.227  0.00  0.00    +0.004 C 
ATOM     23  C   UNL     1      38.055 -26.120 -14.610  0.00  0.00    +0.000 C 
ENDBRANCH  17  18
ENDBRANCH   4  17
TORSDOF 3
ENDMDL
MODEL 5
REMARK VINA RESULT:      -7.9     13.820     16.559
REMARK  Name = 448729
REMARK  3 active torsions:
REMARK  status: ('A' for Active; 'I' for Inactive)
REMARK    1  A    between atoms: C_4  and  O_17
REMARK    2  A    between atoms: C_5  and  C_14
REMARK    3  A    between atoms: O_17  and  C_18
REMARK                            x       y       z     vdW  Elec       q    Type
REMARK                         _______ _______ _______ _____ _____    ______ ____
ROOT
ATOM      1 CL   UNL     1      35.894 -10.467 -26.661  0.00  0.00    -0.082 Cl
ATOM      2  O   UNL     1      30.973 -10.155 -20.376  0.00  0.00    -0.267 OA
ATOM      3  N   UNL     1      32.097 -11.010 -22.176  0.00  0.00    -0.321 N 
ATOM      4  C   UNL     1      33.161  -8.467 -22.651  0.00  0.00    +0.140 A 
ATOM      5  C   UNL     1      32.323  -8.636 -21.612  0.00  0.00    +0.067 A 
ATOM      6  C   UNL     1      33.549  -9.599 -23.517  0.00  0.00    +0.050 A 
ATOM      7  C   UNL     1      32.984 -10.854 -23.253  0.00  0.00    +0.062 A 
ATOM      8  C   UNL     1      31.738  -9.987 -21.325  0.00  0.00    +0.256 A 
ATOM      9  C   UNL     1      34.462  -9.501 -24.578  0.00  0.00    +0.016 C 
ATOM     10  C   UNL     1      33.294 -11.973 -24.035  0.00  0.00    +0.018 C 
ATOM     11  C   UNL     1      34.777 -10.617 -25.359  0.00  0.00    +0.058 C 
ATOM     12  C   UNL     1      34.192 -11.851 -25.090  0.00  0.00    +0.013 C 
ATOM     13  H   UNL     1      31.710 -11.901 -22.019  0.00  0.00    +0.169 HD
ENDROOT
BRANCH   5  14
ATOM     14  C   UNL     1      31.899  -7.536 -20.682  0.00  0.00    +0.030 C 
ATOM     15  C   UNL     1      33.114  -6.952 -19.971  0.00  0.00    +0.005 C 
ATOM     16  C   UNL     1      31.135  -6.454 -21.438  0.00  0.00    +0.005 C 
ENDBRANCH   5  14
BRANCH   4  17
ATOM     17  O   UNL     1      33.695  -7.216 -22.904  0.00  0.00    -0.479 OA
BRANCH  17  18
ATOM     18  C   UNL     1      33.343  -6.774 -24.210  0.00  0.00    +0.166 C 
ATOM     19  C   UNL     1      32.324  -5.638 -24.110  0.00  0.00    +0.044 C 
ATOM     20  C   UNL     1      34.600  -6.337 -24.961  0.00  0.00    +0.044 C 
ATOM     21  C   UNL     1      31.988  -5.064 -25.482  0.00  0.00    +0.004 C 
ATOM     22  C   UNL     1      34.263  -5.763 -26.333  0.00  0.00    +0.004 C 
ATOM     23  C   UNL     1      33.244  -4.630 -26.234  0.00  0.00    +0.000 C 
ENDBRANCH  17  18
ENDBRANCH   4  17
TORSDOF 3
ENDMDL
MODEL 6
REMARK VINA RESULT:      -7.8     11.157     14.279
REMARK  Name = 448729
REMARK  3 active torsions:
REMARK  status: ('A' for Active; 'I' for Inactive)
REMARK    1  A    between atoms: C_4  and  O_17
REMARK    2  A    between atoms: C_5  and  C_14
REMARK    3  A    between atoms: O_17  and  C_18
REMARK                            x       y       z     vdW  Elec       q    Type
REMARK                         _______ _______ _______ _____ _____    ______ ____
ROOT
ATOM      1 CL   UNL     1      35.331 -11.171 -26.798  0.00  0.00    -0.082 Cl
ATOM      2  O   UNL     1      32.027  -7.881 -20.312  0.00  0.00    -0.267 OA
ATOM      3  N   UNL     1      33.350  -8.099 -22.165  0.00  0.00    -0.321 N 
ATOM      4  C   UNL     1      32.446 -10.731 -22.435  0.00  0.00    +0.140 A 
ATOM      5  C   UNL     1      31.985  -9.988 -21.413  0.00  0.00    +0.067 A 
ATOM      6  C   UNL     1      33.390 -10.174 -23.425  0.00  0.00    +0.050 A 
ATOM      7  C   UNL     1      33.829  -8.854 -23.247  0.00  0.00    +0.062 A 
ATOM      8  C   UNL     1      32.444  -8.571 -21.241  0.00  0.00    +0.256 A 
ATOM      9  C   UNL     1      33.861 -10.876 -24.545  0.00  0.00    +0.016 C 
ATOM     10  C   UNL     1      34.729  -8.259 -24.137  0.00  0.00    +0.018 C 
ATOM     11  C   UNL     1      34.759 -10.283 -25.438  0.00  0.00    +0.058 C 
ATOM     12  C   UNL     1      35.195  -8.977 -25.232  0.00  0.00    +0.013 C 
ATOM     13  H   UNL     1      33.682  -7.178 -22.060  0.00  0.00    +0.169 HD
ENDROOT
BRANCH   5  14
ATOM     14  C   UNL     1      31.012 -10.484 -20.381  0.00  0.00    +0.030 C 
ATOM     15  C   UNL     1      30.046 -11.482 -21.005  0.00  0.00    +0.005 C 
ATOM     16  C   UNL     1      31.750 -11.102 -19.198  0.00  0.00    +0.005 C 
ENDBRANCH   5  14
BRANCH   4  17
ATOM     17  O   UNL     1      32.012 -12.037 -22.584  0.00  0.00    -0.479 OA
BRANCH  17  18
ATOM     18  C   UNL     1      33.068 -12.951 -22.312  0.00  0.00    +0.166 C 
ATOM     19  C   UNL     1      32.725 -13.777 -21.072  0.00  0.00    +0.044 C 
ATOM     20  C   UNL     1      33.305 -13.840 -23.532  0.00  0.00    +0.044 C 
ATOM     21  C   UNL     1      33.783 -14.840 -20.796  0.00  0.00    +0.004 C 
ATOM     22  C   UNL     1      34.363 -14.903 -23.255  0.00  0.00    +0.004 C 
ATOM     23  C   UNL     1      34.022 -15.727 -22.015  0.00  0.00    +0.000 C 
ENDBRANCH  17  18
ENDBRANCH   4  17
TORSDOF 3
ENDMDL
MODEL 7
REMARK VINA RESULT:      -7.7      1.991      4.871
REMARK  Name = 448729
REMARK  3 active torsions:
REMARK  status: ('A' for Active; 'I' for Inactive)
REMARK    1  A    between atoms: C_4  and  O_17
REMARK    2  A    between atoms: C_5  and  C_14
REMARK    3  A    between atoms: O_17  and  C_18
REMARK                            x       y       z     vdW  Elec       q    Type
REMARK                         _______ _______ _______ _____ _____    ______ ____
ROOT
ATOM      1 CL   UNL     1      30.814 -23.781 -12.528  0.00  0.00    -0.082 Cl
ATOM      2  O   UNL     1      34.382 -22.421 -19.544  0.00  0.00    -0.267 OA
ATOM      3  N   UNL     1      32.735 -22.939 -18.044  0.00  0.00    -0.321 N 
ATOM      4  C   UNL     1      34.629 -22.786 -15.993  0.00  0.00    +0.140 A 
ATOM      5  C   UNL     1      35.024 -22.560 -17.259  0.00  0.00    +0.067 A 
ATOM      6  C   UNL     1      33.219 -23.080 -15.669  0.00  0.00    +0.050 A 
ATOM      7  C   UNL     1      32.303 -23.161 -16.727  0.00  0.00    +0.062 A 
ATOM      8  C   UNL     1      34.034 -22.629 -18.383  0.00  0.00    +0.256 A 
ATOM      9  C   UNL     1      32.733 -23.265 -14.365  0.00  0.00    +0.016 C 
ATOM     10  C   UNL     1      30.951 -23.444 -16.502  0.00  0.00    +0.018 C 
ATOM     11  C   UNL     1      31.382 -23.546 -14.137  0.00  0.00    +0.058 C 
ATOM     12  C   UNL     1      30.493 -23.639 -15.203  0.00  0.00    +0.013 C 
ATOM     13  H   UNL     1      32.072 -23.011 -18.768  0.00  0.00    +0.169 HD
ENDROOT
BRANCH   5  14
ATOM     14  C   UNL     1      36.436 -22.239 -17.658  0.00  0.00    +0.030 C 
ATOM     15  C   UNL     1      36.443 -21.291 -18.850  0.00  0.00    +0.005 C 
ATOM     16  C   UNL     1      37.207 -21.647 -16.483  0.00  0.00    +0.005 C 
ENDBRANCH   5  14
BRANCH   4  17
ATOM     17  O   UNL     1      35.553 -22.717 -14.964  0.00  0.00    -0.479 OA
BRANCH  17  18
ATOM     18  C   UNL     1      35.635 -23.962 -14.279  0.00  0.00    +0.166 C 
ATOM     19  C   UNL     1      36.622 -24.879 -14.999  0.00  0.00    +0.044 C 
ATOM     20  C   UNL     1      36.047 -23.722 -12.827  0.00  0.00    +0.044 C 
ATOM     21  C   UNL     1      36.819 -26.191 -14.249  0.00  0.00    +0.004 C 
ATOM     22  C   UNL     1      36.245 -25.035 -12.076  0.00  0.00    +0.004 C 
ATOM     23  C   UNL     1      37.229 -25.953 -12.797  0.00  0.00    +0.000 C 
ENDBRANCH  17  18
ENDBRANCH   4  17
TORSDOF 3
ENDMDL
MODEL 8
REMARK VINA RESULT:      -7.7      6.369      9.745
REMARK  Name = 448729
REMARK  3 active torsions:
REMARK  status: ('A' for Active; 'I' for Inactive)
REMARK    1  A    between atoms: C_4  and  O_17
REMARK    2  A    between atoms: C_5  and  C_14
REMARK    3  A    between atoms: O_17  and  C_18
REMARK                            x       y       z     vdW  Elec       q    Type
REMARK                         _______ _______ _______ _____ _____    ______ ____
ROOT
ATOM      1 CL   UNL     1      31.953 -12.505 -19.928  0.00  0.00    -0.082 Cl
ATOM      2  O   UNL     1      34.805 -17.209 -25.720  0.00  0.00    -0.267 OA
ATOM      3  N   UNL     1      33.762 -15.436 -24.720  0.00  0.00    -0.321 N 
ATOM      4  C   UNL     1      34.170 -16.663 -22.241  0.00  0.00    +0.140 A 
ATOM      5  C   UNL     1      34.605 -17.284 -23.352  0.00  0.00    +0.067 A 
ATOM      6  C   UNL     1      33.514 -15.342 -22.307  0.00  0.00    +0.050 A 
ATOM      7  C   UNL     1      33.317 -14.766 -23.569  0.00  0.00    +0.062 A 
ATOM      8  C   UNL     1      34.409 -16.652 -24.698  0.00  0.00    +0.256 A 
ATOM      9  C   UNL     1      33.092 -14.616 -21.182  0.00  0.00    +0.016 C 
ATOM     10  C   UNL     1      32.695 -13.521 -23.715  0.00  0.00    +0.018 C 
ATOM     11  C   UNL     1      32.472 -13.370 -21.324  0.00  0.00    +0.058 C 
ATOM     12  C   UNL     1      32.271 -12.825 -22.588  0.00  0.00    +0.013 C 
ATOM     13  H   UNL     1      33.603 -15.012 -25.594  0.00  0.00    +0.169 HD
ENDROOT
BRANCH   5  14
ATOM     14  C   UNL     1      35.295 -18.619 -23.358  0.00  0.00    +0.030 C 
ATOM     15  C   UNL     1      34.904 -19.408 -24.601  0.00  0.00    +0.005 C 
ATOM     16  C   UNL     1      36.807 -18.445 -23.273  0.00  0.00    +0.005 C 
ENDBRANCH   5  14
BRANCH   4  17
ATOM     17  O   UNL     1      34.360 -17.256 -21.005  0.00  0.00    -0.479 OA
BRANCH  17  18
ATOM     18  C   UNL     1      34.211 -18.669 -21.097  0.00  0.00    +0.166 C 
ATOM     19  C   UNL     1      35.334 -19.355 -20.319  0.00  0.00    +0.044 C 
ATOM     20  C   UNL     1      32.834 -19.075 -20.572  0.00  0.00    +0.044 C 
ATOM     21  C   UNL     1      35.163 -20.870 -20.306  0.00  0.00    +0.004 C 
ATOM     22  C   UNL     1      32.663 -20.590 -20.559  0.00  0.00    +0.004 C 
ATOM     23  C   UNL     1      33.786 -21.276 -19.784  0.00  0.00    +0.000 C 
ENDBRANCH  17  18
ENDBRANCH   4  17
TORSDOF 3
ENDMDL
MODEL 9
REMARK VINA RESULT:      -7.6     10.026     13.151
REMARK  Name = 448729
REMARK  3 active torsions:
REMARK  status: ('A' for Active; 'I' for Inactive)
REMARK    1  A    between atoms: C_4  and  O_17
REMARK    2  A    between atoms: C_5  and  C_14
REMARK    3  A    between atoms: O_17  and  C_18
REMARK                            x       y       z     vdW  Elec       q    Type
REMARK                         _______ _______ _______ _____ _____    ______ ____
ROOT
ATOM      1 CL   UNL     1      31.892 -12.168 -19.576  0.00  0.00    -0.082 Cl
ATOM      2  O   UNL     1      34.088 -16.306 -26.047  0.00  0.00    -0.267 OA
ATOM      3  N   UNL     1      33.690 -15.824 -23.847  0.00  0.00    -0.321 N 
ATOM      4  C   UNL     1      32.996 -13.221 -24.599  0.00  0.00    +0.140 A 
ATOM      5  C   UNL     1      33.372 -14.094 -25.551  0.00  0.00    +0.067 A 
ATOM      6  C   UNL     1      32.914 -13.621 -23.180  0.00  0.00    +0.050 A 
ATOM      7  C   UNL     1      33.283 -14.931 -22.842  0.00  0.00    +0.062 A 
ATOM      8  C   UNL     1      33.746 -15.499 -25.184  0.00  0.00    +0.256 A 
ATOM      9  C   UNL     1      32.473 -12.778 -22.149  0.00  0.00    +0.016 C 
ATOM     10  C   UNL     1      33.241 -15.383 -21.518  0.00  0.00    +0.018 C 
ATOM     11  C   UNL     1      32.428 -13.227 -20.825  0.00  0.00    +0.058 C 
ATOM     12  C   UNL     1      32.814 -14.526 -20.509  0.00  0.00    +0.013 C 
ATOM     13  H   UNL     1      33.951 -16.734 -23.579  0.00  0.00    +0.169 HD
ENDROOT
BRANCH   5  14
ATOM     14  C   UNL     1      33.461 -13.760 -27.014  0.00  0.00    +0.030 C 
ATOM     15  C   UNL     1      32.126 -13.221 -27.512  0.00  0.00    +0.005 C 
ATOM     16  C   UNL     1      34.585 -12.763 -27.272  0.00  0.00    +0.005 C 
ENDBRANCH   5  14
BRANCH   4  17
ATOM     17  O   UNL     1      32.651 -11.928 -24.951  0.00  0.00    -0.479 OA
BRANCH  17  18
ATOM     18  C   UNL     1      33.415 -10.984 -24.208  0.00  0.00    +0.166 C 
ATOM     19  C   UNL     1      34.572 -10.471 -25.065  0.00  0.00    +0.044 C 
ATOM     20  C   UNL     1      32.510  -9.843 -23.744  0.00  0.00    +0.044 C 
ATOM     21  C   UNL     1      35.363  -9.385 -24.347  0.00  0.00    +0.004 C 
ATOM     22  C   UNL     1      33.303  -8.756 -23.025  0.00  0.00    +0.004 C 
ATOM     23  C   UNL     1      34.460  -8.245 -23.880  0.00  0.00    +0.000 C 
ENDBRANCH  17  18
ENDBRANCH   4  17
TORSDOF 3
ENDMDL
