MODEL 1
REMARK VINA RESULT:      -9.8      0.000      0.000
REMARK  Name = 4616
REMARK  2 active torsions:
REMARK  status: ('A' for Active; 'I' for Inactive)
REMARK    1  A    between atoms: C_6  and  C_15
REMARK    2  A    between atoms: C_8  and  O_21
REMARK                            x       y       z     vdW  Elec       q    Type
REMARK                         _______ _______ _______ _____ _____    ______ ____
ROOT
ATOM      1 CL   UNL     1      34.701 -21.446 -19.983  0.00  0.00    -0.082 Cl
ATOM      2  O   UNL     1      37.563 -24.392 -13.027  0.00  0.00    -0.270 OA
ATOM      3  N   UNL     1      37.188 -23.062 -14.846  0.00  0.00    -0.280 N 
ATOM      4  N   UNL     1      34.792 -24.882 -14.695  0.00  0.00    -0.235 NA
ATOM      5  C   UNL     1      35.236 -23.143 -16.387  0.00  0.00    +0.032 C 
ATOM      6  C   UNL     1      34.377 -23.918 -15.443  0.00  0.00    +0.080 C 
ATOM      7  C   UNL     1      36.515 -22.689 -16.027  0.00  0.00    +0.052 C 
ATOM      8  C   UNL     1      36.178 -25.306 -14.774  0.00  0.00    +0.295 C 
ATOM      9  C   UNL     1      34.690 -22.769 -17.626  0.00  0.00    +0.014 C 
ATOM     10  C   UNL     1      37.179 -21.782 -16.866  0.00  0.00    +0.016 C 
ATOM     11  C   UNL     1      37.010 -24.219 -14.115  0.00  0.00    +0.278 C 
ATOM     12  C   UNL     1      35.385 -21.905 -18.473  0.00  0.00    +0.058 C 
ATOM     13  C   UNL     1      36.621 -21.399 -18.086  0.00  0.00    +0.013 C 
ATOM     14  H   UNL     1      37.859 -22.428 -14.505  0.00  0.00    +0.155 HD
ENDROOT
BRANCH   6  15
ATOM     15  C   UNL     1      32.940 -23.545 -15.313  0.00  0.00    +0.017 C 
ATOM     16  C   UNL     1      32.378 -23.410 -14.050  0.00  0.00    +0.001 C 
ATOM     17  C   UNL     1      32.178 -23.336 -16.456  0.00  0.00    +0.001 C 
ATOM     18  C   UNL     1      31.033 -23.061 -13.927  0.00  0.00    +0.000 C 
ATOM     19  C   UNL     1      30.833 -22.986 -16.334  0.00  0.00    +0.000 C 
ATOM     20  C   UNL     1      30.260 -22.849 -15.069  0.00  0.00    +0.000 C 
ENDBRANCH   6  15
BRANCH   8  21
ATOM     21  O   UNL     1      36.469 -26.527 -14.097  0.00  0.00    -0.357 OA
ATOM     22  H   UNL     1      36.059 -26.515 -13.218  0.00  0.00    +0.213 HD
ENDBRANCH   8  21
TORSDOF 2
ENDMDL
MODEL 2
REMARK VINA RESULT:      -9.7      2.352      4.743
REMARK  Name = 4616
REMARK  2 active torsions:
REMARK  status: ('A' for Active; 'I' for Inactive)
REMARK    1  A    between atoms: C_6  and  C_15
REMARK    2  A    between atoms: C_8  and  O_21
REMARK                            x       y       z     vdW  Elec       q    Type
REMARK                         _______ _______ _______ _____ _____    ______ ____
ROOT
ATOM      1 CL   UNL     1      36.820 -21.337 -18.873  0.00  0.00    -0.082 Cl
ATOM      2  O   UNL     1      30.741 -24.469 -14.572  0.00  0.00    -0.270 OA
ATOM      3  N   UNL     1      32.067 -23.783 -16.300  0.00  0.00    -0.280 N 
ATOM      4  N   UNL     1      33.893 -23.896 -13.906  0.00  0.00    -0.235 NA
ATOM      5  C   UNL     1      34.487 -23.213 -16.200  0.00  0.00    +0.032 C 
ATOM      6  C   UNL     1      34.715 -23.907 -14.899  0.00  0.00    +0.080 C 
ATOM      7  C   UNL     1      33.249 -23.258 -16.861  0.00  0.00    +0.052 C 
ATOM      8  C   UNL     1      32.663 -23.131 -14.003  0.00  0.00    +0.295 C 
ATOM      9  C   UNL     1      35.585 -22.596 -16.824  0.00  0.00    +0.014 C 
ATOM     10  C   UNL     1      33.159 -22.781 -18.177  0.00  0.00    +0.016 C 
ATOM     11  C   UNL     1      31.751 -23.879 -14.960  0.00  0.00    +0.278 C 
ATOM     12  C   UNL     1      35.466 -22.081 -18.115  0.00  0.00    +0.058 C 
ATOM     13  C   UNL     1      34.259 -22.188 -18.798  0.00  0.00    +0.013 C 
ATOM     14  H   UNL     1      31.393 -24.118 -16.934  0.00  0.00    +0.155 HD
ENDROOT
BRANCH   6  15
ATOM     15  C   UNL     1      35.961 -24.708 -14.723  0.00  0.00    +0.017 C 
ATOM     16  C   UNL     1      37.024 -24.172 -14.007  0.00  0.00    +0.001 C 
ATOM     17  C   UNL     1      36.044 -25.980 -15.276  0.00  0.00    +0.001 C 
ATOM     18  C   UNL     1      38.190 -24.920 -13.842  0.00  0.00    +0.000 C 
ATOM     19  C   UNL     1      37.209 -26.728 -15.110  0.00  0.00    +0.000 C 
ATOM     20  C   UNL     1      38.283 -26.198 -14.392  0.00  0.00    +0.000 C 
ENDBRANCH   6  15
BRANCH   8  21
ATOM     21  O   UNL     1      31.953 -22.984 -12.775  0.00  0.00    -0.357 OA
ATOM     22  H   UNL     1      31.666 -23.856 -12.461  0.00  0.00    +0.213 HD
ENDBRANCH   8  21
TORSDOF 2
ENDMDL
MODEL 3
REMARK VINA RESULT:      -9.4      3.196      5.284
REMARK  Name = 4616
REMARK  2 active torsions:
REMARK  status: ('A' for Active; 'I' for Inactive)
REMARK    1  A    between atoms: C_6  and  C_15
REMARK    2  A    between atoms: C_8  and  O_21
REMARK                            x       y       z     vdW  Elec       q    Type
REMARK                         _______ _______ _______ _____ _____    ______ ____
ROOT
ATOM      1 CL   UNL     1      38.039 -25.960 -14.460  0.00  0.00    -0.082 Cl
ATOM      2  O   UNL     1      30.715 -22.587 -13.957  0.00  0.00    -0.270 OA
ATOM      3  N   UNL     1      32.833 -23.290 -13.473  0.00  0.00    -0.280 N 
ATOM      4  N   UNL     1      32.631 -23.415 -16.477  0.00  0.00    -0.235 NA
ATOM      5  C   UNL     1      34.572 -24.039 -15.088  0.00  0.00    +0.032 C 
ATOM      6  C   UNL     1      33.904 -23.420 -16.271  0.00  0.00    +0.080 C 
ATOM      7  C   UNL     1      34.078 -23.875 -13.784  0.00  0.00    +0.052 C 
ATOM      8  C   UNL     1      31.751 -24.084 -15.537  0.00  0.00    +0.295 C 
ATOM      9  C   UNL     1      35.792 -24.706 -15.290  0.00  0.00    +0.014 C 
ATOM     10  C   UNL     1      34.865 -24.287 -12.699  0.00  0.00    +0.016 C 
ATOM     11  C   UNL     1      31.716 -23.231 -14.280  0.00  0.00    +0.278 C 
ATOM     12  C   UNL     1      36.541 -25.154 -14.201  0.00  0.00    +0.058 C 
ATOM     13  C   UNL     1      36.086 -24.930 -12.906  0.00  0.00    +0.013 C 
ATOM     14  H   UNL     1      32.753 -22.880 -12.582  0.00  0.00    +0.155 HD
ENDROOT
BRANCH   6  15
ATOM     15  C   UNL     1      34.745 -22.720 -17.284  0.00  0.00    +0.017 C 
ATOM     16  C   UNL     1      34.236 -22.489 -18.556  0.00  0.00    +0.001 C 
ATOM     17  C   UNL     1      36.028 -22.307 -16.945  0.00  0.00    +0.001 C 
ATOM     18  C   UNL     1      35.022 -21.835 -19.504  0.00  0.00    +0.000 C 
ATOM     19  C   UNL     1      36.814 -21.652 -17.893  0.00  0.00    +0.000 C 
ATOM     20  C   UNL     1      36.311 -21.416 -19.173  0.00  0.00    +0.000 C 
ENDBRANCH   6  15
BRANCH   8  21
ATOM     21  O   UNL     1      30.404 -24.232 -15.981  0.00  0.00    -0.357 OA
ATOM     22  H   UNL     1      30.333 -25.022 -16.540  0.00  0.00    +0.213 HD
ENDBRANCH   8  21
TORSDOF 2
ENDMDL
MODEL 4
REMARK VINA RESULT:      -9.2      1.890      4.466
REMARK  Name = 4616
REMARK  2 active torsions:
REMARK  status: ('A' for Active; 'I' for Inactive)
REMARK    1  A    between atoms: C_6  and  C_15
REMARK    2  A    between atoms: C_8  and  O_21
REMARK                            x       y       z     vdW  Elec       q    Type
REMARK                         _______ _______ _______ _____ _____    ______ ____
ROOT
ATOM      1 CL   UNL     1      30.160 -22.416 -15.059  0.00  0.00    -0.082 Cl
ATOM      2  O   UNL     1      37.430 -25.489 -13.338  0.00  0.00    -0.270 OA
ATOM      3  N   UNL     1      35.187 -25.256 -13.693  0.00  0.00    -0.280 N 
ATOM      4  N   UNL     1      36.450 -22.893 -15.071  0.00  0.00    -0.235 NA
ATOM      5  C   UNL     1      34.044 -23.415 -14.917  0.00  0.00    +0.032 C 
ATOM      6  C   UNL     1      35.282 -22.955 -15.613  0.00  0.00    +0.080 C 
ATOM      7  C   UNL     1      34.032 -24.554 -14.095  0.00  0.00    +0.052 C 
ATOM      8  C   UNL     1      36.610 -23.248 -13.672  0.00  0.00    +0.295 C 
ATOM      9  C   UNL     1      32.840 -22.746 -15.194  0.00  0.00    +0.014 C 
ATOM     10  C   UNL     1      32.803 -25.063 -13.653  0.00  0.00    +0.016 C 
ATOM     11  C   UNL     1      36.468 -24.758 -13.581  0.00  0.00    +0.278 C 
ATOM     12  C   UNL     1      31.629 -23.238 -14.705  0.00  0.00    +0.058 C 
ATOM     13  C   UNL     1      31.609 -24.405 -13.949  0.00  0.00    +0.013 C 
ATOM     14  H   UNL     1      35.064 -26.206 -13.466  0.00  0.00    +0.155 HD
ENDROOT
BRANCH   6  15
ATOM     15  C   UNL     1      35.194 -22.567 -17.050  0.00  0.00    +0.017 C 
ATOM     16  C   UNL     1      36.255 -21.897 -17.646  0.00  0.00    +0.001 C 
ATOM     17  C   UNL     1      34.052 -22.879 -17.778  0.00  0.00    +0.001 C 
ATOM     18  C   UNL     1      36.173 -21.533 -18.989  0.00  0.00    +0.000 C 
ATOM     19  C   UNL     1      33.970 -22.516 -19.121  0.00  0.00    +0.000 C 
ATOM     20  C   UNL     1      35.031 -21.843 -19.728  0.00  0.00    +0.000 C 
ENDBRANCH   6  15
BRANCH   8  21
ATOM     21  O   UNL     1      37.877 -22.910 -13.112  0.00  0.00    -0.357 OA
ATOM     22  H   UNL     1      38.258 -23.691 -12.680  0.00  0.00    +0.213 HD
ENDBRANCH   8  21
TORSDOF 2
ENDMDL
MODEL 5
REMARK VINA RESULT:      -9.2      2.909      3.791
REMARK  Name = 4616
REMARK  2 active torsions:
REMARK  status: ('A' for Active; 'I' for Inactive)
REMARK    1  A    between atoms: C_6  and  C_15
REMARK    2  A    between atoms: C_8  and  O_21
REMARK                            x       y       z     vdW  Elec       q    Type
REMARK                         _______ _______ _______ _____ _____    ______ ____
ROOT
ATOM      1 CL   UNL     1      36.820 -27.779 -16.693  0.00  0.00    -0.082 Cl
ATOM      2  O   UNL     1      37.147 -22.684 -10.433  0.00  0.00    -0.270 OA
ATOM      3  N   UNL     1      37.663 -23.857 -12.323  0.00  0.00    -0.280 N 
ATOM      4  N   UNL     1      34.674 -24.107 -12.035  0.00  0.00    -0.235 NA
ATOM      5  C   UNL     1      36.090 -25.105 -13.792  0.00  0.00    +0.032 C 
ATOM      6  C   UNL     1      34.874 -24.412 -13.272  0.00  0.00    +0.080 C 
ATOM      7  C   UNL     1      37.383 -24.747 -13.380  0.00  0.00    +0.052 C 
ATOM      8  C   UNL     1      35.660 -24.481 -11.037  0.00  0.00    +0.295 C 
ATOM      9  C   UNL     1      35.925 -26.062 -14.807  0.00  0.00    +0.014 C 
ATOM     10  C   UNL     1      38.488 -25.274 -14.064  0.00  0.00    +0.016 C 
ATOM     11  C   UNL     1      36.860 -23.572 -11.238  0.00  0.00    +0.278 C 
ATOM     12  C   UNL     1      37.036 -26.615 -15.445  0.00  0.00    +0.058 C 
ATOM     13  C   UNL     1      38.316 -26.209 -15.085  0.00  0.00    +0.013 C 
ATOM     14  H   UNL     1      38.527 -23.387 -12.363  0.00  0.00    +0.155 HD
ENDROOT
BRANCH   6  15
ATOM     15  C   UNL     1      33.814 -24.003 -14.238  0.00  0.00    +0.017 C 
ATOM     16  C   UNL     1      32.477 -24.119 -13.879  0.00  0.00    +0.001 C 
ATOM     17  C   UNL     1      34.175 -23.510 -15.486  0.00  0.00    +0.001 C 
ATOM     18  C   UNL     1      31.486 -23.737 -14.782  0.00  0.00    +0.000 C 
ATOM     19  C   UNL     1      33.184 -23.127 -16.388  0.00  0.00    +0.000 C 
ATOM     20  C   UNL     1      31.838 -23.240 -16.036  0.00  0.00    +0.000 C 
ENDBRANCH   6  15
BRANCH   8  21
ATOM     21  O   UNL     1      35.232 -24.320  -9.686  0.00  0.00    -0.357 OA
ATOM     22  H   UNL     1      35.994 -24.410  -9.093  0.00  0.00    +0.213 HD
ENDBRANCH   8  21
TORSDOF 2
ENDMDL
MODEL 6
REMARK VINA RESULT:      -9.1     12.187     14.010
REMARK  Name = 4616
REMARK  2 active torsions:
REMARK  status: ('A' for Active; 'I' for Inactive)
REMARK    1  A    between atoms: C_6  and  C_15
REMARK    2  A    between atoms: C_8  and  O_21
REMARK                            x       y       z     vdW  Elec       q    Type
REMARK                         _______ _______ _______ _____ _____    ______ ____
ROOT
ATOM      1 CL   UNL     1      30.595 -11.169 -20.423  0.00  0.00    -0.082 Cl
ATOM      2  O   UNL     1      35.280 -11.365 -27.001  0.00  0.00    -0.270 OA
ATOM      3  N   UNL     1      34.271 -10.718 -25.058  0.00  0.00    -0.280 N 
ATOM      4  N   UNL     1      33.800 -13.689 -25.236  0.00  0.00    -0.235 NA
ATOM      5  C   UNL     1      33.017 -12.161 -23.464  0.00  0.00    +0.032 C 
ATOM      6  C   UNL     1      33.591 -13.435 -23.989  0.00  0.00    +0.080 C 
ATOM      7  C   UNL     1      33.435 -10.907 -23.938  0.00  0.00    +0.052 C 
ATOM      8  C   UNL     1      33.429 -12.707 -26.238  0.00  0.00    +0.295 C 
ATOM      9  C   UNL     1      32.120 -12.232 -22.386  0.00  0.00    +0.014 C 
ATOM     10  C   UNL     1      33.030  -9.750 -23.257  0.00  0.00    +0.016 C 
ATOM     11  C   UNL     1      34.429 -11.568 -26.133  0.00  0.00    +0.278 C 
ATOM     12  C   UNL     1      31.686 -11.068 -21.749  0.00  0.00    +0.058 C 
ATOM     13  C   UNL     1      32.154  -9.829 -22.173  0.00  0.00    +0.013 C 
ATOM     14  H   UNL     1      34.800  -9.888 -25.074  0.00  0.00    +0.155 HD
ENDROOT
BRANCH   6  15
ATOM     15  C   UNL     1      33.989 -14.495 -23.018  0.00  0.00    +0.017 C 
ATOM     16  C   UNL     1      34.195 -15.793 -23.467  0.00  0.00    +0.001 C 
ATOM     17  C   UNL     1      34.152 -14.172 -21.677  0.00  0.00    +0.001 C 
ATOM     18  C   UNL     1      34.568 -16.785 -22.560  0.00  0.00    +0.000 C 
ATOM     19  C   UNL     1      34.526 -15.162 -20.770  0.00  0.00    +0.000 C 
ATOM     20  C   UNL     1      34.734 -16.470 -21.211  0.00  0.00    +0.000 C 
ENDBRANCH   6  15
BRANCH   8  21
ATOM     21  O   UNL     1      33.472 -13.180 -27.583  0.00  0.00    -0.357 OA
ATOM     22  H   UNL     1      34.384 -13.142 -27.910  0.00  0.00    +0.213 HD
ENDBRANCH   8  21
TORSDOF 2
ENDMDL
MODEL 7
REMARK VINA RESULT:      -8.7     11.419     13.272
REMARK  Name = 4616
REMARK  2 active torsions:
REMARK  status: ('A' for Active; 'I' for Inactive)
REMARK    1  A    between atoms: C_6  and  C_15
REMARK    2  A    between atoms: C_8  and  O_21
REMARK                            x       y       z     vdW  Elec       q    Type
REMARK                         _______ _______ _______ _____ _____    ______ ____
ROOT
ATOM      1 CL   UNL     1      31.518 -11.521 -20.352  0.00  0.00    -0.082 Cl
ATOM      2  O   UNL     1      34.126 -13.456 -27.748  0.00  0.00    -0.270 OA
ATOM      3  N   UNL     1      33.710 -12.333 -25.804  0.00  0.00    -0.280 N 
ATOM      4  N   UNL     1      33.232 -15.236 -25.152  0.00  0.00    -0.235 NA
ATOM      5  C   UNL     1      32.977 -13.308 -23.635  0.00  0.00    +0.032 C 
ATOM      6  C   UNL     1      33.386 -14.698 -23.990  0.00  0.00    +0.080 C 
ATOM      7  C   UNL     1      33.231 -12.218 -24.483  0.00  0.00    +0.052 C 
ATOM      8  C   UNL     1      32.582 -14.483 -26.209  0.00  0.00    +0.295 C 
ATOM      9  C   UNL     1      32.426 -13.083 -22.362  0.00  0.00    +0.014 C 
ATOM     10  C   UNL     1      33.029 -10.916 -24.002  0.00  0.00    +0.016 C 
ATOM     11  C   UNL     1      33.561 -13.410 -26.654  0.00  0.00    +0.278 C 
ATOM     12  C   UNL     1      32.183 -11.783 -21.916  0.00  0.00    +0.058 C 
ATOM     13  C   UNL     1      32.500 -10.700 -22.729  0.00  0.00    +0.013 C 
ATOM     14  H   UNL     1      34.206 -11.560 -26.159  0.00  0.00    +0.155 HD
ENDROOT
BRANCH   6  15
ATOM     15  C   UNL     1      34.055 -15.536 -22.953  0.00  0.00    +0.017 C 
ATOM     16  C   UNL     1      34.773 -16.660 -23.338  0.00  0.00    +0.001 C 
ATOM     17  C   UNL     1      33.952 -15.182 -21.613  0.00  0.00    +0.001 C 
ATOM     18  C   UNL     1      35.399 -17.444 -22.369  0.00  0.00    +0.000 C 
ATOM     19  C   UNL     1      34.578 -15.964 -20.644  0.00  0.00    +0.000 C 
ATOM     20  C   UNL     1      35.302 -17.096 -21.021  0.00  0.00    +0.000 C 
ENDBRANCH   6  15
BRANCH   8  21
ATOM     21  O   UNL     1      32.243 -15.247 -27.365  0.00  0.00    -0.357 OA
ATOM     22  H   UNL     1      32.750 -16.074 -27.366  0.00  0.00    +0.213 HD
ENDBRANCH   8  21
TORSDOF 2
ENDMDL
MODEL 8
REMARK VINA RESULT:      -8.6     11.654     13.763
REMARK  Name = 4616
REMARK  2 active torsions:
REMARK  status: ('A' for Active; 'I' for Inactive)
REMARK    1  A    between atoms: C_6  and  C_15
REMARK    2  A    between atoms: C_8  and  O_21
REMARK                            x       y       z     vdW  Elec       q    Type
REMARK                         _______ _______ _______ _____ _____    ______ ____
ROOT
ATOM      1 CL   UNL     1      34.623 -16.874 -25.037  0.00  0.00    -0.082 Cl
ATOM      2  O   UNL     1      31.807 -11.704 -19.505  0.00  0.00    -0.270 OA
ATOM      3  N   UNL     1      32.939 -13.401 -20.532  0.00  0.00    -0.280 N 
ATOM      4  N   UNL     1      32.072 -11.573 -22.764  0.00  0.00    -0.235 NA
ATOM      5  C   UNL     1      33.324 -13.687 -22.973  0.00  0.00    +0.032 C 
ATOM      6  C   UNL     1      33.014 -12.265 -23.305  0.00  0.00    +0.080 C 
ATOM      7  C   UNL     1      33.362 -14.151 -21.648  0.00  0.00    +0.052 C 
ATOM      8  C   UNL     1      31.198 -12.193 -21.784  0.00  0.00    +0.295 C 
ATOM      9  C   UNL     1      33.697 -14.547 -24.020  0.00  0.00    +0.014 C 
ATOM     10  C   UNL     1      33.874 -15.430 -21.387  0.00  0.00    +0.016 C 
ATOM     11  C   UNL     1      32.015 -12.377 -20.517  0.00  0.00    +0.278 C 
ATOM     12  C   UNL     1      34.158 -15.835 -23.747  0.00  0.00    +0.058 C 
ATOM     13  C   UNL     1      34.262 -16.271 -22.430  0.00  0.00    +0.013 C 
ATOM     14  H   UNL     1      33.347 -13.635 -19.667  0.00  0.00    +0.155 HD
ENDROOT
BRANCH   6  15
ATOM     15  C   UNL     1      33.865 -11.562 -24.308  0.00  0.00    +0.017 C 
ATOM     16  C   UNL     1      34.500 -10.378 -23.959  0.00  0.00    +0.001 C 
ATOM     17  C   UNL     1      34.013 -12.100 -25.581  0.00  0.00    +0.001 C 
ATOM     18  C   UNL     1      35.296  -9.719 -24.896  0.00  0.00    +0.000 C 
ATOM     19  C   UNL     1      34.810 -11.443 -26.518  0.00  0.00    +0.000 C 
ATOM     20  C   UNL     1      35.451 -10.252 -26.175  0.00  0.00    +0.000 C 
ENDBRANCH   6  15
BRANCH   8  21
ATOM     21  O   UNL     1      30.049 -11.424 -21.436  0.00  0.00    -0.357 OA
ATOM     22  H   UNL     1      30.213 -10.958 -20.602  0.00  0.00    +0.213 HD
ENDBRANCH   8  21
TORSDOF 2
ENDMDL
MODEL 9
REMARK VINA RESULT:      -8.6     14.659     16.318
REMARK  Name = 4616
REMARK  2 active torsions:
REMARK  status: ('A' for Active; 'I' for Inactive)
REMARK    1  A    between atoms: C_6  and  C_15
REMARK    2  A    between atoms: C_8  and  O_21
REMARK                            x       y       z     vdW  Elec       q    Type
REMARK                         _______ _______ _______ _____ _____    ______ ____
ROOT
ATOM      1 CL   UNL     1      31.109 -10.617 -18.647  0.00  0.00    -0.082 Cl
ATOM      2  O   UNL     1      34.101 -11.681 -26.075  0.00  0.00    -0.270 OA
ATOM      3  N   UNL     1      32.882 -11.913 -24.158  0.00  0.00    -0.280 N 
ATOM      4  N   UNL     1      33.975  -9.107 -24.059  0.00  0.00    -0.235 NA
ATOM      5  C   UNL     1      32.571 -10.219 -22.363  0.00  0.00    +0.032 C 
ATOM      6  C   UNL     1      33.003  -9.070 -23.213  0.00  0.00    +0.080 C 
ATOM      7  C   UNL     1      32.446 -11.519 -22.876  0.00  0.00    +0.052 C 
ATOM      8  C   UNL     1      34.759 -10.321 -24.198  0.00  0.00    +0.295 C 
ATOM      9  C   UNL     1      32.173  -9.953 -21.042  0.00  0.00    +0.014 C 
ATOM     10  C   UNL     1      31.826 -12.505 -22.095  0.00  0.00    +0.016 C 
ATOM     11  C   UNL     1      33.882 -11.334 -24.913  0.00  0.00    +0.278 C 
ATOM     12  C   UNL     1      31.603 -10.958 -20.260  0.00  0.00    +0.058 C 
ATOM     13  C   UNL     1      31.414 -12.229 -20.791  0.00  0.00    +0.013 C 
ATOM     14  H   UNL     1      32.424 -12.687 -24.558  0.00  0.00    +0.155 HD
ENDROOT
BRANCH   6  15
ATOM     15  C   UNL     1      32.249  -7.787 -23.120  0.00  0.00    +0.017 C 
ATOM     16  C   UNL     1      32.596  -6.856 -22.149  0.00  0.00    +0.001 C 
ATOM     17  C   UNL     1      31.209  -7.536 -24.006  0.00  0.00    +0.001 C 
ATOM     18  C   UNL     1      31.892  -5.656 -22.062  0.00  0.00    +0.000 C 
ATOM     19  C   UNL     1      30.505  -6.335 -23.920  0.00  0.00    +0.000 C 
ATOM     20  C   UNL     1      30.847  -5.395 -22.947  0.00  0.00    +0.000 C 
ENDBRANCH   6  15
BRANCH   8  21
ATOM     21  O   UNL     1      35.950 -10.178 -24.969  0.00  0.00    -0.357 OA
ATOM     22  H   UNL     1      35.734 -10.242 -25.912  0.00  0.00    +0.213 HD
ENDBRANCH   8  21
TORSDOF 2
ENDMDL
