MODEL 1
REMARK VINA RESULT:      -8.0      0.000      0.000
REMARK  Name = 444635
REMARK  7 active torsions:
REMARK  status: ('A' for Active; 'I' for Inactive)
REMARK    1  A    between atoms: C_2  and  O_13
REMARK    2  A    between atoms: C_3  and  O_7
REMARK    3  A    between atoms: C_4  and  O_9
REMARK    4  A    between atoms: C_5  and  C_18
REMARK    5  A    between atoms: C_6  and  O_11
REMARK    6  A    between atoms: O_13  and  S_14
REMARK    7  A    between atoms: C_18  and  O_19
REMARK                            x       y       z     vdW  Elec       q    Type
REMARK                         _______ _______ _______ _____ _____    ______ ____
ROOT
ATOM      1  O   UNL     1      35.774 -23.296 -12.683  0.00  0.00    -0.326 OA
ATOM      2  C   UNL     1      38.082 -24.806 -13.468  0.00  0.00    +0.208 C 
ATOM      3  C   UNL     1      37.796 -24.459 -12.007  0.00  0.00    +0.172 C 
ATOM      4  C   UNL     1      37.417 -23.803 -14.411  0.00  0.00    +0.199 C 
ATOM      5  C   UNL     1      36.285 -24.299 -11.798  0.00  0.00    +0.176 C 
ATOM      6  C   UNL     1      35.937 -23.629 -14.061  0.00  0.00    +0.262 C 
ENDROOT
BRANCH   3   7
ATOM      7  O   UNL     1      38.444 -23.230 -11.671  0.00  0.00    -0.379 OA
ATOM      8  H   UNL     1      38.845 -23.306 -10.792  0.00  0.00    +0.211 HD
ENDBRANCH   3   7
BRANCH   4   9
ATOM      9  O   UNL     1      37.511 -24.284 -15.752  0.00  0.00    -0.377 OA
ATOM     10  H   UNL     1      38.142 -23.738 -16.247  0.00  0.00    +0.211 HD
ENDBRANCH   4   9
BRANCH   6  11
ATOM     11  O   UNL     1      35.415 -22.580 -14.876  0.00  0.00    -0.358 OA
ATOM     12  H   UNL     1      36.145 -22.130 -15.331  0.00  0.00    +0.213 HD
ENDBRANCH   6  11
BRANCH   2  13
ATOM     13  O   UNL     1      39.486 -24.811 -13.705  0.00  0.00    -0.198 OA
BRANCH  13  14
ATOM     14  S   UNL     1      40.158 -26.035 -14.551  0.00  0.00    +0.239 S 
ATOM     15  O   UNL     1      38.939 -27.107 -14.710  0.00  0.00    -0.116 OA
ATOM     16  O   UNL     1      40.469 -25.529 -15.875  0.00  0.00    -0.116 OA
ATOM     17  O   UNL     1      41.195 -26.654 -13.746  0.00  0.00    -0.022 OA
ENDBRANCH  13  14
ENDBRANCH   2  13
BRANCH   5  18
ATOM     18  C   UNL     1      35.939 -23.872 -10.376  0.00  0.00    +0.169 C 
BRANCH  18  19
ATOM     19  O   UNL     1      35.264 -24.939  -9.735  0.00  0.00    -0.379 OA
ATOM     20  H   UNL     1      35.477 -25.773 -10.184  0.00  0.00    +0.211 HD
ENDBRANCH  18  19
ENDBRANCH   5  18
TORSDOF 7
ENDMDL
MODEL 2
REMARK VINA RESULT:      -7.9      1.420      3.452
REMARK  Name = 444635
REMARK  7 active torsions:
REMARK  status: ('A' for Active; 'I' for Inactive)
REMARK    1  A    between atoms: C_2  and  O_13
REMARK    2  A    between atoms: C_3  and  O_7
REMARK    3  A    between atoms: C_4  and  O_9
REMARK    4  A    between atoms: C_5  and  C_18
REMARK    5  A    between atoms: C_6  and  O_11
REMARK    6  A    between atoms: O_13  and  S_14
REMARK    7  A    between atoms: C_18  and  O_19
REMARK                            x       y       z     vdW  Elec       q    Type
REMARK                         _______ _______ _______ _____ _____    ______ ____
ROOT
ATOM      1  O   UNL     1      35.466 -23.968 -13.719  0.00  0.00    -0.326 OA
ATOM      2  C   UNL     1      38.117 -25.061 -13.729  0.00  0.00    +0.208 C 
ATOM      3  C   UNL     1      37.494 -24.428 -14.974  0.00  0.00    +0.172 C 
ATOM      4  C   UNL     1      37.038 -25.573 -12.775  0.00  0.00    +0.199 C 
ATOM      5  C   UNL     1      36.464 -23.372 -14.558  0.00  0.00    +0.176 C 
ATOM      6  C   UNL     1      35.996 -24.486 -12.501  0.00  0.00    +0.262 C 
ENDROOT
BRANCH   3   7
ATOM      7  O   UNL     1      36.841 -25.438 -15.747  0.00  0.00    -0.379 OA
ATOM      8  H   UNL     1      35.981 -25.107 -16.049  0.00  0.00    +0.211 HD
ENDBRANCH   3   7
BRANCH   4   9
ATOM      9  O   UNL     1      37.644 -25.943 -11.536  0.00  0.00    -0.377 OA
ATOM     10  H   UNL     1      36.965 -26.294 -10.937  0.00  0.00    +0.211 HD
ENDBRANCH   4   9
BRANCH   6  11
ATOM     11  O   UNL     1      34.948 -25.070 -11.728  0.00  0.00    -0.358 OA
ATOM     12  H   UNL     1      34.952 -26.033 -11.853  0.00  0.00    +0.213 HD
ENDBRANCH   6  11
BRANCH   2  13
ATOM     13  O   UNL     1      38.966 -26.142 -14.101  0.00  0.00    -0.198 OA
BRANCH  13  14
ATOM     14  S   UNL     1      40.514 -25.845 -14.526  0.00  0.00    +0.239 S 
ATOM     15  O   UNL     1      41.351 -27.031 -13.781  0.00  0.00    -0.116 OA
ATOM     16  O   UNL     1      40.624 -26.066 -15.956  0.00  0.00    -0.116 OA
ATOM     17  O   UNL     1      40.928 -24.578 -13.951  0.00  0.00    -0.022 OA
ENDBRANCH  13  14
ENDBRANCH   2  13
BRANCH   5  18
ATOM     18  C   UNL     1      35.745 -22.760 -15.755  0.00  0.00    +0.169 C 
BRANCH  18  19
ATOM     19  O   UNL     1      36.630 -22.758 -16.861  0.00  0.00    -0.379 OA
ATOM     20  H   UNL     1      37.524 -22.983 -16.560  0.00  0.00    +0.211 HD
ENDBRANCH  18  19
ENDBRANCH   5  18
TORSDOF 7
ENDMDL
MODEL 3
REMARK VINA RESULT:      -7.5      1.583      3.547
REMARK  Name = 444635
REMARK  7 active torsions:
REMARK  status: ('A' for Active; 'I' for Inactive)
REMARK    1  A    between atoms: C_2  and  O_13
REMARK    2  A    between atoms: C_3  and  O_7
REMARK    3  A    between atoms: C_4  and  O_9
REMARK    4  A    between atoms: C_5  and  C_18
REMARK    5  A    between atoms: C_6  and  O_11
REMARK    6  A    between atoms: O_13  and  S_14
REMARK    7  A    between atoms: C_18  and  O_19
REMARK                            x       y       z     vdW  Elec       q    Type
REMARK                         _______ _______ _______ _____ _____    ______ ____
ROOT
ATOM      1  O   UNL     1      34.697 -24.539 -12.932  0.00  0.00    -0.326 OA
ATOM      2  C   UNL     1      37.394 -24.908 -13.831  0.00  0.00    +0.208 C 
ATOM      3  C   UNL     1      36.214 -24.854 -14.802  0.00  0.00    +0.172 C 
ATOM      4  C   UNL     1      36.941 -25.351 -12.440  0.00  0.00    +0.199 C 
ATOM      5  C   UNL     1      35.088 -24.004 -14.202  0.00  0.00    +0.176 C 
ATOM      6  C   UNL     1      35.747 -24.518 -11.967  0.00  0.00    +0.262 C 
ENDROOT
BRANCH   3   7
ATOM      7  O   UNL     1      35.725 -26.177 -15.034  0.00  0.00    -0.379 OA
ATOM      8  H   UNL     1      34.795 -26.135 -15.302  0.00  0.00    +0.211 HD
ENDBRANCH   3   7
BRANCH   4   9
ATOM      9  O   UNL     1      38.015 -25.169 -11.516  0.00  0.00    -0.377 OA
ATOM     10  H   UNL     1      38.845 -25.053 -12.005  0.00  0.00    +0.211 HD
ENDBRANCH   4   9
BRANCH   6  11
ATOM     11  O   UNL     1      35.285 -25.075 -10.738  0.00  0.00    -0.358 OA
ATOM     12  H   UNL     1      36.043 -25.385 -10.217  0.00  0.00    +0.213 HD
ENDBRANCH   6  11
BRANCH   2  13
ATOM     13  O   UNL     1      38.384 -25.812 -14.312  0.00  0.00    -0.198 OA
BRANCH  13  14
ATOM     14  S   UNL     1      39.851 -25.246 -14.752  0.00  0.00    +0.239 S 
ATOM     15  O   UNL     1      39.504 -23.892 -15.593  0.00  0.00    -0.116 OA
ATOM     16  O   UNL     1      40.542 -24.843 -13.541  0.00  0.00    -0.116 OA
ATOM     17  O   UNL     1      40.470 -26.192 -15.663  0.00  0.00    -0.022 OA
ENDBRANCH  13  14
ENDBRANCH   2  13
BRANCH   5  18
ATOM     18  C   UNL     1      33.847 -23.977 -15.087  0.00  0.00    +0.169 C 
BRANCH  18  19
ATOM     19  O   UNL     1      34.259 -23.925 -16.441  0.00  0.00    -0.379 OA
ATOM     20  H   UNL     1      34.595 -24.794 -16.711  0.00  0.00    +0.211 HD
ENDBRANCH  18  19
ENDBRANCH   5  18
TORSDOF 7
ENDMDL
MODEL 4
REMARK VINA RESULT:      -7.0      2.239      4.967
REMARK  Name = 444635
REMARK  7 active torsions:
REMARK  status: ('A' for Active; 'I' for Inactive)
REMARK    1  A    between atoms: C_2  and  O_13
REMARK    2  A    between atoms: C_3  and  O_7
REMARK    3  A    between atoms: C_4  and  O_9
REMARK    4  A    between atoms: C_5  and  C_18
REMARK    5  A    between atoms: C_6  and  O_11
REMARK    6  A    between atoms: O_13  and  S_14
REMARK    7  A    between atoms: C_18  and  O_19
REMARK                            x       y       z     vdW  Elec       q    Type
REMARK                         _______ _______ _______ _____ _____    ______ ____
ROOT
ATOM      1  O   UNL     1      39.229 -24.357 -12.907  0.00  0.00    -0.326 OA
ATOM      2  C   UNL     1      36.934 -24.442 -14.622  0.00  0.00    +0.208 C 
ATOM      3  C   UNL     1      38.309 -24.927 -15.081  0.00  0.00    +0.172 C 
ATOM      4  C   UNL     1      37.061 -23.415 -13.497  0.00  0.00    +0.199 C 
ATOM      5  C   UNL     1      39.117 -25.410 -13.871  0.00  0.00    +0.176 C 
ATOM      6  C   UNL     1      37.969 -23.940 -12.383  0.00  0.00    +0.262 C 
ENDROOT
BRANCH   3   7
ATOM      7  O   UNL     1      39.010 -23.852 -15.710  0.00  0.00    -0.379 OA
ATOM      8  H   UNL     1      38.541 -23.589 -16.517  0.00  0.00    +0.211 HD
ENDBRANCH   3   7
BRANCH   4   9
ATOM      9  O   UNL     1      35.768 -23.160 -12.945  0.00  0.00    -0.377 OA
ATOM     10  H   UNL     1      35.112 -23.723 -13.387  0.00  0.00    +0.211 HD
ENDBRANCH   4   9
BRANCH   6  11
ATOM     11  O   UNL     1      38.163 -22.885 -11.442  0.00  0.00    -0.358 OA
ATOM     12  H   UNL     1      37.404 -22.847 -10.839  0.00  0.00    +0.213 HD
ENDBRANCH   6  11
BRANCH   2  13
ATOM     13  O   UNL     1      36.232 -23.856 -15.715  0.00  0.00    -0.198 OA
BRANCH  13  14
ATOM     14  S   UNL     1      34.600 -23.911 -15.749  0.00  0.00    +0.239 S 
ATOM     15  O   UNL     1      34.154 -22.478 -15.108  0.00  0.00    -0.116 OA
ATOM     16  O   UNL     1      34.194 -23.911 -17.142  0.00  0.00    -0.116 OA
ATOM     17  O   UNL     1      34.143 -24.960 -14.857  0.00  0.00    -0.022 OA
ENDBRANCH  13  14
ENDBRANCH   2  13
BRANCH   5  18
ATOM     18  C   UNL     1      40.532 -25.833 -14.251  0.00  0.00    +0.169 C 
BRANCH  18  19
ATOM     19  O   UNL     1      40.561 -26.126 -15.636  0.00  0.00    -0.379 OA
ATOM     20  H   UNL     1      40.392 -27.072 -15.769  0.00  0.00    +0.211 HD
ENDBRANCH  18  19
ENDBRANCH   5  18
TORSDOF 7
ENDMDL
MODEL 5
REMARK VINA RESULT:      -6.9      3.242      4.909
REMARK  Name = 444635
REMARK  7 active torsions:
REMARK  status: ('A' for Active; 'I' for Inactive)
REMARK    1  A    between atoms: C_2  and  O_13
REMARK    2  A    between atoms: C_3  and  O_7
REMARK    3  A    between atoms: C_4  and  O_9
REMARK    4  A    between atoms: C_5  and  C_18
REMARK    5  A    between atoms: C_6  and  O_11
REMARK    6  A    between atoms: O_13  and  S_14
REMARK    7  A    between atoms: C_18  and  O_19
REMARK                            x       y       z     vdW  Elec       q    Type
REMARK                         _______ _______ _______ _____ _____    ______ ____
ROOT
ATOM      1  O   UNL     1      32.938 -23.958 -15.553  0.00  0.00    -0.326 OA
ATOM      2  C   UNL     1      34.487 -24.170 -13.150  0.00  0.00    +0.208 C 
ATOM      3  C   UNL     1      32.959 -24.232 -13.140  0.00  0.00    +0.172 C 
ATOM      4  C   UNL     1      34.998 -23.409 -14.373  0.00  0.00    +0.199 C 
ATOM      5  C   UNL     1      32.454 -24.777 -14.481  0.00  0.00    +0.176 C 
ATOM      6  C   UNL     1      34.361 -23.951 -15.655  0.00  0.00    +0.262 C 
ENDROOT
BRANCH   3   7
ATOM      7  O   UNL     1      32.428 -22.920 -12.941  0.00  0.00    -0.379 OA
ATOM      8  H   UNL     1      31.545 -22.985 -12.546  0.00  0.00    +0.211 HD
ENDBRANCH   3   7
BRANCH   4   9
ATOM      9  O   UNL     1      36.414 -23.569 -14.468  0.00  0.00    -0.377 OA
ATOM     10  H   UNL     1      36.833 -22.697 -14.543  0.00  0.00    +0.211 HD
ENDBRANCH   4   9
BRANCH   6  11
ATOM     11  O   UNL     1      34.763 -23.108 -16.734  0.00  0.00    -0.358 OA
ATOM     12  H   UNL     1      34.732 -23.610 -17.564  0.00  0.00    +0.213 HD
ENDBRANCH   6  11
BRANCH   2  13
ATOM     13  O   UNL     1      34.959 -23.530 -11.968  0.00  0.00    -0.198 OA
BRANCH  13  14
ATOM     14  S   UNL     1      36.101 -24.258 -11.057  0.00  0.00    +0.239 S 
ATOM     15  O   UNL     1      35.333 -24.563  -9.650  0.00  0.00    -0.116 OA
ATOM     16  O   UNL     1      36.403 -25.535 -11.675  0.00  0.00    -0.116 OA
ATOM     17  O   UNL     1      37.166 -23.309 -10.787  0.00  0.00    -0.022 OA
ENDBRANCH  13  14
ENDBRANCH   2  13
BRANCH   5  18
ATOM     18  C   UNL     1      30.932 -24.787 -14.567  0.00  0.00    +0.169 C 
BRANCH  18  19
ATOM     19  O   UNL     1      30.408 -25.034 -13.275  0.00  0.00    -0.379 OA
ATOM     20  H   UNL     1      31.138 -25.157 -12.648  0.00  0.00    +0.211 HD
ENDBRANCH  18  19
ENDBRANCH   5  18
TORSDOF 7
ENDMDL
MODEL 6
REMARK VINA RESULT:      -6.8      3.200      5.904
REMARK  Name = 444635
REMARK  7 active torsions:
REMARK  status: ('A' for Active; 'I' for Inactive)
REMARK    1  A    between atoms: C_2  and  O_13
REMARK    2  A    between atoms: C_3  and  O_7
REMARK    3  A    between atoms: C_4  and  O_9
REMARK    4  A    between atoms: C_5  and  C_18
REMARK    5  A    between atoms: C_6  and  O_11
REMARK    6  A    between atoms: O_13  and  S_14
REMARK    7  A    between atoms: C_18  and  O_19
REMARK                            x       y       z     vdW  Elec       q    Type
REMARK                         _______ _______ _______ _____ _____    ______ ____
ROOT
ATOM      1  O   UNL     1      37.330 -25.442 -13.217  0.00  0.00    -0.326 OA
ATOM      2  C   UNL     1      34.646 -24.640 -13.830  0.00  0.00    +0.208 C 
ATOM      3  C   UNL     1      35.561 -25.283 -14.873  0.00  0.00    +0.172 C 
ATOM      4  C   UNL     1      35.461 -23.954 -12.734  0.00  0.00    +0.199 C 
ATOM      5  C   UNL     1      36.579 -26.194 -14.177  0.00  0.00    +0.176 C 
ATOM      6  C   UNL     1      36.522 -24.903 -12.172  0.00  0.00    +0.262 C 
ENDROOT
BRANCH   3   7
ATOM      7  O   UNL     1      36.262 -24.264 -15.590  0.00  0.00    -0.379 OA
ATOM      8  H   UNL     1      37.211 -24.459 -15.583  0.00  0.00    +0.211 HD
ENDBRANCH   3   7
BRANCH   4   9
ATOM      9  O   UNL     1      34.589 -23.569 -11.671  0.00  0.00    -0.377 OA
ATOM     10  H   UNL     1      34.974 -23.841 -10.823  0.00  0.00    +0.211 HD
ENDBRANCH   4   9
BRANCH   6  11
ATOM     11  O   UNL     1      37.337 -24.162 -11.265  0.00  0.00    -0.358 OA
ATOM     12  H   UNL     1      37.574 -24.724 -10.510  0.00  0.00    +0.213 HD
ENDBRANCH   6  11
BRANCH   2  13
ATOM     13  O   UNL     1      33.795 -23.681 -14.450  0.00  0.00    -0.198 OA
BRANCH  13  14
ATOM     14  S   UNL     1      32.179 -23.775 -14.233  0.00  0.00    +0.239 S 
ATOM     15  O   UNL     1      31.905 -25.376 -14.081  0.00  0.00    -0.116 OA
ATOM     16  O   UNL     1      31.875 -23.157 -12.957  0.00  0.00    -0.116 OA
ATOM     17  O   UNL     1      31.512 -23.321 -15.440  0.00  0.00    -0.022 OA
ENDBRANCH  13  14
ENDBRANCH   2  13
BRANCH   5  18
ATOM     18  C   UNL     1      37.575 -26.804 -15.157  0.00  0.00    +0.169 C 
BRANCH  18  19
ATOM     19  O   UNL     1      36.870 -27.245 -16.303  0.00  0.00    -0.379 OA
ATOM     20  H   UNL     1      35.990 -26.838 -16.318  0.00  0.00    +0.211 HD
ENDBRANCH  18  19
ENDBRANCH   5  18
TORSDOF 7
ENDMDL
MODEL 7
REMARK VINA RESULT:      -6.8      3.168      5.140
REMARK  Name = 444635
REMARK  7 active torsions:
REMARK  status: ('A' for Active; 'I' for Inactive)
REMARK    1  A    between atoms: C_2  and  O_13
REMARK    2  A    between atoms: C_3  and  O_7
REMARK    3  A    between atoms: C_4  and  O_9
REMARK    4  A    between atoms: C_5  and  C_18
REMARK    5  A    between atoms: C_6  and  O_11
REMARK    6  A    between atoms: O_13  and  S_14
REMARK    7  A    between atoms: C_18  and  O_19
REMARK                            x       y       z     vdW  Elec       q    Type
REMARK                         _______ _______ _______ _____ _____    ______ ____
ROOT
ATOM      1  O   UNL     1      37.501 -23.426 -13.960  0.00  0.00    -0.326 OA
ATOM      2  C   UNL     1      34.672 -23.872 -14.079  0.00  0.00    +0.208 C 
ATOM      3  C   UNL     1      35.482 -24.132 -12.809  0.00  0.00    +0.172 C 
ATOM      4  C   UNL     1      35.555 -23.965 -15.323  0.00  0.00    +0.199 C 
ATOM      5  C   UNL     1      36.712 -23.216 -12.783  0.00  0.00    +0.176 C 
ATOM      6  C   UNL     1      36.809 -23.103 -15.164  0.00  0.00    +0.262 C 
ENDROOT
BRANCH   3   7
ATOM      7  O   UNL     1      35.916 -25.494 -12.789  0.00  0.00    -0.379 OA
ATOM      8  H   UNL     1      36.680 -25.581 -12.200  0.00  0.00    +0.211 HD
ENDBRANCH   3   7
BRANCH   4   9
ATOM      9  O   UNL     1      34.823 -23.495 -16.456  0.00  0.00    -0.377 OA
ATOM     10  H   UNL     1      35.403 -23.487 -17.234  0.00  0.00    +0.211 HD
ENDBRANCH   4   9
BRANCH   6  11
ATOM     11  O   UNL     1      37.655 -23.347 -16.287  0.00  0.00    -0.358 OA
ATOM     12  H   UNL     1      38.575 -23.428 -15.988  0.00  0.00    +0.213 HD
ENDBRANCH   6  11
BRANCH   2  13
ATOM     13  O   UNL     1      33.611 -24.816 -14.186  0.00  0.00    -0.198 OA
BRANCH  13  14
ATOM     14  S   UNL     1      32.062 -24.300 -14.144  0.00  0.00    +0.239 S 
ATOM     15  O   UNL     1      31.883 -23.507 -15.558  0.00  0.00    -0.116 OA
ATOM     16  O   UNL     1      31.211 -25.475 -14.191  0.00  0.00    -0.116 OA
ATOM     17  O   UNL     1      31.914 -23.336 -13.069  0.00  0.00    -0.022 OA
ENDBRANCH  13  14
ENDBRANCH   2  13
BRANCH   5  18
ATOM     18  C   UNL     1      37.608 -23.484 -11.579  0.00  0.00    +0.169 C 
BRANCH  18  19
ATOM     19  O   UNL     1      36.799 -23.917 -10.500  0.00  0.00    -0.379 OA
ATOM     20  H   UNL     1      36.487 -23.146 -10.001  0.00  0.00    +0.211 HD
ENDBRANCH  18  19
ENDBRANCH   5  18
TORSDOF 7
ENDMDL
MODEL 8
REMARK VINA RESULT:      -6.8      2.843      5.029
REMARK  Name = 444635
REMARK  7 active torsions:
REMARK  status: ('A' for Active; 'I' for Inactive)
REMARK    1  A    between atoms: C_2  and  O_13
REMARK    2  A    between atoms: C_3  and  O_7
REMARK    3  A    between atoms: C_4  and  O_9
REMARK    4  A    between atoms: C_5  and  C_18
REMARK    5  A    between atoms: C_6  and  O_11
REMARK    6  A    between atoms: O_13  and  S_14
REMARK    7  A    between atoms: C_18  and  O_19
REMARK                            x       y       z     vdW  Elec       q    Type
REMARK                         _______ _______ _______ _____ _____    ______ ____
ROOT
ATOM      1  O   UNL     1      35.500 -22.877 -16.534  0.00  0.00    -0.326 OA
ATOM      2  C   UNL     1      35.499 -24.095 -13.938  0.00  0.00    +0.208 C 
ATOM      3  C   UNL     1      34.216 -23.907 -14.749  0.00  0.00    +0.172 C 
ATOM      4  C   UNL     1      36.562 -23.076 -14.350  0.00  0.00    +0.199 C 
ATOM      5  C   UNL     1      34.545 -23.905 -16.246  0.00  0.00    +0.176 C 
ATOM      6  C   UNL     1      36.748 -23.069 -15.869  0.00  0.00    +0.262 C 
ENDROOT
BRANCH   3   7
ATOM      7  O   UNL     1      33.611 -22.659 -14.403  0.00  0.00    -0.379 OA
ATOM      8  H   UNL     1      34.201 -22.165 -13.814  0.00  0.00    +0.211 HD
ENDBRANCH   3   7
BRANCH   4   9
ATOM      9  O   UNL     1      37.808 -23.425 -13.744  0.00  0.00    -0.377 OA
ATOM     10  H   UNL     1      37.641 -23.937 -12.936  0.00  0.00    +0.211 HD
ENDBRANCH   4   9
BRANCH   6  11
ATOM     11  O   UNL     1      37.638 -22.004 -16.197  0.00  0.00    -0.358 OA
ATOM     12  H   UNL     1      37.502 -21.267 -15.580  0.00  0.00    +0.213 HD
ENDBRANCH   6  11
BRANCH   2  13
ATOM     13  O   UNL     1      35.226 -23.951 -12.548  0.00  0.00    -0.198 OA
BRANCH  13  14
ATOM     14  S   UNL     1      36.068 -24.836 -11.463  0.00  0.00    +0.239 S 
ATOM     15  O   UNL     1      37.209 -23.801 -10.926  0.00  0.00    -0.116 OA
ATOM     16  O   UNL     1      35.179 -25.121 -10.352  0.00  0.00    -0.116 OA
ATOM     17  O   UNL     1      36.739 -25.921 -12.157  0.00  0.00    -0.022 OA
ENDBRANCH  13  14
ENDBRANCH   2  13
BRANCH   5  18
ATOM     18  C   UNL     1      33.316 -23.640 -17.108  0.00  0.00    +0.169 C 
BRANCH  18  19
ATOM     19  O   UNL     1      33.675 -23.802 -18.469  0.00  0.00    -0.379 OA
ATOM     20  H   UNL     1      34.158 -23.017 -18.772  0.00  0.00    +0.211 HD
ENDBRANCH  18  19
ENDBRANCH   5  18
TORSDOF 7
ENDMDL
MODEL 9
REMARK VINA RESULT:      -6.7     12.030     14.032
REMARK  Name = 444635
REMARK  7 active torsions:
REMARK  status: ('A' for Active; 'I' for Inactive)
REMARK    1  A    between atoms: C_2  and  O_13
REMARK    2  A    between atoms: C_3  and  O_7
REMARK    3  A    between atoms: C_4  and  O_9
REMARK    4  A    between atoms: C_5  and  C_18
REMARK    5  A    between atoms: C_6  and  O_11
REMARK    6  A    between atoms: O_13  and  S_14
REMARK    7  A    between atoms: C_18  and  O_19
REMARK                            x       y       z     vdW  Elec       q    Type
REMARK                         _______ _______ _______ _____ _____    ______ ____
ROOT
ATOM      1  O   UNL     1      33.004 -14.100 -24.822  0.00  0.00    -0.326 OA
ATOM      2  C   UNL     1      34.202 -16.325 -23.468  0.00  0.00    +0.208 C 
ATOM      3  C   UNL     1      33.819 -15.039 -22.736  0.00  0.00    +0.172 C 
ATOM      4  C   UNL     1      34.447 -16.060 -24.954  0.00  0.00    +0.199 C 
ATOM      5  C   UNL     1      32.650 -14.360 -23.459  0.00  0.00    +0.176 C 
ATOM      6  C   UNL     1      33.277 -15.286 -25.566  0.00  0.00    +0.262 C 
ENDROOT
BRANCH   3   7
ATOM      7  O   UNL     1      34.937 -14.148 -22.719  0.00  0.00    -0.379 OA
ATOM      8  H   UNL     1      35.042 -13.745 -23.595  0.00  0.00    +0.211 HD
ENDBRANCH   3   7
BRANCH   4   9
ATOM      9  O   UNL     1      34.573 -17.306 -25.639  0.00  0.00    -0.377 OA
ATOM     10  H   UNL     1      34.122 -18.000 -25.133  0.00  0.00    +0.211 HD
ENDBRANCH   4   9
BRANCH   6  11
ATOM     11  O   UNL     1      33.631 -14.945 -26.906  0.00  0.00    -0.358 OA
ATOM     12  H   UNL     1      34.597 -14.901 -26.984  0.00  0.00    +0.213 HD
ENDBRANCH   6  11
BRANCH   2  13
ATOM     13  O   UNL     1      35.378 -16.886 -22.893  0.00  0.00    -0.198 OA
BRANCH  13  14
ATOM     14  S   UNL     1      35.330 -18.391 -22.263  0.00  0.00    +0.239 S 
ATOM     15  O   UNL     1      34.099 -18.322 -21.195  0.00  0.00    -0.116 OA
ATOM     16  O   UNL     1      34.935 -19.296 -23.326  0.00  0.00    -0.116 OA
ATOM     17  O   UNL     1      36.554 -18.632 -21.519  0.00  0.00    -0.022 OA
ENDBRANCH  13  14
ENDBRANCH   2  13
BRANCH   5  18
ATOM     18  C   UNL     1      32.272 -13.026 -22.825  0.00  0.00    +0.169 C 
BRANCH  18  19
ATOM     19  O   UNL     1      32.313 -13.168 -21.416  0.00  0.00    -0.379 OA
ATOM     20  H   UNL     1      32.835 -13.951 -21.184  0.00  0.00    +0.211 HD
ENDBRANCH  18  19
ENDBRANCH   5  18
TORSDOF 7
ENDMDL
