MODEL 1
REMARK VINA RESULT:      -5.6      0.000      0.000
REMARK  Name = 31264
REMARK  0 active torsions:
REMARK  status: ('A' for Active; 'I' for Inactive)
REMARK                            x       y       z     vdW  Elec       q    Type
REMARK                         _______ _______ _______ _____ _____    ______ ____
ROOT
ATOM      1  O   UNL     1      34.779 -20.926 -19.542  0.00  0.00    -0.306 OA
ATOM      2  O   UNL     1      32.688 -21.793 -18.843  0.00  0.00    -0.306 OA
ATOM      3  O   UNL     1      34.683 -22.521 -17.795  0.00  0.00    -0.306 OA
ATOM      4  C   UNL     1      33.461 -21.311 -19.946  0.00  0.00    +0.239 C 
ATOM      5  C   UNL     1      35.432 -22.030 -18.910  0.00  0.00    +0.239 C 
ATOM      6  C   UNL     1      33.368 -22.887 -18.219  0.00  0.00    +0.239 C 
ATOM      7  C   UNL     1      32.764 -20.086 -20.513  0.00  0.00    +0.067 C 
ATOM      8  C   UNL     1      36.780 -21.553 -18.401  0.00  0.00    +0.067 C 
ATOM      9  C   UNL     1      32.572 -23.298 -16.993  0.00  0.00    +0.067 C 
ENDROOT
TORSDOF 0
ENDMDL
MODEL 2
REMARK VINA RESULT:      -5.6      0.105      3.359
REMARK  Name = 31264
REMARK  0 active torsions:
REMARK  status: ('A' for Active; 'I' for Inactive)
REMARK                            x       y       z     vdW  Elec       q    Type
REMARK                         _______ _______ _______ _____ _____    ______ ____
ROOT
ATOM      1  O   UNL     1      32.722 -21.694 -18.851  0.00  0.00    -0.306 OA
ATOM      2  O   UNL     1      34.722 -22.471 -17.848  0.00  0.00    -0.306 OA
ATOM      3  O   UNL     1      34.811 -20.825 -19.549  0.00  0.00    -0.306 OA
ATOM      4  C   UNL     1      33.398 -22.812 -18.267  0.00  0.00    +0.239 C 
ATOM      5  C   UNL     1      33.486 -21.186 -19.948  0.00  0.00    +0.239 C 
ATOM      6  C   UNL     1      35.462 -21.953 -18.958  0.00  0.00    +0.239 C 
ATOM      7  C   UNL     1      32.614 -23.253 -17.044  0.00  0.00    +0.067 C 
ATOM      8  C   UNL     1      32.793 -19.941 -20.469  0.00  0.00    +0.067 C 
ATOM      9  C   UNL     1      36.820 -21.502 -18.451  0.00  0.00    +0.067 C 
ENDROOT
TORSDOF 0
ENDMDL
MODEL 3
REMARK VINA RESULT:      -5.6      3.851      5.893
REMARK  Name = 31264
REMARK  0 active torsions:
REMARK  status: ('A' for Active; 'I' for Inactive)
REMARK                            x       y       z     vdW  Elec       q    Type
REMARK                         _______ _______ _______ _____ _____    ______ ____
ROOT
ATOM      1  O   UNL     1      34.915 -19.622 -22.562  0.00  0.00    -0.306 OA
ATOM      2  O   UNL     1      34.986 -18.155 -20.703  0.00  0.00    -0.306 OA
ATOM      3  O   UNL     1      34.635 -17.292 -22.880  0.00  0.00    -0.306 OA
ATOM      4  C   UNL     1      35.494 -19.362 -21.279  0.00  0.00    +0.239 C 
ATOM      5  C   UNL     1      35.147 -18.509 -23.431  0.00  0.00    +0.239 C 
ATOM      6  C   UNL     1      35.217 -17.060 -21.595  0.00  0.00    +0.239 C 
ATOM      7  C   UNL     1      35.135 -20.514 -20.357  0.00  0.00    +0.067 C 
ATOM      8  C   UNL     1      34.427 -18.775 -24.740  0.00  0.00    +0.067 C 
ATOM      9  C   UNL     1      34.570 -15.823 -20.999  0.00  0.00    +0.067 C 
ENDROOT
TORSDOF 0
ENDMDL
MODEL 4
REMARK VINA RESULT:      -5.6      3.860      5.596
REMARK  Name = 31264
REMARK  0 active torsions:
REMARK  status: ('A' for Active; 'I' for Inactive)
REMARK                            x       y       z     vdW  Elec       q    Type
REMARK                         _______ _______ _______ _____ _____    ______ ____
ROOT
ATOM      1  O   UNL     1      34.961 -18.152 -20.710  0.00  0.00    -0.306 OA
ATOM      2  O   UNL     1      34.617 -17.263 -22.878  0.00  0.00    -0.306 OA
ATOM      3  O   UNL     1      34.899 -19.596 -22.586  0.00  0.00    -0.306 OA
ATOM      4  C   UNL     1      35.194 -17.046 -21.588  0.00  0.00    +0.239 C 
ATOM      5  C   UNL     1      35.472 -19.351 -21.298  0.00  0.00    +0.239 C 
ATOM      6  C   UNL     1      35.133 -18.473 -23.440  0.00  0.00    +0.239 C 
ATOM      7  C   UNL     1      34.543 -15.816 -20.980  0.00  0.00    +0.067 C 
ATOM      8  C   UNL     1      35.111 -20.513 -20.391  0.00  0.00    +0.067 C 
ATOM      9  C   UNL     1      34.419 -18.724 -24.756  0.00  0.00    +0.067 C 
ENDROOT
TORSDOF 0
ENDMDL
MODEL 5
REMARK VINA RESULT:      -5.6      3.915      5.348
REMARK  Name = 31264
REMARK  0 active torsions:
REMARK  status: ('A' for Active; 'I' for Inactive)
REMARK                            x       y       z     vdW  Elec       q    Type
REMARK                         _______ _______ _______ _____ _____    ______ ____
ROOT
ATOM      1  O   UNL     1      34.589 -17.218 -22.919  0.00  0.00    -0.306 OA
ATOM      2  O   UNL     1      34.933 -19.543 -22.623  0.00  0.00    -0.306 OA
ATOM      3  O   UNL     1      34.988 -18.090 -20.754  0.00  0.00    -0.306 OA
ATOM      4  C   UNL     1      35.125 -18.418 -23.485  0.00  0.00    +0.239 C 
ATOM      5  C   UNL     1      35.180 -16.982 -21.638  0.00  0.00    +0.239 C 
ATOM      6  C   UNL     1      35.520 -19.278 -21.345  0.00  0.00    +0.239 C 
ATOM      7  C   UNL     1      34.398 -18.692 -24.789  0.00  0.00    +0.067 C 
ATOM      8  C   UNL     1      34.509 -15.766 -21.026  0.00  0.00    +0.067 C 
ATOM      9  C   UNL     1      35.201 -20.445 -20.428  0.00  0.00    +0.067 C 
ENDROOT
TORSDOF 0
ENDMDL
MODEL 6
REMARK VINA RESULT:      -5.6      0.102      3.359
REMARK  Name = 31264
REMARK  0 active torsions:
REMARK  status: ('A' for Active; 'I' for Inactive)
REMARK                            x       y       z     vdW  Elec       q    Type
REMARK                         _______ _______ _______ _____ _____    ______ ____
ROOT
ATOM      1  O   UNL     1      34.721 -22.473 -17.843  0.00  0.00    -0.306 OA
ATOM      2  O   UNL     1      34.812 -20.828 -19.545  0.00  0.00    -0.306 OA
ATOM      3  O   UNL     1      32.722 -21.697 -18.848  0.00  0.00    -0.306 OA
ATOM      4  C   UNL     1      35.462 -21.956 -18.953  0.00  0.00    +0.239 C 
ATOM      5  C   UNL     1      33.397 -22.814 -18.263  0.00  0.00    +0.239 C 
ATOM      6  C   UNL     1      33.486 -21.190 -19.945  0.00  0.00    +0.239 C 
ATOM      7  C   UNL     1      36.821 -21.506 -18.445  0.00  0.00    +0.067 C 
ATOM      8  C   UNL     1      32.612 -23.254 -17.041  0.00  0.00    +0.067 C 
ATOM      9  C   UNL     1      32.794 -19.944 -20.467  0.00  0.00    +0.067 C 
ENDROOT
TORSDOF 0
ENDMDL
MODEL 7
REMARK VINA RESULT:      -5.4      5.470      6.683
REMARK  Name = 31264
REMARK  0 active torsions:
REMARK  status: ('A' for Active; 'I' for Inactive)
REMARK                            x       y       z     vdW  Elec       q    Type
REMARK                         _______ _______ _______ _____ _____    ______ ____
ROOT
ATOM      1  O   UNL     1      38.827 -24.035 -15.374  0.00  0.00    -0.306 OA
ATOM      2  O   UNL     1      37.316 -22.809 -14.025  0.00  0.00    -0.306 OA
ATOM      3  O   UNL     1      38.729 -24.436 -13.042  0.00  0.00    -0.306 OA
ATOM      4  C   UNL     1      37.545 -23.403 -15.305  0.00  0.00    +0.239 C 
ATOM      5  C   UNL     1      38.941 -25.011 -14.335  0.00  0.00    +0.239 C 
ATOM      6  C   UNL     1      37.448 -23.800 -13.001  0.00  0.00    +0.239 C 
ATOM      7  C   UNL     1      37.503 -22.304 -16.351  0.00  0.00    +0.067 C 
ATOM      8  C   UNL     1      40.348 -25.580 -14.373  0.00  0.00    +0.067 C 
ATOM      9  C   UNL     1      37.306 -23.111 -11.656  0.00  0.00    +0.067 C 
ENDROOT
TORSDOF 0
ENDMDL
MODEL 8
REMARK VINA RESULT:      -5.4      5.493      7.396
REMARK  Name = 31264
REMARK  0 active torsions:
REMARK  status: ('A' for Active; 'I' for Inactive)
REMARK                            x       y       z     vdW  Elec       q    Type
REMARK                         _______ _______ _______ _____ _____    ______ ____
ROOT
ATOM      1  O   UNL     1      38.739 -24.469 -13.032  0.00  0.00    -0.306 OA
ATOM      2  O   UNL     1      38.852 -24.083 -15.366  0.00  0.00    -0.306 OA
ATOM      3  O   UNL     1      37.328 -22.853 -14.035  0.00  0.00    -0.306 OA
ATOM      4  C   UNL     1      38.963 -25.052 -14.320  0.00  0.00    +0.239 C 
ATOM      5  C   UNL     1      37.456 -23.837 -13.004  0.00  0.00    +0.239 C 
ATOM      6  C   UNL     1      37.568 -23.455 -15.310  0.00  0.00    +0.239 C 
ATOM      7  C   UNL     1      40.372 -25.616 -14.345  0.00  0.00    +0.067 C 
ATOM      8  C   UNL     1      37.302 -23.141 -11.665  0.00  0.00    +0.067 C 
ATOM      9  C   UNL     1      37.531 -22.362 -16.363  0.00  0.00    +0.067 C 
ENDROOT
TORSDOF 0
ENDMDL
MODEL 9
REMARK VINA RESULT:      -5.4      6.802      8.029
REMARK  Name = 31264
REMARK  0 active torsions:
REMARK  status: ('A' for Active; 'I' for Inactive)
REMARK                            x       y       z     vdW  Elec       q    Type
REMARK                         _______ _______ _______ _____ _____    ______ ____
ROOT
ATOM      1  O   UNL     1      33.732 -15.108 -24.196  0.00  0.00    -0.306 OA
ATOM      2  O   UNL     1      33.809 -17.029 -25.579  0.00  0.00    -0.306 OA
ATOM      3  O   UNL     1      34.613 -17.138 -23.353  0.00  0.00    -0.306 OA
ATOM      4  C   UNL     1      33.903 -15.603 -25.528  0.00  0.00    +0.239 C 
ATOM      5  C   UNL     1      34.697 -15.710 -23.329  0.00  0.00    +0.239 C 
ATOM      6  C   UNL     1      34.774 -17.608 -24.694  0.00  0.00    +0.239 C 
ATOM      7  C   UNL     1      32.797 -15.025 -26.392  0.00  0.00    +0.067 C 
ATOM      8  C   UNL     1      34.414 -15.244 -21.912  0.00  0.00    +0.067 C 
ATOM      9  C   UNL     1      34.570 -19.113 -24.694  0.00  0.00    +0.067 C 
ENDROOT
TORSDOF 0
ENDMDL
