MODEL 1
REMARK VINA RESULT:      -8.7      0.000      0.000
REMARK  Name = 446308
REMARK  13 active torsions:
REMARK  status: ('A' for Active; 'I' for Inactive)
REMARK    1  A    between atoms: C_1  and  C_7
REMARK    2  A    between atoms: C_6  and  O_15
REMARK    3  A    between atoms: C_7  and  C_10
REMARK    4  A    between atoms: C_10  and  C_11
REMARK    5  A    between atoms: O_15  and  C_16
REMARK    6  A    between atoms: C_16  and  C_17
REMARK    7  A    between atoms: C_17  and  O_18
REMARK    8  A    between atoms: O_18  and  C_19
REMARK    9  A    between atoms: C_19  and  C_20
REMARK   10  A    between atoms: C_20  and  O_21
REMARK   11  A    between atoms: O_21  and  C_22
REMARK   12  A    between atoms: C_22  and  C_23
REMARK   13  A    between atoms: C_23  and  O_24
REMARK                            x       y       z     vdW  Elec       q    Type
REMARK                         _______ _______ _______ _____ _____    ______ ____
ROOT
ATOM      1  C   UNL     1      34.548 -19.958 -20.669  0.00  0.00    -0.023 C 
ATOM      2  C   UNL     1      33.270 -20.367 -20.286  0.00  0.00    -0.001 C 
ATOM      3  C   UNL     1      35.666 -20.677 -20.248  0.00  0.00    -0.001 C 
ATOM      4  C   UNL     1      33.112 -21.495 -19.481  0.00  0.00    +0.037 C 
ATOM      5  C   UNL     1      35.507 -21.805 -19.443  0.00  0.00    +0.037 C 
ATOM      6  C   UNL     1      34.230 -22.214 -19.060  0.00  0.00    +0.139 C 
ENDROOT
BRANCH   1   7
ATOM      7  C   UNL     1      34.722 -18.709 -21.558  0.00  0.00    +0.019 C 
ATOM      8  C   UNL     1      34.540 -19.185 -23.029  0.00  0.00    +0.004 C 
ATOM      9  C   UNL     1      36.135 -18.092 -21.494  0.00  0.00    +0.004 C 
BRANCH   7  10
ATOM     10  C   UNL     1      33.629 -17.612 -21.296  0.00  0.00    +0.004 C 
BRANCH  10  11
ATOM     11  C   UNL     1      33.918 -16.082 -21.456  0.00  0.00    +0.000 C 
ATOM     12  C   UNL     1      32.550 -15.357 -21.445  0.00  0.00    +0.000 C 
ATOM     13  C   UNL     1      34.578 -15.762 -22.812  0.00  0.00    +0.000 C 
ATOM     14  C   UNL     1      34.769 -15.488 -20.329  0.00  0.00    +0.000 C 
ENDBRANCH  10  11
ENDBRANCH   7  10
ENDBRANCH   1   7
BRANCH   6  15
ATOM     15  O   UNL     1      34.074 -23.315 -18.274  0.00  0.00    -0.473 OA
BRANCH  15  16
ATOM     16  C   UNL     1      33.320 -23.154 -17.074  0.00  0.00    +0.237 C 
BRANCH  16  17
ATOM     17  C   UNL     1      34.065 -23.817 -15.930  0.00  0.00    +0.189 C 
BRANCH  17  18
ATOM     18  O   UNL     1      35.452 -23.857 -16.240  0.00  0.00    -0.347 OA
BRANCH  18  19
ATOM     19  C   UNL     1      36.161 -22.811 -15.590  0.00  0.00    +0.174 C 
BRANCH  19  20
ATOM     20  C   UNL     1      37.615 -23.214 -15.445  0.00  0.00    +0.174 C 
BRANCH  20  21
ATOM     21  O   UNL     1      37.921 -23.361 -14.063  0.00  0.00    -0.348 OA
BRANCH  21  22
ATOM     22  C   UNL     1      37.942 -24.728 -13.677  0.00  0.00    +0.174 C 
BRANCH  22  23
ATOM     23  C   UNL     1      38.894 -25.483 -14.583  0.00  0.00    +0.174 C 
BRANCH  23  24
ATOM     24  O   UNL     1      38.396 -26.800 -14.788  0.00  0.00    -0.348 OA
ATOM     25  C   UNL     1      36.980 -26.808 -14.912  0.00  0.00    +0.174 C 
ENDBRANCH  23  24
ENDBRANCH  22  23
ENDBRANCH  21  22
ENDBRANCH  20  21
ENDBRANCH  19  20
ENDBRANCH  18  19
ENDBRANCH  17  18
ENDBRANCH  16  17
ENDBRANCH  15  16
ENDBRANCH   6  15
TORSDOF 13
ENDMDL
MODEL 2
REMARK VINA RESULT:      -8.6      2.982      5.474
REMARK  Name = 446308
REMARK  13 active torsions:
REMARK  status: ('A' for Active; 'I' for Inactive)
REMARK    1  A    between atoms: C_1  and  C_7
REMARK    2  A    between atoms: C_6  and  O_15
REMARK    3  A    between atoms: C_7  and  C_10
REMARK    4  A    between atoms: C_10  and  C_11
REMARK    5  A    between atoms: O_15  and  C_16
REMARK    6  A    between atoms: C_16  and  C_17
REMARK    7  A    between atoms: C_17  and  O_18
REMARK    8  A    between atoms: O_18  and  C_19
REMARK    9  A    between atoms: C_19  and  C_20
REMARK   10  A    between atoms: C_20  and  O_21
REMARK   11  A    between atoms: O_21  and  C_22
REMARK   12  A    between atoms: C_22  and  C_23
REMARK   13  A    between atoms: C_23  and  O_24
REMARK                            x       y       z     vdW  Elec       q    Type
REMARK                         _______ _______ _______ _____ _____    ______ ____
ROOT
ATOM      1  C   UNL     1      34.696 -19.872 -20.766  0.00  0.00    -0.023 C 
ATOM      2  C   UNL     1      35.870 -20.447 -20.279  0.00  0.00    -0.001 C 
ATOM      3  C   UNL     1      33.457 -20.391 -20.390  0.00  0.00    -0.001 C 
ATOM      4  C   UNL     1      35.804 -21.541 -19.416  0.00  0.00    +0.037 C 
ATOM      5  C   UNL     1      33.392 -21.485 -19.527  0.00  0.00    +0.037 C 
ATOM      6  C   UNL     1      34.566 -22.060 -19.040  0.00  0.00    +0.139 C 
ENDROOT
BRANCH   1   7
ATOM      7  C   UNL     1      34.768 -18.663 -21.721  0.00  0.00    +0.019 C 
ATOM      8  C   UNL     1      34.496 -19.213 -23.152  0.00  0.00    +0.004 C 
ATOM      9  C   UNL     1      36.162 -18.006 -21.788  0.00  0.00    +0.004 C 
BRANCH   7  10
ATOM     10  C   UNL     1      33.664 -17.584 -21.430  0.00  0.00    +0.004 C 
BRANCH  10  11
ATOM     11  C   UNL     1      33.952 -16.047 -21.493  0.00  0.00    +0.000 C 
ATOM     12  C   UNL     1      32.583 -15.325 -21.476  0.00  0.00    +0.000 C 
ATOM     13  C   UNL     1      34.647 -15.648 -22.810  0.00  0.00    +0.000 C 
ATOM     14  C   UNL     1      34.772 -15.518 -20.312  0.00  0.00    +0.000 C 
ENDBRANCH  10  11
ENDBRANCH   7  10
ENDBRANCH   1   7
BRANCH   6  15
ATOM     15  O   UNL     1      34.503 -23.128 -18.198  0.00  0.00    -0.473 OA
BRANCH  15  16
ATOM     16  C   UNL     1      33.371 -23.207 -17.333  0.00  0.00    +0.237 C 
BRANCH  16  17
ATOM     17  C   UNL     1      33.848 -23.471 -15.917  0.00  0.00    +0.189 C 
BRANCH  17  18
ATOM     18  O   UNL     1      32.778 -23.224 -15.013  0.00  0.00    -0.347 OA
BRANCH  18  19
ATOM     19  C   UNL     1      31.557 -23.772 -15.491  0.00  0.00    +0.174 C 
BRANCH  19  20
ATOM     20  C   UNL     1      30.416 -22.855 -15.094  0.00  0.00    +0.174 C 
BRANCH  20  21
ATOM     21  O   UNL     1      29.580 -22.638 -16.225  0.00  0.00    -0.348 OA
BRANCH  21  22
ATOM     22  C   UNL     1      28.349 -23.336 -16.104  0.00  0.00    +0.174 C 
BRANCH  22  23
ATOM     23  C   UNL     1      27.211 -22.334 -16.105  0.00  0.00    +0.174 C 
BRANCH  23  24
ATOM     24  O   UNL     1      27.282 -21.551 -17.289  0.00  0.00    -0.348 OA
ATOM     25  C   UNL     1      25.992 -21.139 -17.720  0.00  0.00    +0.174 C 
ENDBRANCH  23  24
ENDBRANCH  22  23
ENDBRANCH  21  22
ENDBRANCH  20  21
ENDBRANCH  19  20
ENDBRANCH  18  19
ENDBRANCH  17  18
ENDBRANCH  16  17
ENDBRANCH  15  16
ENDBRANCH   6  15
TORSDOF 13
ENDMDL
MODEL 3
REMARK VINA RESULT:      -8.6      0.927      1.838
REMARK  Name = 446308
REMARK  13 active torsions:
REMARK  status: ('A' for Active; 'I' for Inactive)
REMARK    1  A    between atoms: C_1  and  C_7
REMARK    2  A    between atoms: C_6  and  O_15
REMARK    3  A    between atoms: C_7  and  C_10
REMARK    4  A    between atoms: C_10  and  C_11
REMARK    5  A    between atoms: O_15  and  C_16
REMARK    6  A    between atoms: C_16  and  C_17
REMARK    7  A    between atoms: C_17  and  O_18
REMARK    8  A    between atoms: O_18  and  C_19
REMARK    9  A    between atoms: C_19  and  C_20
REMARK   10  A    between atoms: C_20  and  O_21
REMARK   11  A    between atoms: O_21  and  C_22
REMARK   12  A    between atoms: C_22  and  C_23
REMARK   13  A    between atoms: C_23  and  O_24
REMARK                            x       y       z     vdW  Elec       q    Type
REMARK                         _______ _______ _______ _____ _____    ______ ____
ROOT
ATOM      1  C   UNL     1      34.533 -19.985 -20.644  0.00  0.00    -0.023 C 
ATOM      2  C   UNL     1      35.653 -20.726 -20.264  0.00  0.00    -0.001 C 
ATOM      3  C   UNL     1      33.259 -20.399 -20.257  0.00  0.00    -0.001 C 
ATOM      4  C   UNL     1      35.497 -21.881 -19.498  0.00  0.00    +0.037 C 
ATOM      5  C   UNL     1      33.103 -21.554 -19.491  0.00  0.00    +0.037 C 
ATOM      6  C   UNL     1      34.222 -22.295 -19.111  0.00  0.00    +0.139 C 
ENDROOT
BRANCH   1   7
ATOM      7  C   UNL     1      34.707 -18.708 -21.492  0.00  0.00    +0.019 C 
ATOM      8  C   UNL     1      34.537 -19.138 -22.978  0.00  0.00    +0.004 C 
ATOM      9  C   UNL     1      36.114 -18.085 -21.398  0.00  0.00    +0.004 C 
BRANCH   7  10
ATOM     10  C   UNL     1      33.604 -17.625 -21.202  0.00  0.00    +0.004 C 
BRANCH  10  11
ATOM     11  C   UNL     1      33.871 -16.092 -21.359  0.00  0.00    +0.000 C 
ATOM     12  C   UNL     1      32.502 -15.377 -21.245  0.00  0.00    +0.000 C 
ATOM     13  C   UNL     1      34.436 -15.746 -22.750  0.00  0.00    +0.000 C 
ATOM     14  C   UNL     1      34.793 -15.507 -20.282  0.00  0.00    +0.000 C 
ENDBRANCH  10  11
ENDBRANCH   7  10
ENDBRANCH   1   7
BRANCH   6  15
ATOM     15  O   UNL     1      34.071 -23.423 -18.364  0.00  0.00    -0.473 OA
BRANCH  15  16
ATOM     16  C   UNL     1      33.280 -23.317 -17.182  0.00  0.00    +0.237 C 
BRANCH  16  17
ATOM     17  C   UNL     1      34.198 -23.147 -15.986  0.00  0.00    +0.189 C 
BRANCH  17  18
ATOM     18  O   UNL     1      35.285 -24.057 -16.102  0.00  0.00    -0.347 OA
BRANCH  18  19
ATOM     19  C   UNL     1      36.073 -24.082 -14.920  0.00  0.00    +0.174 C 
BRANCH  19  20
ATOM     20  C   UNL     1      37.381 -23.361 -15.183  0.00  0.00    +0.174 C 
BRANCH  20  21
ATOM     21  O   UNL     1      38.431 -24.043 -14.507  0.00  0.00    -0.348 OA
BRANCH  21  22
ATOM     22  C   UNL     1      37.939 -24.800 -13.410  0.00  0.00    +0.174 C 
BRANCH  22  23
ATOM     23  C   UNL     1      38.642 -24.349 -12.144  0.00  0.00    +0.174 C 
BRANCH  23  24
ATOM     24  O   UNL     1      38.237 -23.022 -11.835  0.00  0.00    -0.348 OA
ATOM     25  C   UNL     1      36.874 -22.972 -11.435  0.00  0.00    +0.174 C 
ENDBRANCH  23  24
ENDBRANCH  22  23
ENDBRANCH  21  22
ENDBRANCH  20  21
ENDBRANCH  19  20
ENDBRANCH  18  19
ENDBRANCH  17  18
ENDBRANCH  16  17
ENDBRANCH  15  16
ENDBRANCH   6  15
TORSDOF 13
ENDMDL
MODEL 4
REMARK VINA RESULT:      -7.8      2.550      3.942
REMARK  Name = 446308
REMARK  13 active torsions:
REMARK  status: ('A' for Active; 'I' for Inactive)
REMARK    1  A    between atoms: C_1  and  C_7
REMARK    2  A    between atoms: C_6  and  O_15
REMARK    3  A    between atoms: C_7  and  C_10
REMARK    4  A    between atoms: C_10  and  C_11
REMARK    5  A    between atoms: O_15  and  C_16
REMARK    6  A    between atoms: C_16  and  C_17
REMARK    7  A    between atoms: C_17  and  O_18
REMARK    8  A    between atoms: O_18  and  C_19
REMARK    9  A    between atoms: C_19  and  C_20
REMARK   10  A    between atoms: C_20  and  O_21
REMARK   11  A    between atoms: O_21  and  C_22
REMARK   12  A    between atoms: C_22  and  C_23
REMARK   13  A    between atoms: C_23  and  O_24
REMARK                            x       y       z     vdW  Elec       q    Type
REMARK                         _______ _______ _______ _____ _____    ______ ____
ROOT
ATOM      1  C   UNL     1      35.065 -19.744 -20.786  0.00  0.00    -0.023 C 
ATOM      2  C   UNL     1      36.092 -20.527 -20.261  0.00  0.00    -0.001 C 
ATOM      3  C   UNL     1      33.734 -20.095 -20.559  0.00  0.00    -0.001 C 
ATOM      4  C   UNL     1      35.789 -21.662 -19.509  0.00  0.00    +0.037 C 
ATOM      5  C   UNL     1      33.431 -21.230 -19.807  0.00  0.00    +0.037 C 
ATOM      6  C   UNL     1      34.458 -22.013 -19.282  0.00  0.00    +0.139 C 
ENDROOT
BRANCH   1   7
ATOM      7  C   UNL     1      35.401 -18.490 -21.619  0.00  0.00    +0.019 C 
ATOM      8  C   UNL     1      34.407 -18.474 -22.817  0.00  0.00    +0.004 C 
ATOM      9  C   UNL     1      36.809 -18.520 -22.249  0.00  0.00    +0.004 C 
BRANCH   7  10
ATOM     10  C   UNL     1      35.181 -17.150 -20.827  0.00  0.00    +0.004 C 
BRANCH  10  11
ATOM     11  C   UNL     1      34.246 -16.009 -21.348  0.00  0.00    +0.000 C 
ATOM     12  C   UNL     1      34.594 -15.781 -22.839  0.00  0.00    +0.000 C 
ATOM     13  C   UNL     1      34.509 -14.675 -20.623  0.00  0.00    +0.000 C 
ATOM     14  C   UNL     1      32.752 -16.341 -21.264  0.00  0.00    +0.000 C 
ENDBRANCH  10  11
ENDBRANCH   7  10
ENDBRANCH   1   7
BRANCH   6  15
ATOM     15  O   UNL     1      34.163 -23.121 -18.548  0.00  0.00    -0.473 OA
BRANCH  15  16
ATOM     16  C   UNL     1      33.704 -22.912 -17.213  0.00  0.00    +0.237 C 
BRANCH  16  17
ATOM     17  C   UNL     1      32.348 -23.573 -17.048  0.00  0.00    +0.189 C 
BRANCH  17  18
ATOM     18  O   UNL     1      31.336 -22.574 -17.089  0.00  0.00    -0.347 OA
BRANCH  18  19
ATOM     19  C   UNL     1      30.206 -22.947 -16.314  0.00  0.00    +0.174 C 
BRANCH  19  20
ATOM     20  C   UNL     1      30.442 -24.323 -15.723  0.00  0.00    +0.174 C 
BRANCH  20  21
ATOM     21  O   UNL     1      29.709 -24.440 -14.509  0.00  0.00    -0.348 OA
BRANCH  21  22
ATOM     22  C   UNL     1      30.564 -24.376 -13.376  0.00  0.00    +0.174 C 
BRANCH  22  23
ATOM     23  C   UNL     1      31.909 -24.975 -13.738  0.00  0.00    +0.174 C 
BRANCH  23  24
ATOM     24  O   UNL     1      32.937 -24.229 -13.100  0.00  0.00    -0.348 OA
ATOM     25  C   UNL     1      34.159 -24.303 -13.821  0.00  0.00    +0.174 C 
ENDBRANCH  23  24
ENDBRANCH  22  23
ENDBRANCH  21  22
ENDBRANCH  20  21
ENDBRANCH  19  20
ENDBRANCH  18  19
ENDBRANCH  17  18
ENDBRANCH  16  17
ENDBRANCH  15  16
ENDBRANCH   6  15
TORSDOF 13
ENDMDL
MODEL 5
REMARK VINA RESULT:      -7.8      1.927      3.632
REMARK  Name = 446308
REMARK  13 active torsions:
REMARK  status: ('A' for Active; 'I' for Inactive)
REMARK    1  A    between atoms: C_1  and  C_7
REMARK    2  A    between atoms: C_6  and  O_15
REMARK    3  A    between atoms: C_7  and  C_10
REMARK    4  A    between atoms: C_10  and  C_11
REMARK    5  A    between atoms: O_15  and  C_16
REMARK    6  A    between atoms: C_16  and  C_17
REMARK    7  A    between atoms: C_17  and  O_18
REMARK    8  A    between atoms: O_18  and  C_19
REMARK    9  A    between atoms: C_19  and  C_20
REMARK   10  A    between atoms: C_20  and  O_21
REMARK   11  A    between atoms: O_21  and  C_22
REMARK   12  A    between atoms: C_22  and  C_23
REMARK   13  A    between atoms: C_23  and  O_24
REMARK                            x       y       z     vdW  Elec       q    Type
REMARK                         _______ _______ _______ _____ _____    ______ ____
ROOT
ATOM      1  C   UNL     1      34.943 -19.831 -20.723  0.00  0.00    -0.023 C 
ATOM      2  C   UNL     1      36.005 -20.613 -20.269  0.00  0.00    -0.001 C 
ATOM      3  C   UNL     1      33.630 -20.206 -20.438  0.00  0.00    -0.001 C 
ATOM      4  C   UNL     1      35.755 -21.769 -19.531  0.00  0.00    +0.037 C 
ATOM      5  C   UNL     1      33.379 -21.363 -19.701  0.00  0.00    +0.037 C 
ATOM      6  C   UNL     1      34.442 -22.144 -19.247  0.00  0.00    +0.139 C 
ENDROOT
BRANCH   1   7
ATOM      7  C   UNL     1      35.221 -18.553 -21.539  0.00  0.00    +0.019 C 
ATOM      8  C   UNL     1      34.221 -18.564 -22.733  0.00  0.00    +0.004 C 
ATOM      9  C   UNL     1      36.626 -18.513 -22.175  0.00  0.00    +0.004 C 
BRANCH   7  10
ATOM     10  C   UNL     1      34.946 -17.235 -20.728  0.00  0.00    +0.004 C 
BRANCH  10  11
ATOM     11  C   UNL     1      34.258 -15.983 -21.366  0.00  0.00    +0.000 C 
ATOM     12  C   UNL     1      34.693 -15.931 -22.851  0.00  0.00    +0.000 C 
ATOM     13  C   UNL     1      34.741 -14.670 -20.718  0.00  0.00    +0.000 C 
ATOM     14  C   UNL     1      32.727 -16.028 -21.330  0.00  0.00    +0.000 C 
ENDBRANCH  10  11
ENDBRANCH   7  10
ENDBRANCH   1   7
BRANCH   6  15
ATOM     15  O   UNL     1      34.198 -23.274 -18.527  0.00  0.00    -0.473 OA
BRANCH  15  16
ATOM     16  C   UNL     1      33.358 -23.145 -17.381  0.00  0.00    +0.237 C 
BRANCH  16  17
ATOM     17  C   UNL     1      34.225 -23.051 -16.140  0.00  0.00    +0.189 C 
BRANCH  17  18
ATOM     18  O   UNL     1      34.944 -24.268 -15.982  0.00  0.00    -0.347 OA
BRANCH  18  19
ATOM     19  C   UNL     1      34.798 -24.792 -14.670  0.00  0.00    +0.174 C 
BRANCH  19  20
ATOM     20  C   UNL     1      33.779 -23.961 -13.915  0.00  0.00    +0.174 C 
BRANCH  20  21
ATOM     21  O   UNL     1      32.924 -24.828 -13.180  0.00  0.00    -0.348 OA
BRANCH  21  22
ATOM     22  C   UNL     1      31.599 -24.809 -13.691  0.00  0.00    +0.174 C 
BRANCH  22  23
ATOM     23  C   UNL     1      31.189 -23.371 -13.946  0.00  0.00    +0.174 C 
BRANCH  23  24
ATOM     24  O   UNL     1      30.525 -23.293 -15.201  0.00  0.00    -0.348 OA
ATOM     25  C   UNL     1      30.213 -24.584 -15.707  0.00  0.00    +0.174 C 
ENDBRANCH  23  24
ENDBRANCH  22  23
ENDBRANCH  21  22
ENDBRANCH  20  21
ENDBRANCH  19  20
ENDBRANCH  18  19
ENDBRANCH  17  18
ENDBRANCH  16  17
ENDBRANCH  15  16
ENDBRANCH   6  15
TORSDOF 13
ENDMDL
MODEL 6
REMARK VINA RESULT:      -7.7      3.668     10.341
REMARK  Name = 446308
REMARK  13 active torsions:
REMARK  status: ('A' for Active; 'I' for Inactive)
REMARK    1  A    between atoms: C_1  and  C_7
REMARK    2  A    between atoms: C_6  and  O_15
REMARK    3  A    between atoms: C_7  and  C_10
REMARK    4  A    between atoms: C_10  and  C_11
REMARK    5  A    between atoms: O_15  and  C_16
REMARK    6  A    between atoms: C_16  and  C_17
REMARK    7  A    between atoms: C_17  and  O_18
REMARK    8  A    between atoms: O_18  and  C_19
REMARK    9  A    between atoms: C_19  and  C_20
REMARK   10  A    between atoms: C_20  and  O_21
REMARK   11  A    between atoms: O_21  and  C_22
REMARK   12  A    between atoms: C_22  and  C_23
REMARK   13  A    between atoms: C_23  and  O_24
REMARK                            x       y       z     vdW  Elec       q    Type
REMARK                         _______ _______ _______ _____ _____    ______ ____
ROOT
ATOM      1  C   UNL     1      35.245 -23.052 -16.332  0.00  0.00    -0.023 C 
ATOM      2  C   UNL     1      36.391 -22.382 -16.760  0.00  0.00    -0.001 C 
ATOM      3  C   UNL     1      34.119 -23.102 -17.152  0.00  0.00    -0.001 C 
ATOM      4  C   UNL     1      36.410 -21.761 -18.008  0.00  0.00    +0.037 C 
ATOM      5  C   UNL     1      34.137 -22.481 -18.401  0.00  0.00    +0.037 C 
ATOM      6  C   UNL     1      35.283 -21.811 -18.829  0.00  0.00    +0.139 C 
ENDROOT
BRANCH   1   7
ATOM      7  C   UNL     1      35.225 -23.738 -14.950  0.00  0.00    +0.019 C 
ATOM      8  C   UNL     1      35.550 -25.240 -15.197  0.00  0.00    +0.004 C 
ATOM      9  C   UNL     1      33.843 -23.719 -14.266  0.00  0.00    +0.004 C 
BRANCH   7  10
ATOM     10  C   UNL     1      36.329 -23.188 -13.976  0.00  0.00    +0.004 C 
BRANCH  10  11
ATOM     11  C   UNL     1      36.720 -23.919 -12.649  0.00  0.00    +0.000 C 
ATOM     12  C   UNL     1      37.258 -22.841 -11.676  0.00  0.00    +0.000 C 
ATOM     13  C   UNL     1      37.862 -24.931 -12.866  0.00  0.00    +0.000 C 
ATOM     14  C   UNL     1      35.547 -24.625 -11.959  0.00  0.00    +0.000 C 
ENDBRANCH  10  11
ENDBRANCH   7  10
ENDBRANCH   1   7
BRANCH   6  15
ATOM     15  O   UNL     1      35.302 -21.204 -20.047  0.00  0.00    -0.473 OA
BRANCH  15  16
ATOM     16  C   UNL     1      34.176 -20.398 -20.389  0.00  0.00    +0.237 C 
BRANCH  16  17
ATOM     17  C   UNL     1      34.649 -19.204 -21.197  0.00  0.00    +0.189 C 
BRANCH  17  18
ATOM     18  O   UNL     1      34.933 -19.625 -22.525  0.00  0.00    -0.347 OA
BRANCH  18  19
ATOM     19  C   UNL     1      35.016 -18.521 -23.415  0.00  0.00    +0.174 C 
BRANCH  19  20
ATOM     20  C   UNL     1      34.463 -18.931 -24.766  0.00  0.00    +0.174 C 
BRANCH  20  21
ATOM     21  O   UNL     1      34.324 -17.774 -25.582  0.00  0.00    -0.348 OA
BRANCH  21  22
ATOM     22  C   UNL     1      34.676 -16.593 -24.875  0.00  0.00    +0.174 C 
BRANCH  22  23
ATOM     23  C   UNL     1      33.643 -15.520 -25.162  0.00  0.00    +0.174 C 
BRANCH  23  24
ATOM     24  O   UNL     1      33.526 -15.353 -26.569  0.00  0.00    -0.348 OA
ATOM     25  C   UNL     1      33.284 -13.995 -26.915  0.00  0.00    +0.174 C 
ENDBRANCH  23  24
ENDBRANCH  22  23
ENDBRANCH  21  22
ENDBRANCH  20  21
ENDBRANCH  19  20
ENDBRANCH  18  19
ENDBRANCH  17  18
ENDBRANCH  16  17
ENDBRANCH  15  16
ENDBRANCH   6  15
TORSDOF 13
ENDMDL
MODEL 7
REMARK VINA RESULT:      -7.6      7.038     11.615
REMARK  Name = 446308
REMARK  13 active torsions:
REMARK  status: ('A' for Active; 'I' for Inactive)
REMARK    1  A    between atoms: C_1  and  C_7
REMARK    2  A    between atoms: C_6  and  O_15
REMARK    3  A    between atoms: C_7  and  C_10
REMARK    4  A    between atoms: C_10  and  C_11
REMARK    5  A    between atoms: O_15  and  C_16
REMARK    6  A    between atoms: C_16  and  C_17
REMARK    7  A    between atoms: C_17  and  O_18
REMARK    8  A    between atoms: O_18  and  C_19
REMARK    9  A    between atoms: C_19  and  C_20
REMARK   10  A    between atoms: C_20  and  O_21
REMARK   11  A    between atoms: O_21  and  C_22
REMARK   12  A    between atoms: C_22  and  C_23
REMARK   13  A    between atoms: C_23  and  O_24
REMARK                            x       y       z     vdW  Elec       q    Type
REMARK                         _______ _______ _______ _____ _____    ______ ____
ROOT
ATOM      1  C   UNL     1      33.707  -9.294 -23.623  0.00  0.00    -0.023 C 
ATOM      2  C   UNL     1      32.774 -10.154 -23.044  0.00  0.00    -0.001 C 
ATOM      3  C   UNL     1      34.598  -9.775 -24.582  0.00  0.00    -0.001 C 
ATOM      4  C   UNL     1      32.733 -11.496 -23.423  0.00  0.00    +0.037 C 
ATOM      5  C   UNL     1      34.557 -11.117 -24.961  0.00  0.00    +0.037 C 
ATOM      6  C   UNL     1      33.624 -11.977 -24.382  0.00  0.00    +0.139 C 
ENDROOT
BRANCH   1   7
ATOM      7  C   UNL     1      33.753  -7.811 -23.203  0.00  0.00    +0.019 C 
ATOM      8  C   UNL     1      35.234  -7.355 -23.349  0.00  0.00    +0.004 C 
ATOM      9  C   UNL     1      33.390  -7.572 -21.722  0.00  0.00    +0.004 C 
BRANCH   7  10
ATOM     10  C   UNL     1      32.895  -6.882 -24.136  0.00  0.00    +0.004 C 
BRANCH  10  11
ATOM     11  C   UNL     1      31.469  -6.377 -23.739  0.00  0.00    +0.000 C 
ATOM     12  C   UNL     1      31.039  -5.339 -24.805  0.00  0.00    +0.000 C 
ATOM     13  C   UNL     1      31.477  -5.642 -22.384  0.00  0.00    +0.000 C 
ATOM     14  C   UNL     1      30.404  -7.479 -23.707  0.00  0.00    +0.000 C 
ENDBRANCH  10  11
ENDBRANCH   7  10
ENDBRANCH   1   7
BRANCH   6  15
ATOM     15  O   UNL     1      33.583 -13.286 -24.751  0.00  0.00    -0.473 OA
BRANCH  15  16
ATOM     16  C   UNL     1      33.310 -13.566 -26.123  0.00  0.00    +0.237 C 
BRANCH  16  17
ATOM     17  C   UNL     1      32.845 -15.005 -26.252  0.00  0.00    +0.189 C 
BRANCH  17  18
ATOM     18  O   UNL     1      33.974 -15.866 -26.182  0.00  0.00    -0.347 OA
BRANCH  18  19
ATOM     19  C   UNL     1      34.226 -16.288 -24.850  0.00  0.00    +0.174 C 
BRANCH  19  20
ATOM     20  C   UNL     1      34.637 -17.748 -24.863  0.00  0.00    +0.174 C 
BRANCH  20  21
ATOM     21  O   UNL     1      34.947 -18.155 -23.535  0.00  0.00    -0.348 OA
BRANCH  21  22
ATOM     22  C   UNL     1      35.324 -17.050 -22.726  0.00  0.00    +0.174 C 
BRANCH  22  23
ATOM     23  C   UNL     1      34.865 -17.301 -21.303  0.00  0.00    +0.174 C 
BRANCH  23  24
ATOM     24  O   UNL     1      35.020 -16.107 -20.547  0.00  0.00    -0.348 OA
ATOM     25  C   UNL     1      34.401 -15.000 -21.188  0.00  0.00    +0.174 C 
ENDBRANCH  23  24
ENDBRANCH  22  23
ENDBRANCH  21  22
ENDBRANCH  20  21
ENDBRANCH  19  20
ENDBRANCH  18  19
ENDBRANCH  17  18
ENDBRANCH  16  17
ENDBRANCH  15  16
ENDBRANCH   6  15
TORSDOF 13
ENDMDL
MODEL 8
REMARK VINA RESULT:      -7.5      6.848     11.286
REMARK  Name = 446308
REMARK  13 active torsions:
REMARK  status: ('A' for Active; 'I' for Inactive)
REMARK    1  A    between atoms: C_1  and  C_7
REMARK    2  A    between atoms: C_6  and  O_15
REMARK    3  A    between atoms: C_7  and  C_10
REMARK    4  A    between atoms: C_10  and  C_11
REMARK    5  A    between atoms: O_15  and  C_16
REMARK    6  A    between atoms: C_16  and  C_17
REMARK    7  A    between atoms: C_17  and  O_18
REMARK    8  A    between atoms: O_18  and  C_19
REMARK    9  A    between atoms: C_19  and  C_20
REMARK   10  A    between atoms: C_20  and  O_21
REMARK   11  A    between atoms: O_21  and  C_22
REMARK   12  A    between atoms: C_22  and  C_23
REMARK   13  A    between atoms: C_23  and  O_24
REMARK                            x       y       z     vdW  Elec       q    Type
REMARK                         _______ _______ _______ _____ _____    ______ ____
ROOT
ATOM      1  C   UNL     1      33.330  -9.384 -23.245  0.00  0.00    -0.023 C 
ATOM      2  C   UNL     1      34.057 -10.086 -24.205  0.00  0.00    -0.001 C 
ATOM      3  C   UNL     1      32.382 -10.046 -22.465  0.00  0.00    -0.001 C 
ATOM      4  C   UNL     1      33.836 -11.451 -24.386  0.00  0.00    +0.037 C 
ATOM      5  C   UNL     1      32.161 -11.411 -22.646  0.00  0.00    +0.037 C 
ATOM      6  C   UNL     1      32.888 -12.114 -23.607  0.00  0.00    +0.139 C 
ENDROOT
BRANCH   1   7
ATOM      7  C   UNL     1      33.574  -7.873 -23.046  0.00  0.00    +0.019 C 
ATOM      8  C   UNL     1      35.086  -7.630 -23.323  0.00  0.00    +0.004 C 
ATOM      9  C   UNL     1      33.334  -7.389 -21.601  0.00  0.00    +0.004 C 
BRANCH   7  10
ATOM     10  C   UNL     1      32.775  -6.983 -24.066  0.00  0.00    +0.004 C 
BRANCH  10  11
ATOM     11  C   UNL     1      31.384  -6.355 -23.723  0.00  0.00    +0.000 C 
ATOM     12  C   UNL     1      30.332  -7.485 -23.837  0.00  0.00    +0.000 C 
ATOM     13  C   UNL     1      30.978  -5.269 -24.738  0.00  0.00    +0.000 C 
ATOM     14  C   UNL     1      31.294  -5.777 -22.306  0.00  0.00    +0.000 C 
ENDBRANCH  10  11
ENDBRANCH   7  10
ENDBRANCH   1   7
BRANCH   6  15
ATOM     15  O   UNL     1      32.673 -13.446 -23.784  0.00  0.00    -0.473 OA
BRANCH  15  16
ATOM     16  C   UNL     1      33.677 -14.179 -24.484  0.00  0.00    +0.237 C 
BRANCH  16  17
ATOM     17  C   UNL     1      33.067 -14.782 -25.736  0.00  0.00    +0.189 C 
BRANCH  17  18
ATOM     18  O   UNL     1      33.765 -15.977 -26.063  0.00  0.00    -0.347 OA
BRANCH  18  19
ATOM     19  C   UNL     1      34.574 -16.420 -24.982  0.00  0.00    +0.174 C 
BRANCH  19  20
ATOM     20  C   UNL     1      34.568 -17.936 -24.949  0.00  0.00    +0.174 C 
BRANCH  20  21
ATOM     21  O   UNL     1      35.379 -18.380 -23.868  0.00  0.00    -0.348 OA
BRANCH  21  22
ATOM     22  C   UNL     1      34.628 -19.139 -22.931  0.00  0.00    +0.174 C 
BRANCH  22  23
ATOM     23  C   UNL     1      35.056 -18.756 -21.528  0.00  0.00    +0.174 C 
BRANCH  23  24
ATOM     24  O   UNL     1      35.569 -17.429 -21.544  0.00  0.00    -0.348 OA
ATOM     25  C   UNL     1      34.595 -16.488 -21.113  0.00  0.00    +0.174 C 
ENDBRANCH  23  24
ENDBRANCH  22  23
ENDBRANCH  21  22
ENDBRANCH  20  21
ENDBRANCH  19  20
ENDBRANCH  18  19
ENDBRANCH  17  18
ENDBRANCH  16  17
ENDBRANCH  15  16
ENDBRANCH   6  15
TORSDOF 13
ENDMDL
MODEL 9
REMARK VINA RESULT:      -7.4      6.443     10.682
REMARK  Name = 446308
REMARK  13 active torsions:
REMARK  status: ('A' for Active; 'I' for Inactive)
REMARK    1  A    between atoms: C_1  and  C_7
REMARK    2  A    between atoms: C_6  and  O_15
REMARK    3  A    between atoms: C_7  and  C_10
REMARK    4  A    between atoms: C_10  and  C_11
REMARK    5  A    between atoms: O_15  and  C_16
REMARK    6  A    between atoms: C_16  and  C_17
REMARK    7  A    between atoms: C_17  and  O_18
REMARK    8  A    between atoms: O_18  and  C_19
REMARK    9  A    between atoms: C_19  and  C_20
REMARK   10  A    between atoms: C_20  and  O_21
REMARK   11  A    between atoms: O_21  and  C_22
REMARK   12  A    between atoms: C_22  and  C_23
REMARK   13  A    between atoms: C_23  and  O_24
REMARK                            x       y       z     vdW  Elec       q    Type
REMARK                         _______ _______ _______ _____ _____    ______ ____
ROOT
ATOM      1  C   UNL     1      32.866 -10.120 -23.038  0.00  0.00    -0.023 C 
ATOM      2  C   UNL     1      33.711 -10.701 -23.983  0.00  0.00    -0.001 C 
ATOM      3  C   UNL     1      31.995 -10.918 -22.296  0.00  0.00    -0.001 C 
ATOM      4  C   UNL     1      33.685 -12.080 -24.187  0.00  0.00    +0.037 C 
ATOM      5  C   UNL     1      31.969 -12.297 -22.501  0.00  0.00    +0.037 C 
ATOM      6  C   UNL     1      32.814 -12.879 -23.446  0.00  0.00    +0.139 C 
ENDROOT
BRANCH   1   7
ATOM      7  C   UNL     1      32.895  -8.594 -22.813  0.00  0.00    +0.019 C 
ATOM      8  C   UNL     1      34.308  -8.109 -23.250  0.00  0.00    +0.004 C 
ATOM      9  C   UNL     1      32.754  -8.180 -21.334  0.00  0.00    +0.004 C 
BRANCH   7  10
ATOM     10  C   UNL     1      31.854  -7.823 -23.703  0.00  0.00    +0.004 C 
BRANCH  10  11
ATOM     11  C   UNL     1      31.910  -6.273 -23.910  0.00  0.00    +0.000 C 
ATOM     12  C   UNL     1      30.597  -5.861 -24.621  0.00  0.00    +0.000 C 
ATOM     13  C   UNL     1      33.066  -5.859 -24.841  0.00  0.00    +0.000 C 
ATOM     14  C   UNL     1      32.003  -5.474 -22.605  0.00  0.00    +0.000 C 
ENDBRANCH  10  11
ENDBRANCH   7  10
ENDBRANCH   1   7
BRANCH   6  15
ATOM     15  O   UNL     1      32.789 -14.225 -23.646  0.00  0.00    -0.473 OA
BRANCH  15  16
ATOM     16  C   UNL     1      33.881 -14.795 -24.366  0.00  0.00    +0.237 C 
BRANCH  16  17
ATOM     17  C   UNL     1      33.380 -15.299 -25.707  0.00  0.00    +0.189 C 
BRANCH  17  18
ATOM     18  O   UNL     1      34.001 -16.545 -25.996  0.00  0.00    -0.347 OA
BRANCH  18  19
ATOM     19  C   UNL     1      34.797 -16.994 -24.909  0.00  0.00    +0.174 C 
BRANCH  19  20
ATOM     20  C   UNL     1      34.510 -18.462 -24.658  0.00  0.00    +0.174 C 
BRANCH  20  21
ATOM     21  O   UNL     1      35.240 -18.890 -23.514  0.00  0.00    -0.348 OA
BRANCH  21  22
ATOM     22  C   UNL     1      34.610 -18.476 -22.310  0.00  0.00    +0.174 C 
BRANCH  22  23
ATOM     23  C   UNL     1      35.233 -19.221 -21.145  0.00  0.00    +0.174 C 
BRANCH  23  24
ATOM     24  O   UNL     1      34.394 -20.311 -20.788  0.00  0.00    -0.348 OA
ATOM     25  C   UNL     1      33.035 -19.909 -20.678  0.00  0.00    +0.174 C 
ENDBRANCH  23  24
ENDBRANCH  22  23
ENDBRANCH  21  22
ENDBRANCH  20  21
ENDBRANCH  19  20
ENDBRANCH  18  19
ENDBRANCH  17  18
ENDBRANCH  16  17
ENDBRANCH  15  16
ENDBRANCH   6  15
TORSDOF 13
ENDMDL
