MODEL 1
REMARK VINA RESULT:      -8.8      0.000      0.000
REMARK  Name = 3022
REMARK  4 active torsions:
REMARK  status: ('A' for Active; 'I' for Inactive)
REMARK    1  A    between atoms: C_6  and  C_15
REMARK    2  A    between atoms: C_7  and  C_19
REMARK    3  A    between atoms: C_15  and  O_16
REMARK    4  A    between atoms: C_19  and  O_20
REMARK                            x       y       z     vdW  Elec       q    Type
REMARK                         _______ _______ _______ _____ _____    ______ ____
ROOT
ATOM      1  O   UNL     1      35.615 -23.833 -15.870  0.00  0.00    -0.453 OA
ATOM      2  C   UNL     1      34.762 -24.067 -13.789  0.00  0.00    +0.038 A 
ATOM      3  C   UNL     1      33.703 -23.702 -14.671  0.00  0.00    +0.038 A 
ATOM      4  C   UNL     1      35.908 -24.133 -14.574  0.00  0.00    +0.151 A 
ATOM      5  C   UNL     1      34.279 -23.572 -15.930  0.00  0.00    +0.151 A 
ATOM      6  C   UNL     1      37.172 -24.462 -14.086  0.00  0.00    +0.110 C 
ATOM      7  C   UNL     1      33.575 -23.222 -17.081  0.00  0.00    +0.110 C 
ATOM      8  C   UNL     1      34.875 -24.348 -12.415  0.00  0.00    +0.003 C 
ATOM      9  C   UNL     1      32.321 -23.468 -14.541  0.00  0.00    +0.003 C 
ATOM     10  C   UNL     1      37.260 -24.736 -12.719  0.00  0.00    +0.010 C 
ATOM     11  C   UNL     1      32.205 -22.995 -16.927  0.00  0.00    +0.010 C 
ATOM     12  C   UNL     1      36.133 -24.681 -11.896  0.00  0.00    +0.000 C 
ATOM     13  C   UNL     1      31.586 -23.114 -15.680  0.00  0.00    +0.000 C 
ENDROOT
BRANCH   6  15
ATOM     14  O   UNL     1      39.172 -25.431 -14.972  0.00  0.00    -0.245 OA
ATOM     15  C   UNL     1      38.339 -24.516 -14.946  0.00  0.00    +0.341 C 
BRANCH  15  16
ATOM     16  O   UNL     1      38.443 -23.426 -15.757  0.00  0.00    -0.477 OA
ATOM     17  H   UNL     1      39.285 -23.135 -16.046  0.00  0.00    +0.295 HD
ENDBRANCH  15  16
ENDBRANCH   6  15
BRANCH   7  19
ATOM     18  O   UNL     1      33.838 -23.620 -19.425  0.00  0.00    -0.245 OA
ATOM     19  C   UNL     1      34.224 -23.098 -18.372  0.00  0.00    +0.341 C 
BRANCH  19  20
ATOM     20  O   UNL     1      35.345 -22.324 -18.323  0.00  0.00    -0.477 OA
ATOM     21  H   UNL     1      35.295 -21.446 -17.999  0.00  0.00    +0.295 HD
ENDBRANCH  19  20
ENDBRANCH   7  19
TORSDOF 4
ENDMDL
MODEL 2
REMARK VINA RESULT:      -8.7      0.003      4.872
REMARK  Name = 3022
REMARK  4 active torsions:
REMARK  status: ('A' for Active; 'I' for Inactive)
REMARK    1  A    between atoms: C_6  and  C_15
REMARK    2  A    between atoms: C_7  and  C_19
REMARK    3  A    between atoms: C_15  and  O_16
REMARK    4  A    between atoms: C_19  and  O_20
REMARK                            x       y       z     vdW  Elec       q    Type
REMARK                         _______ _______ _______ _____ _____    ______ ____
ROOT
ATOM      1  O   UNL     1      35.617 -23.831 -15.871  0.00  0.00    -0.453 OA
ATOM      2  C   UNL     1      33.703 -23.702 -14.673  0.00  0.00    +0.038 A 
ATOM      3  C   UNL     1      34.762 -24.067 -13.790  0.00  0.00    +0.038 A 
ATOM      4  C   UNL     1      34.281 -23.570 -15.931  0.00  0.00    +0.151 A 
ATOM      5  C   UNL     1      35.909 -24.131 -14.574  0.00  0.00    +0.151 A 
ATOM      6  C   UNL     1      33.577 -23.221 -17.083  0.00  0.00    +0.110 C 
ATOM      7  C   UNL     1      37.172 -24.461 -14.086  0.00  0.00    +0.110 C 
ATOM      8  C   UNL     1      32.321 -23.468 -14.544  0.00  0.00    +0.003 C 
ATOM      9  C   UNL     1      34.874 -24.348 -12.416  0.00  0.00    +0.003 C 
ATOM     10  C   UNL     1      32.207 -22.995 -16.930  0.00  0.00    +0.010 C 
ATOM     11  C   UNL     1      37.259 -24.736 -12.719  0.00  0.00    +0.010 C 
ATOM     12  C   UNL     1      31.587 -23.115 -15.685  0.00  0.00    +0.000 C 
ATOM     13  C   UNL     1      36.131 -24.682 -11.896  0.00  0.00    +0.000 C 
ENDROOT
BRANCH   6  15
ATOM     14  O   UNL     1      33.839 -23.621 -19.427  0.00  0.00    -0.245 OA
ATOM     15  C   UNL     1      34.226 -23.098 -18.374  0.00  0.00    +0.341 C 
BRANCH  15  16
ATOM     16  O   UNL     1      35.347 -22.325 -18.326  0.00  0.00    -0.477 OA
ATOM     17  H   UNL     1      35.680 -21.933 -19.109  0.00  0.00    +0.295 HD
ENDBRANCH  15  16
ENDBRANCH   6  15
BRANCH   7  19
ATOM     18  O   UNL     1      39.173 -25.430 -14.972  0.00  0.00    -0.245 OA
ATOM     19  C   UNL     1      38.339 -24.516 -14.946  0.00  0.00    +0.341 C 
BRANCH  19  20
ATOM     20  O   UNL     1      38.443 -23.426 -15.759  0.00  0.00    -0.477 OA
ATOM     21  H   UNL     1      37.776 -23.249 -16.392  0.00  0.00    +0.295 HD
ENDBRANCH  19  20
ENDBRANCH   7  19
TORSDOF 4
ENDMDL
MODEL 3
REMARK VINA RESULT:      -8.7      2.768      6.121
REMARK  Name = 3022
REMARK  4 active torsions:
REMARK  status: ('A' for Active; 'I' for Inactive)
REMARK    1  A    between atoms: C_6  and  C_15
REMARK    2  A    between atoms: C_7  and  C_19
REMARK    3  A    between atoms: C_15  and  O_16
REMARK    4  A    between atoms: C_19  and  O_20
REMARK                            x       y       z     vdW  Elec       q    Type
REMARK                         _______ _______ _______ _____ _____    ______ ____
ROOT
ATOM      1  O   UNL     1      33.785 -23.980 -13.458  0.00  0.00    -0.453 OA
ATOM      2  C   UNL     1      33.866 -23.392 -15.640  0.00  0.00    +0.038 A 
ATOM      3  C   UNL     1      35.200 -23.448 -15.139  0.00  0.00    +0.038 A 
ATOM      4  C   UNL     1      33.042 -23.726 -14.571  0.00  0.00    +0.151 A 
ATOM      5  C   UNL     1      35.093 -23.812 -13.801  0.00  0.00    +0.151 A 
ATOM      6  C   UNL     1      31.651 -23.788 -14.645  0.00  0.00    +0.110 C 
ATOM      7  C   UNL     1      36.181 -23.976 -12.945  0.00  0.00    +0.110 C 
ATOM      8  C   UNL     1      33.268 -23.097 -16.879  0.00  0.00    +0.003 C 
ATOM      9  C   UNL     1      36.485 -23.231 -15.672  0.00  0.00    +0.003 C 
ATOM     10  C   UNL     1      31.080 -23.489 -15.885  0.00  0.00    +0.010 C 
ATOM     11  C   UNL     1      37.446 -23.755 -13.497  0.00  0.00    +0.010 C 
ATOM     12  C   UNL     1      31.872 -23.150 -16.984  0.00  0.00    +0.000 C 
ATOM     13  C   UNL     1      37.598 -23.388 -14.836  0.00  0.00    +0.000 C 
ENDROOT
BRANCH   6  15
ATOM     14  O   UNL     1      30.772 -23.507 -12.437  0.00  0.00    -0.245 OA
ATOM     15  C   UNL     1      30.833 -24.140 -13.500  0.00  0.00    +0.341 C 
BRANCH  15  16
ATOM     16  O   UNL     1      30.108 -25.275 -13.703  0.00  0.00    -0.477 OA
ATOM     17  H   UNL     1      29.736 -25.730 -12.974  0.00  0.00    +0.295 HD
ENDBRANCH  15  16
ENDBRANCH   6  15
BRANCH   7  19
ATOM     18  O   UNL     1      36.722 -23.974 -10.615  0.00  0.00    -0.245 OA
ATOM     19  C   UNL     1      36.016 -24.356 -11.555  0.00  0.00    +0.341 C 
BRANCH  19  20
ATOM     20  O   UNL     1      34.969 -25.210 -11.366  0.00  0.00    -0.477 OA
ATOM     21  H   UNL     1      35.072 -25.965 -10.821  0.00  0.00    +0.295 HD
ENDBRANCH  19  20
ENDBRANCH   7  19
TORSDOF 4
ENDMDL
MODEL 4
REMARK VINA RESULT:      -8.7      2.767      3.972
REMARK  Name = 3022
REMARK  4 active torsions:
REMARK  status: ('A' for Active; 'I' for Inactive)
REMARK    1  A    between atoms: C_6  and  C_15
REMARK    2  A    between atoms: C_7  and  C_19
REMARK    3  A    between atoms: C_15  and  O_16
REMARK    4  A    between atoms: C_19  and  O_20
REMARK                            x       y       z     vdW  Elec       q    Type
REMARK                         _______ _______ _______ _____ _____    ______ ____
ROOT
ATOM      1  O   UNL     1      33.784 -23.978 -13.459  0.00  0.00    -0.453 OA
ATOM      2  C   UNL     1      35.200 -23.448 -15.140  0.00  0.00    +0.038 A 
ATOM      3  C   UNL     1      33.866 -23.390 -15.641  0.00  0.00    +0.038 A 
ATOM      4  C   UNL     1      35.091 -23.811 -13.802  0.00  0.00    +0.151 A 
ATOM      5  C   UNL     1      33.041 -23.723 -14.572  0.00  0.00    +0.151 A 
ATOM      6  C   UNL     1      36.179 -23.977 -12.946  0.00  0.00    +0.110 C 
ATOM      7  C   UNL     1      31.650 -23.784 -14.647  0.00  0.00    +0.110 C 
ATOM      8  C   UNL     1      36.485 -23.231 -15.672  0.00  0.00    +0.003 C 
ATOM      9  C   UNL     1      33.269 -23.093 -16.880  0.00  0.00    +0.003 C 
ATOM     10  C   UNL     1      37.444 -23.758 -13.497  0.00  0.00    +0.010 C 
ATOM     11  C   UNL     1      31.080 -23.485 -15.887  0.00  0.00    +0.010 C 
ATOM     12  C   UNL     1      37.597 -23.391 -14.836  0.00  0.00    +0.000 C 
ATOM     13  C   UNL     1      31.872 -23.147 -16.986  0.00  0.00    +0.000 C 
ENDROOT
BRANCH   6  15
ATOM     14  O   UNL     1      36.724 -23.980 -10.616  0.00  0.00    -0.245 OA
ATOM     15  C   UNL     1      36.014 -24.359 -11.556  0.00  0.00    +0.341 C 
BRANCH  15  16
ATOM     16  O   UNL     1      34.966 -25.209 -11.367  0.00  0.00    -0.477 OA
ATOM     17  H   UNL     1      34.557 -25.271 -10.527  0.00  0.00    +0.295 HD
ENDBRANCH  15  16
ENDBRANCH   6  15
BRANCH   7  19
ATOM     18  O   UNL     1      30.772 -23.509 -12.438  0.00  0.00    -0.245 OA
ATOM     19  C   UNL     1      30.833 -24.138 -13.502  0.00  0.00    +0.341 C 
BRANCH  19  20
ATOM     20  O   UNL     1      30.105 -25.273 -13.707  0.00  0.00    -0.477 OA
ATOM     21  H   UNL     1      29.438 -25.289 -14.365  0.00  0.00    +0.295 HD
ENDBRANCH  19  20
ENDBRANCH   7  19
TORSDOF 4
ENDMDL
MODEL 5
REMARK VINA RESULT:      -8.5      3.025      5.659
REMARK  Name = 3022
REMARK  4 active torsions:
REMARK  status: ('A' for Active; 'I' for Inactive)
REMARK    1  A    between atoms: C_6  and  C_15
REMARK    2  A    between atoms: C_7  and  C_19
REMARK    3  A    between atoms: C_15  and  O_16
REMARK    4  A    between atoms: C_19  and  O_20
REMARK                            x       y       z     vdW  Elec       q    Type
REMARK                         _______ _______ _______ _____ _____    ______ ____
ROOT
ATOM      1  O   UNL     1      31.599 -23.291 -16.970  0.00  0.00    -0.453 OA
ATOM      2  C   UNL     1      31.900 -24.012 -14.848  0.00  0.00    +0.038 A 
ATOM      3  C   UNL     1      33.171 -23.653 -15.386  0.00  0.00    +0.038 A 
ATOM      4  C   UNL     1      30.975 -23.770 -15.858  0.00  0.00    +0.151 A 
ATOM      5  C   UNL     1      32.929 -23.219 -16.685  0.00  0.00    +0.151 A 
ATOM      6  C   UNL     1      29.604 -23.994 -15.734  0.00  0.00    +0.110 C 
ATOM      7  C   UNL     1      33.921 -22.777 -17.559  0.00  0.00    +0.110 C 
ATOM      8  C   UNL     1      31.432 -24.513 -13.619  0.00  0.00    +0.003 C 
ATOM      9  C   UNL     1      34.497 -23.648 -14.915  0.00  0.00    +0.003 C 
ATOM     10  C   UNL     1      29.164 -24.493 -14.505  0.00  0.00    +0.010 C 
ATOM     11  C   UNL     1      35.229 -22.781 -17.070  0.00  0.00    +0.010 C 
ATOM     12  C   UNL     1      30.060 -24.748 -13.464  0.00  0.00    +0.000 C 
ATOM     13  C   UNL     1      35.515 -23.209 -15.772  0.00  0.00    +0.000 C 
ENDROOT
BRANCH   6  15
ATOM     14  O   UNL     1      27.908 -24.553 -17.326  0.00  0.00    -0.245 OA
ATOM     15  C   UNL     1      28.679 -23.728 -16.819  0.00  0.00    +0.341 C 
BRANCH  15  16
ATOM     16  O   UNL     1      28.734 -22.437 -17.250  0.00  0.00    -0.477 OA
ATOM     17  H   UNL     1      28.700 -22.246 -18.165  0.00  0.00    +0.295 HD
ENDBRANCH  15  16
ENDBRANCH   6  15
BRANCH   7  19
ATOM     18  O   UNL     1      33.024 -21.291 -19.206  0.00  0.00    -0.245 OA
ATOM     19  C   UNL     1      33.616 -22.335 -18.907  0.00  0.00    +0.341 C 
BRANCH  19  20
ATOM     20  O   UNL     1      34.059 -23.206 -19.857  0.00  0.00    -0.477 OA
ATOM     21  H   UNL     1      34.181 -22.915 -20.739  0.00  0.00    +0.295 HD
ENDBRANCH  19  20
ENDBRANCH   7  19
TORSDOF 4
ENDMDL
MODEL 6
REMARK VINA RESULT:      -8.5      3.029      4.845
REMARK  Name = 3022
REMARK  4 active torsions:
REMARK  status: ('A' for Active; 'I' for Inactive)
REMARK    1  A    between atoms: C_6  and  C_15
REMARK    2  A    between atoms: C_7  and  C_19
REMARK    3  A    between atoms: C_15  and  O_16
REMARK    4  A    between atoms: C_19  and  O_20
REMARK                            x       y       z     vdW  Elec       q    Type
REMARK                         _______ _______ _______ _____ _____    ______ ____
ROOT
ATOM      1  O   UNL     1      31.612 -23.289 -16.975  0.00  0.00    -0.453 OA
ATOM      2  C   UNL     1      33.187 -23.643 -15.391  0.00  0.00    +0.038 A 
ATOM      3  C   UNL     1      31.917 -24.002 -14.851  0.00  0.00    +0.038 A 
ATOM      4  C   UNL     1      32.942 -23.215 -16.691  0.00  0.00    +0.151 A 
ATOM      5  C   UNL     1      30.990 -23.766 -15.861  0.00  0.00    +0.151 A 
ATOM      6  C   UNL     1      33.932 -22.773 -17.569  0.00  0.00    +0.110 C 
ATOM      7  C   UNL     1      29.620 -23.990 -15.733  0.00  0.00    +0.110 C 
ATOM      8  C   UNL     1      34.514 -23.635 -14.923  0.00  0.00    +0.003 C 
ATOM      9  C   UNL     1      31.452 -24.500 -13.619  0.00  0.00    +0.003 C 
ATOM     10  C   UNL     1      35.241 -22.773 -17.081  0.00  0.00    +0.010 C 
ATOM     11  C   UNL     1      29.182 -24.485 -14.501  0.00  0.00    +0.010 C 
ATOM     12  C   UNL     1      35.530 -23.197 -15.782  0.00  0.00    +0.000 C 
ATOM     13  C   UNL     1      30.080 -24.736 -13.461  0.00  0.00    +0.000 C 
ENDROOT
BRANCH   6  15
ATOM     14  O   UNL     1      33.058 -21.276 -19.217  0.00  0.00    -0.245 OA
ATOM     15  C   UNL     1      33.626 -22.334 -18.917  0.00  0.00    +0.341 C 
BRANCH  15  16
ATOM     16  O   UNL     1      34.035 -23.224 -19.864  0.00  0.00    -0.477 OA
ATOM     17  H   UNL     1      33.407 -23.754 -20.312  0.00  0.00    +0.295 HD
ENDBRANCH  15  16
ENDBRANCH   6  15
BRANCH   7  19
ATOM     18  O   UNL     1      27.924 -24.553 -17.324  0.00  0.00    -0.245 OA
ATOM     19  C   UNL     1      28.693 -23.727 -16.817  0.00  0.00    +0.341 C 
BRANCH  19  20
ATOM     20  O   UNL     1      28.745 -22.434 -17.248  0.00  0.00    -0.477 OA
ATOM     21  H   UNL     1      28.474 -21.740 -16.680  0.00  0.00    +0.295 HD
ENDBRANCH  19  20
ENDBRANCH   7  19
TORSDOF 4
ENDMDL
MODEL 7
REMARK VINA RESULT:      -8.3      0.930      4.933
REMARK  Name = 3022
REMARK  4 active torsions:
REMARK  status: ('A' for Active; 'I' for Inactive)
REMARK    1  A    between atoms: C_6  and  C_15
REMARK    2  A    between atoms: C_7  and  C_19
REMARK    3  A    between atoms: C_15  and  O_16
REMARK    4  A    between atoms: C_19  and  O_20
REMARK                            x       y       z     vdW  Elec       q    Type
REMARK                         _______ _______ _______ _____ _____    ______ ____
ROOT
ATOM      1  O   UNL     1      35.001 -23.371 -15.900  0.00  0.00    -0.453 OA
ATOM      2  C   UNL     1      33.315 -23.698 -14.430  0.00  0.00    +0.038 A 
ATOM      3  C   UNL     1      34.551 -23.891 -13.746  0.00  0.00    +0.038 A 
ATOM      4  C   UNL     1      33.648 -23.381 -15.742  0.00  0.00    +0.151 A 
ATOM      5  C   UNL     1      35.549 -23.679 -14.692  0.00  0.00    +0.151 A 
ATOM      6  C   UNL     1      32.716 -23.116 -16.744  0.00  0.00    +0.110 C 
ATOM      7  C   UNL     1      36.914 -23.774 -14.423  0.00  0.00    +0.110 C 
ATOM      8  C   UNL     1      31.953 -23.755 -14.081  0.00  0.00    +0.003 C 
ATOM      9  C   UNL     1      34.934 -24.221 -12.433  0.00  0.00    +0.003 C 
ATOM     10  C   UNL     1      31.370 -23.180 -16.374  0.00  0.00    +0.010 C 
ATOM     11  C   UNL     1      37.269 -24.103 -13.113  0.00  0.00    +0.010 C 
ATOM     12  C   UNL     1      30.992 -23.493 -15.067  0.00  0.00    +0.000 C 
ATOM     13  C   UNL     1      36.299 -24.324 -12.133  0.00  0.00    +0.000 C 
ENDROOT
BRANCH   6  15
ATOM     14  O   UNL     1      32.619 -21.902 -18.803  0.00  0.00    -0.245 OA
ATOM     15  C   UNL     1      33.114 -22.792 -18.101  0.00  0.00    +0.341 C 
BRANCH  15  16
ATOM     16  O   UNL     1      34.123 -23.587 -18.555  0.00  0.00    -0.477 OA
ATOM     17  H   UNL     1      34.958 -23.573 -18.131  0.00  0.00    +0.295 HD
ENDBRANCH  15  16
ENDBRANCH   6  15
BRANCH   7  19
ATOM     18  O   UNL     1      39.052 -24.034 -15.465  0.00  0.00    -0.245 OA
ATOM     19  C   UNL     1      37.916 -23.544 -15.446  0.00  0.00    +0.341 C 
BRANCH  19  20
ATOM     20  O   UNL     1      37.481 -22.703 -16.428  0.00  0.00    -0.477 OA
ATOM     21  H   UNL     1      38.060 -22.057 -16.782  0.00  0.00    +0.295 HD
ENDBRANCH  19  20
ENDBRANCH   7  19
TORSDOF 4
ENDMDL
MODEL 8
REMARK VINA RESULT:      -8.2      9.295     11.929
REMARK  Name = 3022
REMARK  4 active torsions:
REMARK  status: ('A' for Active; 'I' for Inactive)
REMARK    1  A    between atoms: C_6  and  C_15
REMARK    2  A    between atoms: C_7  and  C_19
REMARK    3  A    between atoms: C_15  and  O_16
REMARK    4  A    between atoms: C_19  and  O_20
REMARK                            x       y       z     vdW  Elec       q    Type
REMARK                         _______ _______ _______ _____ _____    ______ ____
ROOT
ATOM      1  O   UNL     1      34.028 -16.515 -24.709  0.00  0.00    -0.453 OA
ATOM      2  C   UNL     1      34.539 -16.291 -22.517  0.00  0.00    +0.038 A 
ATOM      3  C   UNL     1      34.180 -15.009 -23.029  0.00  0.00    +0.038 A 
ATOM      4  C   UNL     1      34.428 -17.174 -23.586  0.00  0.00    +0.151 A 
ATOM      5  C   UNL     1      33.877 -15.204 -24.372  0.00  0.00    +0.151 A 
ATOM      6  C   UNL     1      34.693 -18.541 -23.502  0.00  0.00    +0.110 C 
ATOM      7  C   UNL     1      33.478 -14.187 -25.239  0.00  0.00    +0.110 C 
ATOM      8  C   UNL     1      34.943 -16.799 -21.269  0.00  0.00    +0.003 C 
ATOM      9  C   UNL     1      34.080 -13.708 -22.502  0.00  0.00    +0.003 C 
ATOM     10  C   UNL     1      35.094 -19.022 -22.253  0.00  0.00    +0.010 C 
ATOM     11  C   UNL     1      33.386 -12.904 -24.693  0.00  0.00    +0.010 C 
ATOM     12  C   UNL     1      35.217 -18.169 -21.154  0.00  0.00    +0.000 C 
ATOM     13  C   UNL     1      33.681 -12.666 -23.349  0.00  0.00    +0.000 C 
ENDROOT
BRANCH   6  15
ATOM     14  O   UNL     1      35.276 -20.407 -24.881  0.00  0.00    -0.245 OA
ATOM     15  C   UNL     1      34.565 -19.421 -24.648  0.00  0.00    +0.341 C 
BRANCH  15  16
ATOM     16  O   UNL     1      33.550 -19.054 -25.480  0.00  0.00    -0.477 OA
ATOM     17  H   UNL     1      33.593 -19.262 -26.392  0.00  0.00    +0.295 HD
ENDBRANCH  15  16
ENDBRANCH   6  15
BRANCH   7  19
ATOM     18  O   UNL     1      33.599 -13.789 -27.595  0.00  0.00    -0.245 OA
ATOM     19  C   UNL     1      33.174 -14.441 -26.634  0.00  0.00    +0.341 C 
BRANCH  19  20
ATOM     20  O   UNL     1      32.342 -15.509 -26.803  0.00  0.00    -0.477 OA
ATOM     21  H   UNL     1      32.325 -16.195 -26.165  0.00  0.00    +0.295 HD
ENDBRANCH  19  20
ENDBRANCH   7  19
TORSDOF 4
ENDMDL
MODEL 9
REMARK VINA RESULT:      -8.2      9.298     12.554
REMARK  Name = 3022
REMARK  4 active torsions:
REMARK  status: ('A' for Active; 'I' for Inactive)
REMARK    1  A    between atoms: C_6  and  C_15
REMARK    2  A    between atoms: C_7  and  C_19
REMARK    3  A    between atoms: C_15  and  O_16
REMARK    4  A    between atoms: C_19  and  O_20
REMARK                            x       y       z     vdW  Elec       q    Type
REMARK                         _______ _______ _______ _____ _____    ______ ____
ROOT
ATOM      1  O   UNL     1      34.030 -16.519 -24.717  0.00  0.00    -0.453 OA
ATOM      2  C   UNL     1      34.185 -15.010 -23.040  0.00  0.00    +0.038 A 
ATOM      3  C   UNL     1      34.543 -16.291 -22.527  0.00  0.00    +0.038 A 
ATOM      4  C   UNL     1      33.882 -15.207 -24.383  0.00  0.00    +0.151 A 
ATOM      5  C   UNL     1      34.431 -17.177 -23.594  0.00  0.00    +0.151 A 
ATOM      6  C   UNL     1      33.482 -14.192 -25.252  0.00  0.00    +0.110 C 
ATOM      7  C   UNL     1      34.694 -18.543 -23.507  0.00  0.00    +0.110 C 
ATOM      8  C   UNL     1      34.087 -13.708 -22.516  0.00  0.00    +0.003 C 
ATOM      9  C   UNL     1      34.948 -16.797 -21.278  0.00  0.00    +0.003 C 
ATOM     10  C   UNL     1      33.391 -12.908 -24.708  0.00  0.00    +0.010 C 
ATOM     11  C   UNL     1      35.095 -19.022 -22.257  0.00  0.00    +0.010 C 
ATOM     12  C   UNL     1      33.688 -12.667 -23.365  0.00  0.00    +0.000 C 
ATOM     13  C   UNL     1      35.220 -18.167 -21.160  0.00  0.00    +0.000 C 
ENDROOT
BRANCH   6  15
ATOM     14  O   UNL     1      33.595 -13.794 -27.608  0.00  0.00    -0.245 OA
ATOM     15  C   UNL     1      33.174 -14.448 -26.646  0.00  0.00    +0.341 C 
BRANCH  15  16
ATOM     16  O   UNL     1      32.345 -15.517 -26.811  0.00  0.00    -0.477 OA
ATOM     17  H   UNL     1      32.592 -16.218 -27.380  0.00  0.00    +0.295 HD
ENDBRANCH  15  16
ENDBRANCH   6  15
BRANCH   7  19
ATOM     18  O   UNL     1      35.271 -20.411 -24.886  0.00  0.00    -0.245 OA
ATOM     19  C   UNL     1      34.561 -19.425 -24.651  0.00  0.00    +0.341 C 
BRANCH  19  20
ATOM     20  O   UNL     1      33.543 -19.059 -25.480  0.00  0.00    -0.477 OA
ATOM     21  H   UNL     1      32.873 -18.482 -25.172  0.00  0.00    +0.295 HD
ENDBRANCH  19  20
ENDBRANCH   7  19
TORSDOF 4
ENDMDL
