MODEL 1
REMARK VINA RESULT:     -12.1      0.000      0.000
REMARK  Name = 24986635
REMARK  5 active torsions:
REMARK  status: ('A' for Active; 'I' for Inactive)
REMARK    1  A    between atoms: C_1  and  C_8
REMARK    2  A    between atoms: C_4  and  S_18
REMARK    3  A    between atoms: C_8  and  C_15
REMARK    4  A    between atoms: S_18  and  C_19
REMARK    5  A    between atoms: C_20  and  C_27
REMARK                            x       y       z     vdW  Elec       q    Type
REMARK                         _______ _______ _______ _____ _____    ______ ____
ROOT
ATOM      1  C   UNL     1      36.527 -23.365 -15.346  0.00  0.00    -0.014 C 
ATOM      2  C   UNL     1      35.344 -23.442 -16.079  0.00  0.00    +0.003 C 
ATOM      3  C   UNL     1      37.541 -22.495 -15.749  0.00  0.00    -0.004 C 
ATOM      4  C   UNL     1      35.173 -22.649 -17.214  0.00  0.00    +0.029 C 
ATOM      5  C   UNL     1      37.371 -21.702 -16.883  0.00  0.00    +0.000 C 
ATOM      6  C   UNL     1      36.187 -21.779 -17.617  0.00  0.00    +0.006 C 
ENDROOT
BRANCH   1   8
ATOM      7  O   UNL     1      36.823 -24.368 -11.167  0.00  0.00    -0.354 OA
ATOM      8  C   UNL     1      36.717 -24.238 -14.095  0.00  0.00    +0.092 C 
ATOM      9  C   UNL     1      35.469 -24.153 -13.178  0.00  0.00    +0.045 C 
ATOM     10  C   UNL     1      37.963 -23.871 -13.248  0.00  0.00    +0.045 C 
ATOM     11  C   UNL     1      35.667 -24.857 -11.837  0.00  0.00    +0.143 C 
ATOM     12  C   UNL     1      38.010 -24.612 -11.914  0.00  0.00    +0.143 C 
BRANCH   8  15
ATOM     13  O   UNL     1      38.000 -26.187 -14.680  0.00  0.00    -0.275 OA
ATOM     14  N   UNL     1      35.710 -26.302 -14.867  0.00  0.00    -0.329 N 
ATOM     15  C   UNL     1      36.893 -25.668 -14.567  0.00  0.00    +0.222 C 
ATOM     16  H   UNL     1      35.717 -27.235 -15.182  0.00  0.00    +0.145 HD
ATOM     17  H   UNL     1      34.855 -25.823 -14.766  0.00  0.00    +0.145 HD
ENDBRANCH   8  15
ENDBRANCH   1   8
BRANCH   4  18
ATOM     18  S   UNL     1      33.661 -22.747 -18.152  0.00  0.00    -0.087 S 
BRANCH  18  19
ATOM     19  C   UNL     1      33.957 -21.526 -19.422  0.00  0.00    +0.029 C 
ATOM     20  C   UNL     1      34.422 -19.620 -21.405  0.00  0.00    +0.015 C 
ATOM     21  C   UNL     1      32.911 -20.723 -19.875  0.00  0.00    +0.007 C 
ATOM     22  C   UNL     1      35.236 -21.377 -19.960  0.00  0.00    +0.007 C 
ATOM     23  C   UNL     1      33.144 -19.770 -20.866  0.00  0.00    +0.002 C 
ATOM     24  C   UNL     1      35.469 -20.424 -20.951  0.00  0.00    +0.002 C 
BRANCH  20  27
ATOM     25  N   UNL     1      34.873 -17.309 -22.181  0.00  0.00    -0.210 N 
ATOM     26  N   UNL     1      35.071 -16.573 -23.287  0.00  0.00    -0.176 NA
ATOM     27  C   UNL     1      34.662 -18.634 -22.430  0.00  0.00    +0.071 C 
ATOM     28  C   UNL     1      34.727 -18.774 -23.795  0.00  0.00    +0.039 C 
ATOM     29  C   UNL     1      34.899 -16.656 -20.892  0.00  0.00    +0.140 C 
ATOM     30  C   UNL     1      34.981 -17.473 -24.270  0.00  0.00    +0.119 C 
ENDBRANCH  20  27
ENDBRANCH  18  19
ENDBRANCH   4  18
TORSDOF 5
ENDMDL
MODEL 2
REMARK VINA RESULT:     -11.8      1.249      2.230
REMARK  Name = 24986635
REMARK  5 active torsions:
REMARK  status: ('A' for Active; 'I' for Inactive)
REMARK    1  A    between atoms: C_1  and  C_8
REMARK    2  A    between atoms: C_4  and  S_18
REMARK    3  A    between atoms: C_8  and  C_15
REMARK    4  A    between atoms: S_18  and  C_19
REMARK    5  A    between atoms: C_20  and  C_27
REMARK                            x       y       z     vdW  Elec       q    Type
REMARK                         _______ _______ _______ _____ _____    ______ ____
ROOT
ATOM      1  C   UNL     1      36.474 -23.371 -15.629  0.00  0.00    -0.014 C 
ATOM      2  C   UNL     1      35.363 -23.457 -16.466  0.00  0.00    +0.003 C 
ATOM      3  C   UNL     1      37.440 -22.388 -15.851  0.00  0.00    -0.004 C 
ATOM      4  C   UNL     1      35.215 -22.561 -17.525  0.00  0.00    +0.029 C 
ATOM      5  C   UNL     1      37.293 -21.492 -16.909  0.00  0.00    +0.000 C 
ATOM      6  C   UNL     1      36.181 -21.578 -17.747  0.00  0.00    +0.006 C 
ENDROOT
BRANCH   1   8
ATOM      7  O   UNL     1      38.244 -26.475 -13.222  0.00  0.00    -0.354 OA
ATOM      8  C   UNL     1      36.638 -24.357 -14.461  0.00  0.00    +0.092 C 
ATOM      9  C   UNL     1      37.977 -24.107 -13.721  0.00  0.00    +0.045 C 
ATOM     10  C   UNL     1      36.589 -25.849 -14.879  0.00  0.00    +0.045 C 
ATOM     11  C   UNL     1      38.279 -25.167 -12.663  0.00  0.00    +0.143 C 
ATOM     12  C   UNL     1      36.957 -26.795 -13.738  0.00  0.00    +0.143 C 
BRANCH   8  15
ATOM     13  O   UNL     1      34.415 -24.705 -13.608  0.00  0.00    -0.275 OA
ATOM     14  N   UNL     1      35.756 -23.172 -12.540  0.00  0.00    -0.329 N 
ATOM     15  C   UNL     1      35.487 -24.115 -13.504  0.00  0.00    +0.222 C 
ATOM     16  H   UNL     1      35.072 -22.943 -11.869  0.00  0.00    +0.145 HD
ATOM     17  H   UNL     1      36.634 -22.725 -12.520  0.00  0.00    +0.145 HD
ENDBRANCH   8  15
ENDBRANCH   1   8
BRANCH   4  18
ATOM     18  S   UNL     1      33.795 -22.670 -18.595  0.00  0.00    -0.087 S 
BRANCH  18  19
ATOM     19  C   UNL     1      34.053 -21.261 -19.664  0.00  0.00    +0.029 C 
ATOM     20  C   UNL     1      34.455 -19.063 -21.332  0.00  0.00    +0.015 C 
ATOM     21  C   UNL     1      35.335 -20.963 -20.127  0.00  0.00    +0.007 C 
ATOM     22  C   UNL     1      32.973 -20.461 -20.035  0.00  0.00    +0.007 C 
ATOM     23  C   UNL     1      35.535 -19.864 -20.961  0.00  0.00    +0.002 C 
ATOM     24  C   UNL     1      33.174 -19.362 -20.869  0.00  0.00    +0.002 C 
BRANCH  20  27
ATOM     25  N   UNL     1      34.748 -18.005 -23.555  0.00  0.00    -0.210 N 
ATOM     26  N   UNL     1      34.949 -16.820 -24.156  0.00  0.00    -0.176 NA
ATOM     27  C   UNL     1      34.664 -17.926 -22.195  0.00  0.00    +0.071 C 
ATOM     28  C   UNL     1      34.821 -16.597 -21.887  0.00  0.00    +0.039 C 
ATOM     29  C   UNL     1      34.648 -19.195 -24.369  0.00  0.00    +0.140 C 
ATOM     30  C   UNL     1      34.992 -15.964 -23.132  0.00  0.00    +0.119 C 
ENDBRANCH  20  27
ENDBRANCH  18  19
ENDBRANCH   4  18
TORSDOF 5
ENDMDL
MODEL 3
REMARK VINA RESULT:     -11.1      6.575     10.210
REMARK  Name = 24986635
REMARK  5 active torsions:
REMARK  status: ('A' for Active; 'I' for Inactive)
REMARK    1  A    between atoms: C_1  and  C_8
REMARK    2  A    between atoms: C_4  and  S_18
REMARK    3  A    between atoms: C_8  and  C_15
REMARK    4  A    between atoms: S_18  and  C_19
REMARK    5  A    between atoms: C_20  and  C_27
REMARK                            x       y       z     vdW  Elec       q    Type
REMARK                         _______ _______ _______ _____ _____    ______ ____
ROOT
ATOM      1  C   UNL     1      34.526 -16.798 -21.529  0.00  0.00    -0.014 C 
ATOM      2  C   UNL     1      34.085 -16.161 -22.688  0.00  0.00    +0.003 C 
ATOM      3  C   UNL     1      34.783 -16.052 -20.378  0.00  0.00    -0.004 C 
ATOM      4  C   UNL     1      33.900 -14.779 -22.698  0.00  0.00    +0.029 C 
ATOM      5  C   UNL     1      34.598 -14.670 -20.387  0.00  0.00    +0.000 C 
ATOM      6  C   UNL     1      34.157 -14.032 -21.547  0.00  0.00    +0.006 C 
ENDROOT
BRANCH   1   8
ATOM      7  O   UNL     1      34.789 -20.794 -19.940  0.00  0.00    -0.354 OA
ATOM      8  C   UNL     1      34.729 -18.322 -21.517  0.00  0.00    +0.092 C 
ATOM      9  C   UNL     1      33.463 -19.036 -20.977  0.00  0.00    +0.045 C 
ATOM     10  C   UNL     1      35.943 -18.793 -20.676  0.00  0.00    +0.045 C 
ATOM     11  C   UNL     1      33.666 -20.536 -20.775  0.00  0.00    +0.143 C 
ATOM     12  C   UNL     1      35.998 -20.310 -20.515  0.00  0.00    +0.143 C 
BRANCH   8  15
ATOM     13  O   UNL     1      34.129 -19.366 -23.600  0.00  0.00    -0.275 OA
ATOM     14  N   UNL     1      36.216 -18.413 -23.428  0.00  0.00    -0.329 N 
ATOM     15  C   UNL     1      34.972 -18.754 -22.950  0.00  0.00    +0.222 C 
ATOM     16  H   UNL     1      36.471 -18.649 -24.349  0.00  0.00    +0.145 HD
ATOM     17  H   UNL     1      36.852 -17.933 -22.849  0.00  0.00    +0.145 HD
ENDBRANCH   8  15
ENDBRANCH   1   8
BRANCH   4  18
ATOM     18  S   UNL     1      33.337 -13.964 -24.179  0.00  0.00    -0.087 S 
BRANCH  18  19
ATOM     19  C   UNL     1      33.005 -12.318 -23.568  0.00  0.00    +0.029 C 
ATOM     20  C   UNL     1      32.487  -9.748 -22.614  0.00  0.00    +0.015 C 
ATOM     21  C   UNL     1      33.750 -11.236 -24.038  0.00  0.00    +0.007 C 
ATOM     22  C   UNL     1      32.001 -12.114 -22.621  0.00  0.00    +0.007 C 
ATOM     23  C   UNL     1      33.491  -9.952 -23.561  0.00  0.00    +0.002 C 
ATOM     24  C   UNL     1      31.742 -10.830 -22.144  0.00  0.00    +0.002 C 
BRANCH  20  27
ATOM     25  N   UNL     1      31.486  -7.488 -22.796  0.00  0.00    -0.210 N 
ATOM     26  N   UNL     1      31.368  -6.316 -22.149  0.00  0.00    -0.176 NA
ATOM     27  C   UNL     1      32.219  -8.420 -22.120  0.00  0.00    +0.071 C 
ATOM     28  C   UNL     1      32.608  -7.814 -20.951  0.00  0.00    +0.039 C 
ATOM     29  C   UNL     1      30.855  -7.641 -24.088  0.00  0.00    +0.140 C 
ATOM     30  C   UNL     1      32.055  -6.522 -21.022  0.00  0.00    +0.119 C 
ENDBRANCH  20  27
ENDBRANCH  18  19
ENDBRANCH   4  18
TORSDOF 5
ENDMDL
MODEL 4
REMARK VINA RESULT:     -11.0      3.531      4.647
REMARK  Name = 24986635
REMARK  5 active torsions:
REMARK  status: ('A' for Active; 'I' for Inactive)
REMARK    1  A    between atoms: C_1  and  C_8
REMARK    2  A    between atoms: C_4  and  S_18
REMARK    3  A    between atoms: C_8  and  C_15
REMARK    4  A    between atoms: S_18  and  C_19
REMARK    5  A    between atoms: C_20  and  C_27
REMARK                            x       y       z     vdW  Elec       q    Type
REMARK                         _______ _______ _______ _____ _____    ______ ____
ROOT
ATOM      1  C   UNL     1      32.598 -23.253 -15.851  0.00  0.00    -0.014 C 
ATOM      2  C   UNL     1      32.768 -23.391 -17.228  0.00  0.00    +0.003 C 
ATOM      3  C   UNL     1      33.679 -22.886 -15.048  0.00  0.00    -0.004 C 
ATOM      4  C   UNL     1      34.018 -23.162 -17.803  0.00  0.00    +0.029 C 
ATOM      5  C   UNL     1      34.928 -22.656 -15.623  0.00  0.00    +0.000 C 
ATOM      6  C   UNL     1      35.099 -22.795 -17.001  0.00  0.00    +0.006 C 
ENDROOT
BRANCH   1   8
ATOM      7  O   UNL     1      28.309 -23.551 -15.567  0.00  0.00    -0.354 OA
ATOM      8  C   UNL     1      31.221 -23.505 -15.216  0.00  0.00    +0.092 C 
ATOM      9  C   UNL     1      30.459 -24.613 -15.988  0.00  0.00    +0.045 C 
ATOM     10  C   UNL     1      30.313 -22.250 -15.153  0.00  0.00    +0.045 C 
ATOM     11  C   UNL     1      29.017 -24.785 -15.514  0.00  0.00    +0.143 C 
ATOM     12  C   UNL     1      28.888 -22.574 -14.709  0.00  0.00    +0.143 C 
BRANCH   8  15
ATOM     13  O   UNL     1      31.324 -23.213 -12.830  0.00  0.00    -0.275 OA
ATOM     14  N   UNL     1      31.856 -25.278 -13.692  0.00  0.00    -0.329 N 
ATOM     15  C   UNL     1      31.460 -23.965 -13.791  0.00  0.00    +0.222 C 
ATOM     16  H   UNL     1      32.036 -25.673 -12.808  0.00  0.00    +0.145 HD
ATOM     17  H   UNL     1      31.958 -25.825 -14.505  0.00  0.00    +0.145 HD
ENDBRANCH   8  15
ENDBRANCH   1   8
BRANCH   4  18
ATOM     18  S   UNL     1      34.236 -23.339 -19.563  0.00  0.00    -0.087 S 
BRANCH  18  19
ATOM     19  C   UNL     1      34.348 -21.630 -20.074  0.00  0.00    +0.029 C 
ATOM     20  C   UNL     1      34.522 -18.963 -20.872  0.00  0.00    +0.015 C 
ATOM     21  C   UNL     1      35.596 -21.049 -20.296  0.00  0.00    +0.007 C 
ATOM     22  C   UNL     1      33.187 -20.878 -20.252  0.00  0.00    +0.007 C 
ATOM     23  C   UNL     1      35.683 -19.716 -20.695  0.00  0.00    +0.002 C 
ATOM     24  C   UNL     1      33.273 -19.545 -20.651  0.00  0.00    +0.002 C 
BRANCH  20  27
ATOM     25  N   UNL     1      34.782 -17.184 -22.579  0.00  0.00    -0.210 N 
ATOM     26  N   UNL     1      34.843 -15.850 -22.731  0.00  0.00    -0.176 NA
ATOM     27  C   UNL     1      34.612 -17.584 -21.285  0.00  0.00    +0.071 C 
ATOM     28  C   UNL     1      34.559 -16.431 -20.540  0.00  0.00    +0.039 C 
ATOM     29  C   UNL     1      34.898 -18.028 -23.746  0.00  0.00    +0.140 C 
ATOM     30  C   UNL     1      34.706 -15.396 -21.482  0.00  0.00    +0.119 C 
ENDBRANCH  20  27
ENDBRANCH  18  19
ENDBRANCH   4  18
TORSDOF 5
ENDMDL
MODEL 5
REMARK VINA RESULT:     -10.9      6.468     10.071
REMARK  Name = 24986635
REMARK  5 active torsions:
REMARK  status: ('A' for Active; 'I' for Inactive)
REMARK    1  A    between atoms: C_1  and  C_8
REMARK    2  A    between atoms: C_4  and  S_18
REMARK    3  A    between atoms: C_8  and  C_15
REMARK    4  A    between atoms: S_18  and  C_19
REMARK    5  A    between atoms: C_20  and  C_27
REMARK                            x       y       z     vdW  Elec       q    Type
REMARK                         _______ _______ _______ _____ _____    ______ ____
ROOT
ATOM      1  C   UNL     1      34.541 -16.827 -21.575  0.00  0.00    -0.014 C 
ATOM      2  C   UNL     1      34.134 -16.214 -22.760  0.00  0.00    +0.003 C 
ATOM      3  C   UNL     1      34.746 -16.059 -20.428  0.00  0.00    -0.004 C 
ATOM      4  C   UNL     1      33.933 -14.835 -22.799  0.00  0.00    +0.029 C 
ATOM      5  C   UNL     1      34.543 -14.680 -20.466  0.00  0.00    +0.000 C 
ATOM      6  C   UNL     1      34.137 -14.067 -21.651  0.00  0.00    +0.006 C 
ENDROOT
BRANCH   1   8
ATOM      7  O   UNL     1      34.837 -20.787 -19.904  0.00  0.00    -0.354 OA
ATOM      8  C   UNL     1      34.763 -18.347 -21.531  0.00  0.00    +0.092 C 
ATOM      9  C   UNL     1      33.500 -19.066 -20.991  0.00  0.00    +0.045 C 
ATOM     10  C   UNL     1      35.974 -18.786 -20.667  0.00  0.00    +0.045 C 
ATOM     11  C   UNL     1      33.720 -20.559 -20.757  0.00  0.00    +0.143 C 
ATOM     12  C   UNL     1      36.046 -20.299 -20.476  0.00  0.00    +0.143 C 
BRANCH   8  15
ATOM     13  O   UNL     1      34.198 -19.435 -23.601  0.00  0.00    -0.275 OA
ATOM     14  N   UNL     1      36.276 -18.462 -23.420  0.00  0.00    -0.329 N 
ATOM     15  C   UNL     1      35.028 -18.804 -22.952  0.00  0.00    +0.222 C 
ATOM     16  H   UNL     1      36.545 -18.714 -24.334  0.00  0.00    +0.145 HD
ATOM     17  H   UNL     1      36.900 -17.966 -22.843  0.00  0.00    +0.145 HD
ENDBRANCH   8  15
ENDBRANCH   1   8
BRANCH   4  18
ATOM     18  S   UNL     1      33.413 -14.051 -24.313  0.00  0.00    -0.087 S 
BRANCH  18  19
ATOM     19  C   UNL     1      33.101 -12.383 -23.753  0.00  0.00    +0.029 C 
ATOM     20  C   UNL     1      32.614  -9.778 -22.880  0.00  0.00    +0.015 C 
ATOM     21  C   UNL     1      32.064 -12.131 -22.854  0.00  0.00    +0.007 C 
ATOM     22  C   UNL     1      33.894 -11.332 -24.216  0.00  0.00    +0.007 C 
ATOM     23  C   UNL     1      31.821 -10.830 -22.418  0.00  0.00    +0.002 C 
ATOM     24  C   UNL     1      33.651 -10.031 -23.779  0.00  0.00    +0.002 C 
BRANCH  20  27
ATOM     25  N   UNL     1      32.224  -8.080 -21.117  0.00  0.00    -0.210 N 
ATOM     26  N   UNL     1      31.990  -6.771 -20.928  0.00  0.00    -0.176 NA
ATOM     27  C   UNL     1      32.362  -8.432 -22.429  0.00  0.00    +0.071 C 
ATOM     28  C   UNL     1      32.207  -7.272 -23.146  0.00  0.00    +0.039 C 
ATOM     29  C   UNL     1      32.302  -8.951 -19.966  0.00  0.00    +0.140 C 
ATOM     30  C   UNL     1      31.981  -6.282 -22.172  0.00  0.00    +0.119 C 
ENDBRANCH  20  27
ENDBRANCH  18  19
ENDBRANCH   4  18
TORSDOF 5
ENDMDL
MODEL 6
REMARK VINA RESULT:     -10.8      8.273     13.618
REMARK  Name = 24986635
REMARK  5 active torsions:
REMARK  status: ('A' for Active; 'I' for Inactive)
REMARK    1  A    between atoms: C_1  and  C_8
REMARK    2  A    between atoms: C_4  and  S_18
REMARK    3  A    between atoms: C_8  and  C_15
REMARK    4  A    between atoms: S_18  and  C_19
REMARK    5  A    between atoms: C_20  and  C_27
REMARK                            x       y       z     vdW  Elec       q    Type
REMARK                         _______ _______ _______ _____ _____    ______ ____
ROOT
ATOM      1  C   UNL     1      33.597  -9.715 -23.853  0.00  0.00    -0.014 C 
ATOM      2  C   UNL     1      33.072 -10.852 -24.468  0.00  0.00    +0.003 C 
ATOM      3  C   UNL     1      34.828  -9.204 -24.267  0.00  0.00    -0.004 C 
ATOM      4  C   UNL     1      33.777 -11.478 -25.495  0.00  0.00    +0.029 C 
ATOM      5  C   UNL     1      35.533  -9.830 -25.295  0.00  0.00    +0.000 C 
ATOM      6  C   UNL     1      35.008 -10.967 -25.909  0.00  0.00    +0.006 C 
ENDROOT
BRANCH   1   8
ATOM      7  O   UNL     1      32.657  -8.400 -19.859  0.00  0.00    -0.354 OA
ATOM      8  C   UNL     1      32.821  -9.024 -22.721  0.00  0.00    +0.092 C 
ATOM      9  C   UNL     1      33.714  -7.974 -22.011  0.00  0.00    +0.045 C 
ATOM     10  C   UNL     1      32.269  -9.994 -21.645  0.00  0.00    +0.045 C 
ATOM     11  C   UNL     1      33.058  -7.379 -20.766  0.00  0.00    +0.143 C 
ATOM     12  C   UNL     1      31.686  -9.266 -20.436  0.00  0.00    +0.143 C 
BRANCH   8  15
ATOM     13  O   UNL     1      30.497  -8.786 -23.299  0.00  0.00    -0.275 OA
ATOM     14  N   UNL     1      31.959  -7.151 -23.994  0.00  0.00    -0.329 N 
ATOM     15  C   UNL     1      31.634  -8.323 -23.353  0.00  0.00    +0.222 C 
ATOM     16  H   UNL     1      31.257  -6.620 -24.436  0.00  0.00    +0.145 HD
ATOM     17  H   UNL     1      32.894  -6.841 -24.011  0.00  0.00    +0.145 HD
ENDBRANCH   8  15
ENDBRANCH   1   8
BRANCH   4  18
ATOM     18  S   UNL     1      33.107 -12.931 -26.281  0.00  0.00    -0.087 S 
BRANCH  18  19
ATOM     19  C   UNL     1      33.684 -14.218 -25.184  0.00  0.00    +0.029 C 
ATOM     20  C   UNL     1      34.586 -16.227 -23.471  0.00  0.00    +0.015 C 
ATOM     21  C   UNL     1      33.750 -15.538 -25.631  0.00  0.00    +0.007 C 
ATOM     22  C   UNL     1      34.069 -13.903 -23.881  0.00  0.00    +0.007 C 
ATOM     23  C   UNL     1      34.201 -16.542 -24.775  0.00  0.00    +0.002 C 
ATOM     24  C   UNL     1      34.520 -14.907 -23.024  0.00  0.00    +0.002 C 
BRANCH  20  27
ATOM     25  N   UNL     1      35.076 -17.156 -21.226  0.00  0.00    -0.210 N 
ATOM     26  N   UNL     1      35.553 -18.246 -20.601  0.00  0.00    -0.176 NA
ATOM     27  C   UNL     1      35.051 -17.266 -22.586  0.00  0.00    +0.071 C 
ATOM     28  C   UNL     1      35.547 -18.515 -22.870  0.00  0.00    +0.039 C 
ATOM     29  C   UNL     1      34.656 -16.023 -20.433  0.00  0.00    +0.140 C 
ATOM     30  C   UNL     1      35.839 -19.073 -21.611  0.00  0.00    +0.119 C 
ENDBRANCH  20  27
ENDBRANCH  18  19
ENDBRANCH   4  18
TORSDOF 5
ENDMDL
MODEL 7
REMARK VINA RESULT:     -10.8      1.729      2.732
REMARK  Name = 24986635
REMARK  5 active torsions:
REMARK  status: ('A' for Active; 'I' for Inactive)
REMARK    1  A    between atoms: C_1  and  C_8
REMARK    2  A    between atoms: C_4  and  S_18
REMARK    3  A    between atoms: C_8  and  C_15
REMARK    4  A    between atoms: S_18  and  C_19
REMARK    5  A    between atoms: C_20  and  C_27
REMARK                            x       y       z     vdW  Elec       q    Type
REMARK                         _______ _______ _______ _____ _____    ______ ____
ROOT
ATOM      1  C   UNL     1      34.941 -23.156 -16.423  0.00  0.00    -0.014 C 
ATOM      2  C   UNL     1      35.790 -22.713 -17.436  0.00  0.00    +0.003 C 
ATOM      3  C   UNL     1      33.559 -23.144 -16.617  0.00  0.00    -0.004 C 
ATOM      4  C   UNL     1      35.259 -22.259 -18.644  0.00  0.00    +0.029 C 
ATOM      5  C   UNL     1      33.027 -22.691 -17.824  0.00  0.00    +0.000 C 
ATOM      6  C   UNL     1      33.877 -22.247 -18.838  0.00  0.00    +0.006 C 
ENDROOT
BRANCH   1   8
ATOM      7  O   UNL     1      35.816 -23.230 -12.205  0.00  0.00    -0.354 OA
ATOM      8  C   UNL     1      35.525 -23.657 -15.093  0.00  0.00    +0.092 C 
ATOM      9  C   UNL     1      34.393 -23.907 -14.061  0.00  0.00    +0.045 C 
ATOM     10  C   UNL     1      36.558 -22.695 -14.451  0.00  0.00    +0.045 C 
ATOM     11  C   UNL     1      34.922 -24.237 -12.667  0.00  0.00    +0.143 C 
ATOM     12  C   UNL     1      36.963 -23.119 -13.041  0.00  0.00    +0.143 C 
BRANCH   8  15
ATOM     13  O   UNL     1      35.626 -26.010 -15.587  0.00  0.00    -0.275 OA
ATOM     14  N   UNL     1      37.608 -24.864 -15.362  0.00  0.00    -0.329 N 
ATOM     15  C   UNL     1      36.237 -24.964 -15.379  0.00  0.00    +0.222 C 
ATOM     16  H   UNL     1      38.163 -25.659 -15.537  0.00  0.00    +0.145 HD
ATOM     17  H   UNL     1      38.036 -23.997 -15.175  0.00  0.00    +0.145 HD
ENDBRANCH   8  15
ENDBRANCH   1   8
BRANCH   4  18
ATOM     18  S   UNL     1      36.344 -21.693 -19.939  0.00  0.00    -0.087 S 
BRANCH  18  19
ATOM     19  C   UNL     1      35.549 -20.166 -20.418  0.00  0.00    +0.029 C 
ATOM     20  C   UNL     1      34.307 -17.783 -21.167  0.00  0.00    +0.015 C 
ATOM     21  C   UNL     1      36.312 -19.016 -20.619  0.00  0.00    +0.007 C 
ATOM     22  C   UNL     1      34.166 -20.125 -20.592  0.00  0.00    +0.007 C 
ATOM     23  C   UNL     1      35.691 -17.825 -20.993  0.00  0.00    +0.002 C 
ATOM     24  C   UNL     1      33.545 -18.934 -20.967  0.00  0.00    +0.002 C 
BRANCH  20  27
ATOM     25  N   UNL     1      33.777 -15.988 -22.792  0.00  0.00    -0.210 N 
ATOM     26  N   UNL     1      33.097 -14.837 -22.929  0.00  0.00    -0.176 NA
ATOM     27  C   UNL     1      33.666 -16.550 -21.554  0.00  0.00    +0.071 C 
ATOM     28  C   UNL     1      32.858 -15.708 -20.831  0.00  0.00    +0.039 C 
ATOM     29  C   UNL     1      34.528 -16.496 -23.918  0.00  0.00    +0.140 C 
ATOM     30  C   UNL     1      32.537 -14.671 -21.727  0.00  0.00    +0.119 C 
ENDBRANCH  20  27
ENDBRANCH  18  19
ENDBRANCH   4  18
TORSDOF 5
ENDMDL
MODEL 8
REMARK VINA RESULT:     -10.6      8.299     13.603
REMARK  Name = 24986635
REMARK  5 active torsions:
REMARK  status: ('A' for Active; 'I' for Inactive)
REMARK    1  A    between atoms: C_1  and  C_8
REMARK    2  A    between atoms: C_4  and  S_18
REMARK    3  A    between atoms: C_8  and  C_15
REMARK    4  A    between atoms: S_18  and  C_19
REMARK    5  A    between atoms: C_20  and  C_27
REMARK                            x       y       z     vdW  Elec       q    Type
REMARK                         _______ _______ _______ _____ _____    ______ ____
ROOT
ATOM      1  C   UNL     1      32.230 -10.100 -22.273  0.00  0.00    -0.014 C 
ATOM      2  C   UNL     1      32.816 -10.847 -23.294  0.00  0.00    +0.003 C 
ATOM      3  C   UNL     1      31.628 -10.748 -21.193  0.00  0.00    -0.004 C 
ATOM      4  C   UNL     1      32.801 -12.241 -23.236  0.00  0.00    +0.029 C 
ATOM      5  C   UNL     1      31.613 -12.141 -21.134  0.00  0.00    +0.000 C 
ATOM      6  C   UNL     1      32.199 -12.888 -22.156  0.00  0.00    +0.006 C 
ENDROOT
BRANCH   1   8
ATOM      7  O   UNL     1      30.852  -6.053 -21.741  0.00  0.00    -0.354 OA
ATOM      8  C   UNL     1      32.246  -8.565 -22.334  0.00  0.00    +0.092 C 
ATOM      9  C   UNL     1      32.116  -7.961 -20.912  0.00  0.00    +0.045 C 
ATOM     10  C   UNL     1      31.131  -7.954 -23.221  0.00  0.00    +0.045 C 
ATOM     11  C   UNL     1      31.949  -6.443 -20.923  0.00  0.00    +0.143 C 
ATOM     12  C   UNL     1      31.045  -6.434 -23.099  0.00  0.00    +0.143 C 
BRANCH   8  15
ATOM     13  O   UNL     1      34.577  -7.976 -22.240  0.00  0.00    -0.275 OA
ATOM     14  N   UNL     1      33.545  -7.984 -24.296  0.00  0.00    -0.329 N 
ATOM     15  C   UNL     1      33.578  -8.153 -22.931  0.00  0.00    +0.222 C 
ATOM     16  H   UNL     1      34.361  -7.717 -24.779  0.00  0.00    +0.145 HD
ATOM     17  H   UNL     1      32.706  -8.130 -24.790  0.00  0.00    +0.145 HD
ENDBRANCH   8  15
ENDBRANCH   1   8
BRANCH   4  18
ATOM     18  S   UNL     1      33.549 -13.196 -24.541  0.00  0.00    -0.087 S 
BRANCH  18  19
ATOM     19  C   UNL     1      34.054 -14.663 -23.655  0.00  0.00    +0.029 C 
ATOM     20  C   UNL     1      34.840 -16.955 -22.272  0.00  0.00    +0.015 C 
ATOM     21  C   UNL     1      34.311 -14.597 -22.285  0.00  0.00    +0.007 C 
ATOM     22  C   UNL     1      34.190 -15.875 -24.332  0.00  0.00    +0.007 C 
ATOM     23  C   UNL     1      34.704 -15.743 -21.594  0.00  0.00    +0.002 C 
ATOM     24  C   UNL     1      34.583 -17.021 -23.641  0.00  0.00    +0.002 C 
BRANCH  20  27
ATOM     25  N   UNL     1      34.381 -18.987 -20.930  0.00  0.00    -0.210 N 
ATOM     26  N   UNL     1      34.981 -20.025 -20.322  0.00  0.00    -0.176 NA
ATOM     27  C   UNL     1      35.247 -18.139 -21.556  0.00  0.00    +0.071 C 
ATOM     28  C   UNL     1      36.501 -18.658 -21.344  0.00  0.00    +0.039 C 
ATOM     29  C   UNL     1      32.942 -18.874 -20.862  0.00  0.00    +0.140 C 
ATOM     30  C   UNL     1      36.276 -19.819 -20.579  0.00  0.00    +0.119 C 
ENDBRANCH  20  27
ENDBRANCH  18  19
ENDBRANCH   4  18
TORSDOF 5
ENDMDL
MODEL 9
REMARK VINA RESULT:     -10.3      8.168     13.472
REMARK  Name = 24986635
REMARK  5 active torsions:
REMARK  status: ('A' for Active; 'I' for Inactive)
REMARK    1  A    between atoms: C_1  and  C_8
REMARK    2  A    between atoms: C_4  and  S_18
REMARK    3  A    between atoms: C_8  and  C_15
REMARK    4  A    between atoms: S_18  and  C_19
REMARK    5  A    between atoms: C_20  and  C_27
REMARK                            x       y       z     vdW  Elec       q    Type
REMARK                         _______ _______ _______ _____ _____    ______ ____
ROOT
ATOM      1  C   UNL     1      32.363 -10.464 -22.517  0.00  0.00    -0.014 C 
ATOM      2  C   UNL     1      32.955 -11.261 -23.495  0.00  0.00    +0.003 C 
ATOM      3  C   UNL     1      31.745 -11.057 -21.415  0.00  0.00    -0.004 C 
ATOM      4  C   UNL     1      32.930 -12.651 -23.373  0.00  0.00    +0.029 C 
ATOM      5  C   UNL     1      31.720 -12.446 -21.292  0.00  0.00    +0.000 C 
ATOM      6  C   UNL     1      32.313 -13.244 -22.271  0.00  0.00    +0.006 C 
ENDROOT
BRANCH   1   8
ATOM      7  O   UNL     1      32.294  -6.606 -24.432  0.00  0.00    -0.354 OA
ATOM      8  C   UNL     1      32.390  -8.933 -22.649  0.00  0.00    +0.092 C 
ATOM      9  C   UNL     1      31.098  -8.424 -23.340  0.00  0.00    +0.045 C 
ATOM     10  C   UNL     1      33.606  -8.387 -23.440  0.00  0.00    +0.045 C 
ATOM     11  C   UNL     1      31.144  -6.931 -23.660  0.00  0.00    +0.143 C 
ATOM     12  C   UNL     1      33.499  -6.891 -23.730  0.00  0.00    +0.143 C 
BRANCH   8  15
ATOM     13  O   UNL     1      31.484  -8.311 -20.509  0.00  0.00    -0.275 OA
ATOM     14  N   UNL     1      33.713  -7.900 -20.902  0.00  0.00    -0.329 N 
ATOM     15  C   UNL     1      32.464  -8.362 -21.247  0.00  0.00    +0.222 C 
ATOM     16  H   UNL     1      33.865  -7.510 -20.011  0.00  0.00    +0.145 HD
ATOM     17  H   UNL     1      34.455  -7.959 -21.547  0.00  0.00    +0.145 HD
ENDBRANCH   8  15
ENDBRANCH   1   8
BRANCH   4  18
ATOM     18  S   UNL     1      33.687 -13.670 -24.624  0.00  0.00    -0.087 S 
BRANCH  18  19
ATOM     19  C   UNL     1      34.183 -15.092 -23.662  0.00  0.00    +0.029 C 
ATOM     20  C   UNL     1      34.957 -17.313 -22.162  0.00  0.00    +0.015 C 
ATOM     21  C   UNL     1      34.399 -14.966 -22.290  0.00  0.00    +0.007 C 
ATOM     22  C   UNL     1      34.354 -16.329 -24.284  0.00  0.00    +0.007 C 
ATOM     23  C   UNL     1      34.785 -16.076 -21.540  0.00  0.00    +0.002 C 
ATOM     24  C   UNL     1      34.741 -17.440 -23.535  0.00  0.00    +0.002 C 
BRANCH  20  27
ATOM     25  N   UNL     1      34.482 -19.341 -20.818  0.00  0.00    -0.210 N 
ATOM     26  N   UNL     1      35.076 -20.335 -20.136  0.00  0.00    -0.176 NA
ATOM     27  C   UNL     1      35.357 -18.461 -21.386  0.00  0.00    +0.071 C 
ATOM     28  C   UNL     1      36.610 -18.911 -21.052  0.00  0.00    +0.039 C 
ATOM     29  C   UNL     1      33.038 -19.300 -20.880  0.00  0.00    +0.140 C 
ATOM     30  C   UNL     1      36.377 -20.067 -20.283  0.00  0.00    +0.119 C 
ENDBRANCH  20  27
ENDBRANCH  18  19
ENDBRANCH   4  18
TORSDOF 5
ENDMDL
