MODEL 1
REMARK VINA RESULT:      -5.1      0.000      0.000
REMARK  Name = 444719
REMARK  7 active torsions:
REMARK  status: ('A' for Active; 'I' for Inactive)
REMARK    1  A    between atoms: C_1  and  N_2
REMARK    2  A    between atoms: C_1  and  P_6
REMARK    3  A    between atoms: C_1  and  C_12
REMARK    4  A    between atoms: P_6  and  O_8
REMARK    5  A    between atoms: P_6  and  O_10
REMARK    6  A    between atoms: C_12  and  C_13
REMARK    7  A    between atoms: C_13  and  S_14
REMARK                            x       y       z     vdW  Elec       q    Type
REMARK                         _______ _______ _______ _____ _____    ______ ____
ROOT
ATOM      1  C   UNL     1      38.686 -25.649 -14.006  0.00  0.00    +0.042 C 
ENDROOT
BRANCH   1   2
ATOM      2  N   UNL     1      38.142 -26.927 -14.464  0.00  0.00    +0.389 N 
ATOM      3  H   UNL     1      38.606 -27.690 -13.970  0.00  0.00    -0.088 HD
ATOM      4  H   UNL     1      38.302 -27.024 -15.466  0.00  0.00    -0.088 HD
ATOM      5  H   UNL     1      37.141 -26.958 -14.273  0.00  0.00    -0.088 HD
ENDBRANCH   1   2
BRANCH   1   6
ATOM      6  P   UNL     1      40.385 -25.807 -14.543  0.00  0.00    +0.317 P 
ATOM      7  O   UNL     1      41.151 -26.935 -13.918  0.00  0.00    -0.260 OA
BRANCH   6   8
ATOM      8  O   UNL     1      41.021 -24.337 -14.307  0.00  0.00    -0.325 OA
ATOM      9  H   UNL     1      40.474 -23.846 -13.674  0.00  0.00    +0.220 HD
ENDBRANCH   6   8
BRANCH   6  10
ATOM     10  O   UNL     1      40.274 -25.876 -16.155  0.00  0.00    -0.325 OA
ATOM     11  H   UNL     1      41.151 -25.737 -16.546  0.00  0.00    +0.220 HD
ENDBRANCH   6  10
ENDBRANCH   1   6
BRANCH   1  12
ATOM     12  C   UNL     1      38.461 -25.499 -12.500  0.00  0.00    +0.002 C 
BRANCH  12  13
ATOM     13  C   UNL     1      38.081 -24.072 -12.111  0.00  0.00    +0.056 C 
BRANCH  13  14
ATOM     14  S   UNL     1      36.648 -23.504 -13.075  0.00  0.00    -0.139 S 
ATOM     15  C   UNL     1      35.368 -24.446 -12.217  0.00  0.00    +0.069 C 
ENDBRANCH  13  14
ENDBRANCH  12  13
ENDBRANCH   1  12
TORSDOF 7
ENDMDL
MODEL 2
REMARK VINA RESULT:      -5.0      2.739      3.143
REMARK  Name = 444719
REMARK  7 active torsions:
REMARK  status: ('A' for Active; 'I' for Inactive)
REMARK    1  A    between atoms: C_1  and  N_2
REMARK    2  A    between atoms: C_1  and  P_6
REMARK    3  A    between atoms: C_1  and  C_12
REMARK    4  A    between atoms: P_6  and  O_8
REMARK    5  A    between atoms: P_6  and  O_10
REMARK    6  A    between atoms: C_12  and  C_13
REMARK    7  A    between atoms: C_13  and  S_14
REMARK                            x       y       z     vdW  Elec       q    Type
REMARK                         _______ _______ _______ _____ _____    ______ ____
ROOT
ATOM      1  C   UNL     1      37.787 -24.727 -14.441  0.00  0.00    +0.042 C 
ENDROOT
BRANCH   1   2
ATOM      2  N   UNL     1      38.873 -24.658 -15.417  0.00  0.00    +0.389 N 
ATOM      3  H   UNL     1      38.620 -25.199 -16.245  0.00  0.00    -0.088 HD
ATOM      4  H   UNL     1      39.723 -25.042 -15.006  0.00  0.00    -0.088 HD
ATOM      5  H   UNL     1      39.031 -23.686 -15.682  0.00  0.00    -0.088 HD
ENDBRANCH   1   2
BRANCH   1   6
ATOM      6  P   UNL     1      37.306 -26.442 -14.608  0.00  0.00    +0.317 P 
ATOM      7  O   UNL     1      36.341 -26.730 -15.720  0.00  0.00    -0.260 OA
BRANCH   6   8
ATOM      8  O   UNL     1      36.792 -26.862 -13.131  0.00  0.00    -0.325 OA
ATOM      9  H   UNL     1      36.085 -27.520 -13.211  0.00  0.00    +0.220 HD
ENDBRANCH   6   8
BRANCH   6  10
ATOM     10  O   UNL     1      38.716 -27.227 -14.715  0.00  0.00    -0.325 OA
ATOM     11  H   UNL     1      38.553 -28.184 -14.721  0.00  0.00    +0.220 HD
ENDBRANCH   6  10
ENDBRANCH   1   6
BRANCH   1  12
ATOM     12  C   UNL     1      36.718 -23.686 -14.780  0.00  0.00    +0.002 C 
BRANCH  12  13
ATOM     13  C   UNL     1      35.831 -23.356 -13.582  0.00  0.00    +0.056 C 
BRANCH  13  14
ATOM     14  S   UNL     1      36.818 -23.267 -12.058  0.00  0.00    -0.139 S 
ATOM     15  C   UNL     1      35.759 -24.281 -11.003  0.00  0.00    +0.069 C 
ENDBRANCH  13  14
ENDBRANCH  12  13
ENDBRANCH   1  12
TORSDOF 7
ENDMDL
MODEL 3
REMARK VINA RESULT:      -5.0      1.711      2.036
REMARK  Name = 444719
REMARK  7 active torsions:
REMARK  status: ('A' for Active; 'I' for Inactive)
REMARK    1  A    between atoms: C_1  and  N_2
REMARK    2  A    between atoms: C_1  and  P_6
REMARK    3  A    between atoms: C_1  and  C_12
REMARK    4  A    between atoms: P_6  and  O_8
REMARK    5  A    between atoms: P_6  and  O_10
REMARK    6  A    between atoms: C_12  and  C_13
REMARK    7  A    between atoms: C_13  and  S_14
REMARK                            x       y       z     vdW  Elec       q    Type
REMARK                         _______ _______ _______ _____ _____    ______ ____
ROOT
ATOM      1  C   UNL     1      38.349 -26.159 -14.456  0.00  0.00    +0.042 C 
ENDROOT
BRANCH   1   2
ATOM      2  N   UNL     1      38.424 -26.073 -12.999  0.00  0.00    +0.389 N 
ATOM      3  H   UNL     1      38.131 -26.960 -12.590  0.00  0.00    -0.088 HD
ATOM      4  H   UNL     1      37.809 -25.328 -12.672  0.00  0.00    -0.088 HD
ATOM      5  H   UNL     1      39.383 -25.870 -12.719  0.00  0.00    -0.088 HD
ENDBRANCH   1   2
BRANCH   1   6
ATOM      6  P   UNL     1      39.753 -25.151 -14.916  0.00  0.00    +0.317 P 
ATOM      7  O   UNL     1      40.682 -24.798 -13.792  0.00  0.00    -0.260 OA
BRANCH   6   8
ATOM      8  O   UNL     1      39.105 -23.885 -15.689  0.00  0.00    -0.325 OA
ATOM      9  H   UNL     1      39.602 -23.082 -15.469  0.00  0.00    +0.220 HD
ENDBRANCH   6   8
BRANCH   6  10
ATOM     10  O   UNL     1      40.439 -25.976 -16.126  0.00  0.00    -0.325 OA
ATOM     11  H   UNL     1      39.926 -26.781 -16.300  0.00  0.00    +0.220 HD
ENDBRANCH   6  10
ENDBRANCH   1   6
BRANCH   1  12
ATOM     12  C   UNL     1      36.979 -25.675 -14.935  0.00  0.00    +0.002 C 
BRANCH  12  13
ATOM     13  C   UNL     1      36.224 -24.910 -13.851  0.00  0.00    +0.056 C 
BRANCH  13  14
ATOM     14  S   UNL     1      35.232 -23.573 -14.582  0.00  0.00    -0.139 S 
ATOM     15  C   UNL     1      33.597 -24.164 -14.089  0.00  0.00    +0.069 C 
ENDBRANCH  13  14
ENDBRANCH  12  13
ENDBRANCH   1  12
TORSDOF 7
ENDMDL
MODEL 4
REMARK VINA RESULT:      -4.9      4.476      4.910
REMARK  Name = 444719
REMARK  7 active torsions:
REMARK  status: ('A' for Active; 'I' for Inactive)
REMARK    1  A    between atoms: C_1  and  N_2
REMARK    2  A    between atoms: C_1  and  P_6
REMARK    3  A    between atoms: C_1  and  C_12
REMARK    4  A    between atoms: P_6  and  O_8
REMARK    5  A    between atoms: P_6  and  O_10
REMARK    6  A    between atoms: C_12  and  C_13
REMARK    7  A    between atoms: C_13  and  S_14
REMARK                            x       y       z     vdW  Elec       q    Type
REMARK                         _______ _______ _______ _____ _____    ______ ____
ROOT
ATOM      1  C   UNL     1      36.775 -23.352 -11.945  0.00  0.00    +0.042 C 
ENDROOT
BRANCH   1   2
ATOM      2  N   UNL     1      38.101 -23.888 -11.645  0.00  0.00    +0.389 N 
ATOM      3  H   UNL     1      38.522 -24.250 -12.501  0.00  0.00    -0.088 HD
ATOM      4  H   UNL     1      38.016 -24.641 -10.963  0.00  0.00    -0.088 HD
ATOM      5  H   UNL     1      38.689 -23.147 -11.263  0.00  0.00    -0.088 HD
ENDBRANCH   1   2
BRANCH   1   6
ATOM      6  P   UNL     1      35.738 -24.621 -11.227  0.00  0.00    +0.317 P 
ATOM      7  O   UNL     1      35.406 -24.429  -9.777  0.00  0.00    -0.260 OA
BRANCH   6   8
ATOM      8  O   UNL     1      36.497 -26.007 -11.576  0.00  0.00    -0.325 OA
ATOM      9  H   UNL     1      36.424 -26.185 -12.527  0.00  0.00    +0.220 HD
ENDBRANCH   6   8
BRANCH   6  10
ATOM     10  O   UNL     1      34.458 -24.674 -12.213  0.00  0.00    -0.325 OA
ATOM     11  H   UNL     1      34.755 -24.597 -13.134  0.00  0.00    +0.220 HD
ENDBRANCH   6  10
ENDBRANCH   1   6
BRANCH   1  12
ATOM     12  C   UNL     1      36.633 -23.132 -13.453  0.00  0.00    +0.002 C 
BRANCH  12  13
ATOM     13  C   UNL     1      37.519 -24.077 -14.261  0.00  0.00    +0.056 C 
BRANCH  13  14
ATOM     14  S   UNL     1      36.514 -25.338 -15.101  0.00  0.00    -0.139 S 
ATOM     15  C   UNL     1      37.539 -26.778 -14.729  0.00  0.00    +0.069 C 
ENDBRANCH  13  14
ENDBRANCH  12  13
ENDBRANCH   1  12
TORSDOF 7
ENDMDL
MODEL 5
REMARK VINA RESULT:      -4.9      3.155      3.523
REMARK  Name = 444719
REMARK  7 active torsions:
REMARK  status: ('A' for Active; 'I' for Inactive)
REMARK    1  A    between atoms: C_1  and  N_2
REMARK    2  A    between atoms: C_1  and  P_6
REMARK    3  A    between atoms: C_1  and  C_12
REMARK    4  A    between atoms: P_6  and  O_8
REMARK    5  A    between atoms: P_6  and  O_10
REMARK    6  A    between atoms: C_12  and  C_13
REMARK    7  A    between atoms: C_13  and  S_14
REMARK                            x       y       z     vdW  Elec       q    Type
REMARK                         _______ _______ _______ _____ _____    ______ ____
ROOT
ATOM      1  C   UNL     1      37.854 -24.656 -14.682  0.00  0.00    +0.042 C 
ENDROOT
BRANCH   1   2
ATOM      2  N   UNL     1      39.116 -24.883 -15.385  0.00  0.00    +0.389 N 
ATOM      3  H   UNL     1      39.838 -24.280 -14.989  0.00  0.00    -0.088 HD
ATOM      4  H   UNL     1      38.997 -24.667 -16.374  0.00  0.00    -0.088 HD
ATOM      5  H   UNL     1      39.393 -25.859 -15.280  0.00  0.00    -0.088 HD
ENDBRANCH   1   2
BRANCH   1   6
ATOM      6  P   UNL     1      37.188 -26.316 -14.663  0.00  0.00    +0.317 P 
ATOM      7  O   UNL     1      36.175 -26.610 -15.729  0.00  0.00    -0.260 OA
BRANCH   6   8
ATOM      8  O   UNL     1      36.662 -26.522 -13.145  0.00  0.00    -0.325 OA
ATOM      9  H   UNL     1      36.345 -27.431 -13.034  0.00  0.00    +0.220 HD
ENDBRANCH   6   8
BRANCH   6  10
ATOM     10  O   UNL     1      38.502 -27.257 -14.700  0.00  0.00    -0.325 OA
ATOM     11  H   UNL     1      39.126 -26.968 -14.015  0.00  0.00    +0.220 HD
ENDBRANCH   6  10
ENDBRANCH   1   6
BRANCH   1  12
ATOM     12  C   UNL     1      37.030 -23.602 -15.424  0.00  0.00    +0.002 C 
BRANCH  12  13
ATOM     13  C   UNL     1      35.838 -23.116 -14.603  0.00  0.00    +0.056 C 
BRANCH  13  14
ATOM     14  S   UNL     1      34.277 -23.473 -15.465  0.00  0.00    -0.139 S 
ATOM     15  C   UNL     1      33.441 -24.361 -14.133  0.00  0.00    +0.069 C 
ENDBRANCH  13  14
ENDBRANCH  12  13
ENDBRANCH   1  12
TORSDOF 7
ENDMDL
MODEL 6
REMARK VINA RESULT:      -4.9      4.601      4.917
REMARK  Name = 444719
REMARK  7 active torsions:
REMARK  status: ('A' for Active; 'I' for Inactive)
REMARK    1  A    between atoms: C_1  and  N_2
REMARK    2  A    between atoms: C_1  and  P_6
REMARK    3  A    between atoms: C_1  and  C_12
REMARK    4  A    between atoms: P_6  and  O_8
REMARK    5  A    between atoms: P_6  and  O_10
REMARK    6  A    between atoms: C_12  and  C_13
REMARK    7  A    between atoms: C_13  and  S_14
REMARK                            x       y       z     vdW  Elec       q    Type
REMARK                         _______ _______ _______ _____ _____    ______ ____
ROOT
ATOM      1  C   UNL     1      36.748 -23.505 -12.577  0.00  0.00    +0.042 C 
ENDROOT
BRANCH   1   2
ATOM      2  N   UNL     1      37.641 -22.815 -11.649  0.00  0.00    +0.389 N 
ATOM      3  H   UNL     1      37.647 -23.307 -10.754  0.00  0.00    -0.088 HD
ATOM      4  H   UNL     1      37.314 -21.860 -11.510  0.00  0.00    -0.088 HD
ATOM      5  H   UNL     1      38.586 -22.800 -12.033  0.00  0.00    -0.088 HD
ENDBRANCH   1   2
BRANCH   1   6
ATOM      6  P   UNL     1      35.949 -24.658 -11.467  0.00  0.00    +0.317 P 
ATOM      7  O   UNL     1      35.990 -24.281 -10.016  0.00  0.00    -0.260 OA
BRANCH   6   8
ATOM      8  O   UNL     1      36.620 -26.089 -11.821  0.00  0.00    -0.325 OA
ATOM      9  H   UNL     1      37.434 -26.199 -11.306  0.00  0.00    +0.220 HD
ENDBRANCH   6   8
BRANCH   6  10
ATOM     10  O   UNL     1      34.462 -24.817 -12.083  0.00  0.00    -0.325 OA
ATOM     11  H   UNL     1      34.456 -24.497 -13.000  0.00  0.00    +0.220 HD
ENDBRANCH   6  10
ENDBRANCH   1   6
BRANCH   1  12
ATOM     12  C   UNL     1      37.560 -24.115 -13.722  0.00  0.00    +0.002 C 
BRANCH  12  13
ATOM     13  C   UNL     1      36.705 -24.386 -14.958  0.00  0.00    +0.056 C 
BRANCH  13  14
ATOM     14  S   UNL     1      35.848 -22.873 -15.489  0.00  0.00    -0.139 S 
ATOM     15  C   UNL     1      37.255 -22.029 -16.245  0.00  0.00    +0.069 C 
ENDBRANCH  13  14
ENDBRANCH  12  13
ENDBRANCH   1  12
TORSDOF 7
ENDMDL
MODEL 7
REMARK VINA RESULT:      -4.9      2.676      3.051
REMARK  Name = 444719
REMARK  7 active torsions:
REMARK  status: ('A' for Active; 'I' for Inactive)
REMARK    1  A    between atoms: C_1  and  N_2
REMARK    2  A    between atoms: C_1  and  P_6
REMARK    3  A    between atoms: C_1  and  C_12
REMARK    4  A    between atoms: P_6  and  O_8
REMARK    5  A    between atoms: P_6  and  O_10
REMARK    6  A    between atoms: C_12  and  C_13
REMARK    7  A    between atoms: C_13  and  S_14
REMARK                            x       y       z     vdW  Elec       q    Type
REMARK                         _______ _______ _______ _____ _____    ______ ____
ROOT
ATOM      1  C   UNL     1      36.417 -24.894 -15.103  0.00  0.00    +0.042 C 
ENDROOT
BRANCH   1   2
ATOM      2  N   UNL     1      35.106 -25.324 -14.623  0.00  0.00    +0.389 N 
ATOM      3  H   UNL     1      34.506 -24.508 -14.497  0.00  0.00    -0.088 HD
ATOM      4  H   UNL     1      35.213 -25.808 -13.732  0.00  0.00    -0.088 HD
ATOM      5  H   UNL     1      34.684 -25.954 -15.305  0.00  0.00    -0.088 HD
ENDBRANCH   1   2
BRANCH   1   6
ATOM      6  P   UNL     1      37.336 -26.422 -14.957  0.00  0.00    +0.317 P 
ATOM      7  O   UNL     1      37.214 -27.117 -13.633  0.00  0.00    -0.260 OA
BRANCH   6   8
ATOM      8  O   UNL     1      38.847 -26.028 -15.384  0.00  0.00    -0.325 OA
ATOM      9  H   UNL     1      39.185 -25.346 -14.784  0.00  0.00    +0.220 HD
ENDBRANCH   6   8
BRANCH   6  10
ATOM     10  O   UNL     1      36.838 -27.293 -16.225  0.00  0.00    -0.325 OA
ATOM     11  H   UNL     1      35.994 -26.939 -16.549  0.00  0.00    +0.220 HD
ENDBRANCH   6  10
ENDBRANCH   1   6
BRANCH   1  12
ATOM     12  C   UNL     1      36.918 -23.718 -14.263  0.00  0.00    +0.002 C 
BRANCH  12  13
ATOM     13  C   UNL     1      35.979 -23.395 -13.103  0.00  0.00    +0.056 C 
BRANCH  13  14
ATOM     14  S   UNL     1      36.911 -23.236 -11.549  0.00  0.00    -0.139 S 
ATOM     15  C   UNL     1      38.399 -24.131 -12.046  0.00  0.00    +0.069 C 
ENDBRANCH  13  14
ENDBRANCH  12  13
ENDBRANCH   1  12
TORSDOF 7
ENDMDL
MODEL 8
REMARK VINA RESULT:      -4.7      9.341      9.827
REMARK  Name = 444719
REMARK  7 active torsions:
REMARK  status: ('A' for Active; 'I' for Inactive)
REMARK    1  A    between atoms: C_1  and  N_2
REMARK    2  A    between atoms: C_1  and  P_6
REMARK    3  A    between atoms: C_1  and  C_12
REMARK    4  A    between atoms: P_6  and  O_8
REMARK    5  A    between atoms: P_6  and  O_10
REMARK    6  A    between atoms: C_12  and  C_13
REMARK    7  A    between atoms: C_13  and  S_14
REMARK                            x       y       z     vdW  Elec       q    Type
REMARK                         _______ _______ _______ _____ _____    ______ ____
ROOT
ATOM      1  C   UNL     1      33.825 -21.318 -20.161  0.00  0.00    +0.042 C 
ENDROOT
BRANCH   1   2
ATOM      2  N   UNL     1      32.662 -20.588 -19.661  0.00  0.00    +0.389 N 
ATOM      3  H   UNL     1      31.894 -21.241 -19.502  0.00  0.00    -0.088 HD
ATOM      4  H   UNL     1      32.378 -19.890 -20.347  0.00  0.00    -0.088 HD
ATOM      5  H   UNL     1      32.902 -20.126 -18.784  0.00  0.00    -0.088 HD
ENDBRANCH   1   2
BRANCH   1   6
ATOM      6  P   UNL     1      33.996 -22.568 -18.893  0.00  0.00    +0.317 P 
ATOM      7  O   UNL     1      35.178 -22.399 -17.984  0.00  0.00    -0.260 OA
BRANCH   6   8
ATOM      8  O   UNL     1      33.951 -23.971 -19.701  0.00  0.00    -0.325 OA
ATOM      9  H   UNL     1      34.777 -24.085 -20.196  0.00  0.00    +0.220 HD
ENDBRANCH   6   8
BRANCH   6  10
ATOM     10  O   UNL     1      32.562 -22.557 -18.147  0.00  0.00    -0.325 OA
ATOM     11  H   UNL     1      32.573 -21.899 -17.435  0.00  0.00    +0.220 HD
ENDBRANCH   6  10
ENDBRANCH   1   6
BRANCH   1  12
ATOM     12  C   UNL     1      35.005 -20.359 -20.333  0.00  0.00    +0.002 C 
BRANCH  12  13
ATOM     13  C   UNL     1      34.899 -19.535 -21.614  0.00  0.00    +0.056 C 
BRANCH  13  14
ATOM     14  S   UNL     1      35.118 -17.766 -21.259  0.00  0.00    -0.139 S 
ATOM     15  C   UNL     1      35.205 -17.168 -22.962  0.00  0.00    +0.069 C 
ENDBRANCH  13  14
ENDBRANCH  12  13
ENDBRANCH   1  12
TORSDOF 7
ENDMDL
MODEL 9
REMARK VINA RESULT:      -4.7      3.853      4.053
REMARK  Name = 444719
REMARK  7 active torsions:
REMARK  status: ('A' for Active; 'I' for Inactive)
REMARK    1  A    between atoms: C_1  and  N_2
REMARK    2  A    between atoms: C_1  and  P_6
REMARK    3  A    between atoms: C_1  and  C_12
REMARK    4  A    between atoms: P_6  and  O_8
REMARK    5  A    between atoms: P_6  and  O_10
REMARK    6  A    between atoms: C_12  and  C_13
REMARK    7  A    between atoms: C_13  and  S_14
REMARK                            x       y       z     vdW  Elec       q    Type
REMARK                         _______ _______ _______ _____ _____    ______ ____
ROOT
ATOM      1  C   UNL     1      35.938 -25.041 -14.884  0.00  0.00    +0.042 C 
ENDROOT
BRANCH   1   2
ATOM      2  N   UNL     1      35.464 -25.192 -13.510  0.00  0.00    +0.389 N 
ATOM      3  H   UNL     1      36.088 -25.819 -13.003  0.00  0.00    -0.088 HD
ATOM      4  H   UNL     1      34.522 -25.582 -13.517  0.00  0.00    -0.088 HD
ATOM      5  H   UNL     1      35.452 -24.281 -13.052  0.00  0.00    -0.088 HD
ENDBRANCH   1   2
BRANCH   1   6
ATOM      6  P   UNL     1      37.136 -26.367 -14.965  0.00  0.00    +0.317 P 
ATOM      7  O   UNL     1      37.292 -27.164 -13.704  0.00  0.00    -0.260 OA
BRANCH   6   8
ATOM      8  O   UNL     1      38.490 -25.656 -15.496  0.00  0.00    -0.325 OA
ATOM      9  H   UNL     1      38.318 -25.230 -16.350  0.00  0.00    +0.220 HD
ENDBRANCH   6   8
BRANCH   6  10
ATOM     10  O   UNL     1      36.672 -27.226 -16.254  0.00  0.00    -0.325 OA
ATOM     11  H   UNL     1      36.332 -26.625 -16.937  0.00  0.00    +0.220 HD
ENDBRANCH   6  10
ENDBRANCH   1   6
BRANCH   1  12
ATOM     12  C   UNL     1      36.478 -23.624 -15.094  0.00  0.00    +0.002 C 
BRANCH  12  13
ATOM     13  C   UNL     1      35.768 -22.897 -16.233  0.00  0.00    +0.056 C 
BRANCH  13  14
ATOM     14  S   UNL     1      34.014 -23.371 -16.302  0.00  0.00    -0.139 S 
ATOM     15  C   UNL     1      33.674 -22.863 -18.002  0.00  0.00    +0.069 C 
ENDBRANCH  13  14
ENDBRANCH  12  13
ENDBRANCH   1  12
TORSDOF 7
ENDMDL
