MODEL 1
REMARK VINA RESULT:     -11.4      0.000      0.000
REMARK  Name = 446286
REMARK  4 active torsions:
REMARK  status: ('A' for Active; 'I' for Inactive)
REMARK    1  A    between atoms: C_9  and  C_17
REMARK    2  A    between atoms: C_11  and  C_22
REMARK    3  A    between atoms: C_25  and  O_28
REMARK    4  A    between atoms: C_27  and  O_30
REMARK                            x       y       z     vdW  Elec       q    Type
REMARK                         _______ _______ _______ _____ _____    ______ ____
ROOT
ATOM      1  O   UNL     1      37.168 -19.560 -19.676  0.00  0.00    -0.270 OA
ATOM      2  N   UNL     1      35.123 -20.743 -19.728  0.00  0.00    -0.255 N 
ATOM      3  C   UNL     1      32.677 -21.064 -19.441  0.00  0.00    +0.027 C 
ATOM      4  C   UNL     1      32.896 -22.294 -18.582  0.00  0.00    +0.029 C 
ATOM      5  C   UNL     1      33.830 -20.919 -20.419  0.00  0.00    +0.099 C 
ATOM      6  C   UNL     1      34.286 -22.317 -18.002  0.00  0.00    -0.008 C 
ATOM      7  C   UNL     1      35.348 -21.571 -18.563  0.00  0.00    +0.050 C 
ATOM      8  C   UNL     1      34.512 -23.145 -16.887  0.00  0.00    -0.002 C 
ATOM      9  C   UNL     1      35.774 -23.237 -16.313  0.00  0.00    +0.016 C 
ATOM     10  C   UNL     1      36.619 -21.700 -17.974  0.00  0.00    +0.015 C 
ATOM     11  C   UNL     1      36.067 -19.793 -20.170  0.00  0.00    +0.253 C 
ATOM     12  C   UNL     1      36.827 -22.517 -16.859  0.00  0.00    +0.003 C 
ENDROOT
BRANCH   9  17
ATOM     13  S   UNL     1      36.995 -24.036 -12.604  0.00  0.00    -0.051 S 
ATOM     14  O   UNL     1      37.255 -26.560 -12.068  0.00  0.00    -0.261 OA
ATOM     15  N   UNL     1      36.401 -25.314 -15.291  0.00  0.00    -0.182 NA
ATOM     16  N   UNL     1      36.670 -26.120 -14.239  0.00  0.00    -0.198 N 
ATOM     17  C   UNL     1      35.994 -24.095 -15.103  0.00  0.00    +0.086 C 
ATOM     18  C   UNL     1      35.690 -23.513 -13.736  0.00  0.00    +0.098 C 
ATOM     19  C   UNL     1      34.315 -23.944 -13.233  0.00  0.00    +0.019 C 
ATOM     20  C   UNL     1      36.976 -25.751 -12.948  0.00  0.00    +0.292 C 
ATOM     21  H   UNL     1      36.646 -27.088 -14.419  0.00  0.00    +0.178 HD
ENDBRANCH   9  17
BRANCH  11  22
ATOM     22  C   UNL     1      35.716 -18.966 -21.342  0.00  0.00    +0.057 C 
ATOM     23  C   UNL     1      35.386 -17.625 -21.167  0.00  0.00    +0.045 C 
ATOM     24  C   UNL     1      35.717 -19.533 -22.613  0.00  0.00    +0.008 C 
ATOM     25  C   UNL     1      35.054 -16.844 -22.274  0.00  0.00    +0.173 C 
ATOM     26  C   UNL     1      35.384 -18.752 -23.720  0.00  0.00    +0.040 C 
ATOM     27  C   UNL     1      35.052 -17.408 -23.550  0.00  0.00    +0.172 C 
BRANCH  25  28
ATOM     28  O   UNL     1      34.732 -15.533 -22.096  0.00  0.00    -0.468 OA
ATOM     29  C   UNL     1      34.492 -15.099 -20.759  0.00  0.00    +0.253 C 
ENDBRANCH  25  28
BRANCH  27  30
ATOM     30  O   UNL     1      34.730 -16.654 -24.639  0.00  0.00    -0.468 OA
ATOM     31  C   UNL     1      33.888 -17.257 -25.619  0.00  0.00    +0.253 C 
ENDBRANCH  27  30
ENDBRANCH  11  22
TORSDOF 4
ENDMDL
MODEL 2
REMARK VINA RESULT:     -10.8      1.166      2.034
REMARK  Name = 446286
REMARK  4 active torsions:
REMARK  status: ('A' for Active; 'I' for Inactive)
REMARK    1  A    between atoms: C_9  and  C_17
REMARK    2  A    between atoms: C_11  and  C_22
REMARK    3  A    between atoms: C_25  and  O_28
REMARK    4  A    between atoms: C_27  and  O_30
REMARK                            x       y       z     vdW  Elec       q    Type
REMARK                         _______ _______ _______ _____ _____    ______ ____
ROOT
ATOM      1  O   UNL     1      37.044 -19.210 -20.036  0.00  0.00    -0.270 OA
ATOM      2  N   UNL     1      35.043 -20.466 -20.003  0.00  0.00    -0.255 N 
ATOM      3  C   UNL     1      32.633 -20.887 -19.577  0.00  0.00    +0.027 C 
ATOM      4  C   UNL     1      32.949 -22.135 -18.776  0.00  0.00    +0.029 C 
ATOM      5  C   UNL     1      33.717 -20.668 -20.618  0.00  0.00    +0.099 C 
ATOM      6  C   UNL     1      34.372 -22.125 -18.284  0.00  0.00    -0.008 C 
ATOM      7  C   UNL     1      35.370 -21.322 -18.882  0.00  0.00    +0.050 C 
ATOM      8  C   UNL     1      34.696 -22.979 -17.213  0.00  0.00    -0.002 C 
ATOM      9  C   UNL     1      35.995 -23.042 -16.722  0.00  0.00    +0.016 C 
ATOM     10  C   UNL     1      36.679 -21.421 -18.378  0.00  0.00    +0.015 C 
ATOM     11  C   UNL     1      35.923 -19.468 -20.469  0.00  0.00    +0.253 C 
ATOM     12  C   UNL     1      36.986 -22.266 -17.306  0.00  0.00    +0.003 C 
ENDROOT
BRANCH   9  17
ATOM     13  S   UNL     1      38.389 -25.039 -14.238  0.00  0.00    -0.051 S 
ATOM     14  O   UNL     1      37.214 -26.895 -12.858  0.00  0.00    -0.261 OA
ATOM     15  N   UNL     1      35.572 -24.972 -15.364  0.00  0.00    -0.182 NA
ATOM     16  N   UNL     1      35.846 -25.842 -14.365  0.00  0.00    -0.198 N 
ATOM     17  C   UNL     1      36.320 -23.929 -15.558  0.00  0.00    +0.086 C 
ATOM     18  C   UNL     1      37.470 -23.540 -14.648  0.00  0.00    +0.098 C 
ATOM     19  C   UNL     1      36.978 -22.832 -13.389  0.00  0.00    +0.019 C 
ATOM     20  C   UNL     1      37.050 -26.042 -13.726  0.00  0.00    +0.292 C 
ATOM     21  H   UNL     1      35.095 -26.399 -14.058  0.00  0.00    +0.178 HD
ENDBRANCH   9  17
BRANCH  11  22
ATOM     22  C   UNL     1      35.471 -18.617 -21.589  0.00  0.00    +0.057 C 
ATOM     23  C   UNL     1      35.263 -19.181 -22.844  0.00  0.00    +0.045 C 
ATOM     24  C   UNL     1      35.259 -17.258 -21.381  0.00  0.00    +0.008 C 
ATOM     25  C   UNL     1      34.838 -18.378 -23.902  0.00  0.00    +0.173 C 
ATOM     26  C   UNL     1      34.834 -16.453 -22.439  0.00  0.00    +0.040 C 
ATOM     27  C   UNL     1      34.624 -17.014 -23.699  0.00  0.00    +0.172 C 
BRANCH  25  28
ATOM     28  O   UNL     1      34.636 -18.935 -25.128  0.00  0.00    -0.468 OA
ATOM     29  C   UNL     1      34.850 -20.340 -25.245  0.00  0.00    +0.253 C 
ENDBRANCH  25  28
BRANCH  27  30
ATOM     30  O   UNL     1      34.208 -16.219 -24.725  0.00  0.00    -0.468 OA
ATOM     31  C   UNL     1      33.534 -15.011 -24.377  0.00  0.00    +0.253 C 
ENDBRANCH  27  30
ENDBRANCH  11  22
TORSDOF 4
ENDMDL
MODEL 3
REMARK VINA RESULT:     -10.1      6.441     10.535
REMARK  Name = 446286
REMARK  4 active torsions:
REMARK  status: ('A' for Active; 'I' for Inactive)
REMARK    1  A    between atoms: C_9  and  C_17
REMARK    2  A    between atoms: C_11  and  C_22
REMARK    3  A    between atoms: C_25  and  O_28
REMARK    4  A    between atoms: C_27  and  O_30
REMARK                            x       y       z     vdW  Elec       q    Type
REMARK                         _______ _______ _______ _____ _____    ______ ____
ROOT
ATOM      1  O   UNL     1      33.719 -10.675 -24.101  0.00  0.00    -0.270 OA
ATOM      2  N   UNL     1      32.411 -11.392 -22.269  0.00  0.00    -0.255 N 
ATOM      3  C   UNL     1      31.703 -11.508 -19.892  0.00  0.00    +0.027 C 
ATOM      4  C   UNL     1      31.793 -13.022 -19.894  0.00  0.00    +0.029 C 
ATOM      5  C   UNL     1      31.370 -11.020 -21.291  0.00  0.00    +0.099 C 
ATOM      6  C   UNL     1      32.673 -13.516 -21.013  0.00  0.00    -0.008 C 
ATOM      7  C   UNL     1      32.959 -12.726 -22.150  0.00  0.00    +0.050 C 
ATOM      8  C   UNL     1      33.181 -14.824 -20.910  0.00  0.00    -0.002 C 
ATOM      9  C   UNL     1      33.979 -15.358 -21.916  0.00  0.00    +0.016 C 
ATOM     10  C   UNL     1      33.752 -13.299 -23.160  0.00  0.00    +0.015 C 
ATOM     11  C   UNL     1      32.862 -10.477 -23.242  0.00  0.00    +0.253 C 
ATOM     12  C   UNL     1      34.261 -14.597 -23.041  0.00  0.00    +0.003 C 
ENDROOT
BRANCH   9  17
ATOM     13  S   UNL     1      33.899 -19.341 -22.035  0.00  0.00    -0.051 S 
ATOM     14  O   UNL     1      35.818 -20.503 -20.733  0.00  0.00    -0.261 OA
ATOM     15  N   UNL     1      35.315 -16.979 -20.761  0.00  0.00    -0.182 NA
ATOM     16  N   UNL     1      35.813 -18.219 -20.551  0.00  0.00    -0.198 N 
ATOM     17  C   UNL     1      34.545 -16.739 -21.778  0.00  0.00    +0.086 C 
ATOM     18  C   UNL     1      34.226 -17.764 -22.850  0.00  0.00    +0.098 C 
ATOM     19  C   UNL     1      35.359 -17.890 -23.864  0.00  0.00    +0.019 C 
ATOM     20  C   UNL     1      35.322 -19.417 -21.020  0.00  0.00    +0.292 C 
ATOM     21  H   UNL     1      36.623 -18.271 -19.995  0.00  0.00    +0.178 HD
ENDBRANCH   9  17
BRANCH  11  22
ATOM     22  C   UNL     1      32.269  -9.125 -23.246  0.00  0.00    +0.057 C 
ATOM     23  C   UNL     1      32.491  -8.271 -22.170  0.00  0.00    +0.045 C 
ATOM     24  C   UNL     1      31.491  -8.715 -24.324  0.00  0.00    +0.008 C 
ATOM     25  C   UNL     1      31.930  -6.994 -22.172  0.00  0.00    +0.173 C 
ATOM     26  C   UNL     1      30.929  -7.438 -24.327  0.00  0.00    +0.040 C 
ATOM     27  C   UNL     1      31.149  -6.578 -23.251  0.00  0.00    +0.172 C 
BRANCH  25  28
ATOM     28  O   UNL     1      32.150  -6.163 -21.116  0.00  0.00    -0.468 OA
ATOM     29  C   UNL     1      32.594  -6.762 -19.901  0.00  0.00    +0.253 C 
ENDBRANCH  25  28
BRANCH  27  30
ATOM     30  O   UNL     1      30.596  -5.332 -23.265  0.00  0.00    -0.468 OA
ATOM     31  C   UNL     1      31.147  -4.389 -24.180  0.00  0.00    +0.253 C 
ENDBRANCH  27  30
ENDBRANCH  11  22
TORSDOF 4
ENDMDL
MODEL 4
REMARK VINA RESULT:      -9.7      6.991     12.740
REMARK  Name = 446286
REMARK  4 active torsions:
REMARK  status: ('A' for Active; 'I' for Inactive)
REMARK    1  A    between atoms: C_9  and  C_17
REMARK    2  A    between atoms: C_11  and  C_22
REMARK    3  A    between atoms: C_25  and  O_28
REMARK    4  A    between atoms: C_27  and  O_30
REMARK                            x       y       z     vdW  Elec       q    Type
REMARK                         _______ _______ _______ _____ _____    ______ ____
ROOT
ATOM      1  O   UNL     1      32.379 -14.772 -19.840  0.00  0.00    -0.270 OA
ATOM      2  N   UNL     1      32.913 -14.538 -22.130  0.00  0.00    -0.255 N 
ATOM      3  C   UNL     1      34.403 -14.403 -24.112  0.00  0.00    +0.027 C 
ATOM      4  C   UNL     1      33.781 -13.089 -24.543  0.00  0.00    +0.029 C 
ATOM      5  C   UNL     1      33.374 -15.223 -23.353  0.00  0.00    +0.099 C 
ATOM      6  C   UNL     1      33.084 -12.409 -23.394  0.00  0.00    -0.008 C 
ATOM      7  C   UNL     1      32.669 -13.116 -22.241  0.00  0.00    +0.050 C 
ATOM      8  C   UNL     1      32.820 -11.032 -23.515  0.00  0.00    -0.002 C 
ATOM      9  C   UNL     1      32.158 -10.343 -22.507  0.00  0.00    +0.016 C 
ATOM     10  C   UNL     1      31.983 -12.397 -21.246  0.00  0.00    +0.015 C 
ATOM     11  C   UNL     1      32.754 -15.236 -20.915  0.00  0.00    +0.253 C 
ATOM     12  C   UNL     1      31.737 -11.026 -21.374  0.00  0.00    +0.003 C 
ENDROOT
BRANCH   9  17
ATOM     13  S   UNL     1      31.918  -6.581 -21.211  0.00  0.00    -0.051 S 
ATOM     14  O   UNL     1      30.575  -4.987 -22.754  0.00  0.00    -0.261 OA
ATOM     15  N   UNL     1      30.904  -8.481 -23.349  0.00  0.00    -0.182 NA
ATOM     16  N   UNL     1      30.599  -7.168 -23.456  0.00  0.00    -0.198 N 
ATOM     17  C   UNL     1      31.915  -8.869 -22.632  0.00  0.00    +0.086 C 
ATOM     18  C   UNL     1      32.880  -7.914 -21.956  0.00  0.00    +0.098 C 
ATOM     19  C   UNL     1      33.913  -7.368 -22.939  0.00  0.00    +0.019 C 
ATOM     20  C   UNL     1      30.944  -6.147 -22.598  0.00  0.00    +0.292 C 
ATOM     21  H   UNL     1      30.065  -6.911 -24.242  0.00  0.00    +0.178 HD
ENDBRANCH   9  17
BRANCH  11  22
ATOM     22  C   UNL     1      33.076 -16.677 -20.899  0.00  0.00    +0.057 C 
ATOM     23  C   UNL     1      34.396 -17.090 -21.050  0.00  0.00    +0.045 C 
ATOM     24  C   UNL     1      32.058 -17.611 -20.736  0.00  0.00    +0.008 C 
ATOM     25  C   UNL     1      34.702 -18.451 -21.037  0.00  0.00    +0.173 C 
ATOM     26  C   UNL     1      32.362 -18.972 -20.723  0.00  0.00    +0.040 C 
ATOM     27  C   UNL     1      33.684 -19.392 -20.874  0.00  0.00    +0.172 C 
BRANCH  25  28
ATOM     28  O   UNL     1      35.995 -18.850 -21.185  0.00  0.00    -0.468 OA
ATOM     29  C   UNL     1      36.673 -18.426 -22.365  0.00  0.00    +0.253 C 
ENDBRANCH  25  28
BRANCH  27  30
ATOM     30  O   UNL     1      33.969 -20.725 -20.858  0.00  0.00    -0.468 OA
ATOM     31  C   UNL     1      33.759 -21.418 -19.631  0.00  0.00    +0.253 C 
ENDBRANCH  27  30
ENDBRANCH  11  22
TORSDOF 4
ENDMDL
MODEL 5
REMARK VINA RESULT:      -9.5      5.810      9.772
REMARK  Name = 446286
REMARK  4 active torsions:
REMARK  status: ('A' for Active; 'I' for Inactive)
REMARK    1  A    between atoms: C_9  and  C_17
REMARK    2  A    between atoms: C_11  and  C_22
REMARK    3  A    between atoms: C_25  and  O_28
REMARK    4  A    between atoms: C_27  and  O_30
REMARK                            x       y       z     vdW  Elec       q    Type
REMARK                         _______ _______ _______ _____ _____    ______ ____
ROOT
ATOM      1  O   UNL     1      31.837 -11.832 -20.549  0.00  0.00    -0.270 OA
ATOM      2  N   UNL     1      33.055 -12.223 -22.536  0.00  0.00    -0.255 N 
ATOM      3  C   UNL     1      33.366 -12.659 -24.961  0.00  0.00    +0.027 C 
ATOM      4  C   UNL     1      34.231 -13.871 -24.676  0.00  0.00    +0.029 C 
ATOM      5  C   UNL     1      33.505 -11.661 -23.825  0.00  0.00    +0.099 C 
ATOM      6  C   UNL     1      34.002 -14.393 -23.282  0.00  0.00    -0.008 C 
ATOM      7  C   UNL     1      33.439 -13.592 -22.261  0.00  0.00    +0.050 C 
ATOM      8  C   UNL     1      34.402 -15.714 -23.008  0.00  0.00    -0.002 C 
ATOM      9  C   UNL     1      34.245 -16.255 -21.737  0.00  0.00    +0.016 C 
ATOM     10  C   UNL     1      33.311 -14.159 -20.981  0.00  0.00    +0.015 C 
ATOM     11  C   UNL     1      32.267 -11.469 -21.642  0.00  0.00    +0.253 C 
ATOM     12  C   UNL     1      33.703 -15.477 -20.724  0.00  0.00    +0.003 C 
ENDROOT
BRANCH   9  17
ATOM     13  S   UNL     1      33.619 -20.114 -20.961  0.00  0.00    -0.051 S 
ATOM     14  O   UNL     1      35.680 -21.381 -20.026  0.00  0.00    -0.261 OA
ATOM     15  N   UNL     1      35.653 -17.881 -20.678  0.00  0.00    -0.182 NA
ATOM     16  N   UNL     1      36.027 -19.139 -20.351  0.00  0.00    -0.198 N 
ATOM     17  C   UNL     1      34.642 -17.675 -21.467  0.00  0.00    +0.086 C 
ATOM     18  C   UNL     1      33.877 -18.787 -22.158  0.00  0.00    +0.098 C 
ATOM     19  C   UNL     1      34.613 -19.294 -23.395  0.00  0.00    +0.019 C 
ATOM     20  C   UNL     1      35.264 -20.285 -20.392  0.00  0.00    +0.292 C 
ATOM     21  H   UNL     1      36.956 -19.248 -20.045  0.00  0.00    +0.178 HD
ENDBRANCH   9  17
BRANCH  11  22
ATOM     22  C   UNL     1      31.891 -10.098 -22.041  0.00  0.00    +0.057 C 
ATOM     23  C   UNL     1      32.305  -9.017 -21.269  0.00  0.00    +0.045 C 
ATOM     24  C   UNL     1      31.125  -9.897 -23.185  0.00  0.00    +0.008 C 
ATOM     25  C   UNL     1      31.949  -7.721 -21.644  0.00  0.00    +0.173 C 
ATOM     26  C   UNL     1      30.768  -8.602 -23.561  0.00  0.00    +0.040 C 
ATOM     27  C   UNL     1      31.180  -7.515 -22.790  0.00  0.00    +0.172 C 
BRANCH  25  28
ATOM     28  O   UNL     1      32.356  -6.667 -20.885  0.00  0.00    -0.468 OA
ATOM     29  C   UNL     1      32.763  -6.950 -19.548  0.00  0.00    +0.253 C 
ENDBRANCH  25  28
BRANCH  27  30
ATOM     30  O   UNL     1      30.826  -6.254 -23.168  0.00  0.00    -0.468 OA
ATOM     31  C   UNL     1      31.537  -5.682 -24.264  0.00  0.00    +0.253 C 
ENDBRANCH  27  30
ENDBRANCH  11  22
TORSDOF 4
ENDMDL
MODEL 6
REMARK VINA RESULT:      -9.4      3.052      9.927
REMARK  Name = 446286
REMARK  4 active torsions:
REMARK  status: ('A' for Active; 'I' for Inactive)
REMARK    1  A    between atoms: C_9  and  C_17
REMARK    2  A    between atoms: C_11  and  C_22
REMARK    3  A    between atoms: C_25  and  O_28
REMARK    4  A    between atoms: C_27  and  O_30
REMARK                            x       y       z     vdW  Elec       q    Type
REMARK                         _______ _______ _______ _____ _____    ______ ____
ROOT
ATOM      1  O   UNL     1      37.890 -22.295 -16.648  0.00  0.00    -0.270 OA
ATOM      2  N   UNL     1      35.561 -22.406 -17.028  0.00  0.00    -0.255 N 
ATOM      3  C   UNL     1      33.410 -23.479 -17.650  0.00  0.00    +0.027 C 
ATOM      4  C   UNL     1      33.110 -22.392 -18.663  0.00  0.00    +0.029 C 
ATOM      5  C   UNL     1      34.264 -22.906 -16.532  0.00  0.00    +0.099 C 
ATOM      6  C   UNL     1      34.364 -21.664 -19.072  0.00  0.00    -0.008 C 
ATOM      7  C   UNL     1      35.534 -21.674 -18.277  0.00  0.00    +0.050 C 
ATOM      8  C   UNL     1      34.328 -20.929 -20.272  0.00  0.00    -0.002 C 
ATOM      9  C   UNL     1      35.438 -20.212 -20.700  0.00  0.00    +0.016 C 
ATOM     10  C   UNL     1      36.635 -20.923 -18.725  0.00  0.00    +0.015 C 
ATOM     11  C   UNL     1      36.760 -22.659 -16.331  0.00  0.00    +0.253 C 
ATOM     12  C   UNL     1      36.589 -20.206 -19.925  0.00  0.00    +0.003 C 
ENDROOT
BRANCH   9  17
ATOM     13  S   UNL     1      35.043 -16.999 -23.025  0.00  0.00    -0.051 S 
ATOM     14  O   UNL     1      34.576 -17.518 -25.523  0.00  0.00    -0.261 OA
ATOM     15  N   UNL     1      34.797 -20.023 -23.002  0.00  0.00    -0.182 NA
ATOM     16  N   UNL     1      34.680 -19.375 -24.184  0.00  0.00    -0.198 N 
ATOM     17  C   UNL     1      35.399 -19.462 -21.998  0.00  0.00    +0.086 C 
ATOM     18  C   UNL     1      36.098 -18.119 -22.081  0.00  0.00    +0.098 C 
ATOM     19  C   UNL     1      37.481 -18.242 -22.715  0.00  0.00    +0.019 C 
ATOM     20  C   UNL     1      34.745 -18.019 -24.415  0.00  0.00    +0.292 C 
ATOM     21  H   UNL     1      34.528 -19.942 -24.974  0.00  0.00    +0.178 HD
ENDBRANCH   9  17
BRANCH  11  22
ATOM     22  C   UNL     1      36.681 -23.456 -15.090  0.00  0.00    +0.057 C 
ATOM     23  C   UNL     1      37.622 -24.454 -14.851  0.00  0.00    +0.045 C 
ATOM     24  C   UNL     1      35.667 -23.207 -14.172  0.00  0.00    +0.008 C 
ATOM     25  C   UNL     1      37.547 -25.208 -13.679  0.00  0.00    +0.173 C 
ATOM     26  C   UNL     1      35.591 -23.961 -13.000  0.00  0.00    +0.040 C 
ATOM     27  C   UNL     1      36.532 -24.962 -12.755  0.00  0.00    +0.172 C 
BRANCH  25  28
ATOM     28  O   UNL     1      38.471 -26.183 -13.450  0.00  0.00    -0.468 OA
ATOM     29  C   UNL     1      39.809 -25.919 -13.865  0.00  0.00    +0.253 C 
ENDBRANCH  25  28
BRANCH  27  30
ATOM     30  O   UNL     1      36.449 -25.692 -11.607  0.00  0.00    -0.468 OA
ATOM     31  C   UNL     1      35.725 -25.115 -10.523  0.00  0.00    +0.253 C 
ENDBRANCH  27  30
ENDBRANCH  11  22
TORSDOF 4
ENDMDL
MODEL 7
REMARK VINA RESULT:      -9.3      7.848     12.303
REMARK  Name = 446286
REMARK  4 active torsions:
REMARK  status: ('A' for Active; 'I' for Inactive)
REMARK    1  A    between atoms: C_9  and  C_17
REMARK    2  A    between atoms: C_11  and  C_22
REMARK    3  A    between atoms: C_25  and  O_28
REMARK    4  A    between atoms: C_27  and  O_30
REMARK                            x       y       z     vdW  Elec       q    Type
REMARK                         _______ _______ _______ _____ _____    ______ ____
ROOT
ATOM      1  O   UNL     1      33.739  -8.969 -24.272  0.00  0.00    -0.270 OA
ATOM      2  N   UNL     1      32.158  -9.903 -22.786  0.00  0.00    -0.255 N 
ATOM      3  C   UNL     1      31.139 -10.411 -20.578  0.00  0.00    +0.027 C 
ATOM      4  C   UNL     1      31.129 -11.897 -20.877  0.00  0.00    +0.029 C 
ATOM      5  C   UNL     1      31.025  -9.634 -21.878  0.00  0.00    +0.099 C 
ATOM      6  C   UNL     1      32.112 -12.245 -21.964  0.00  0.00    -0.008 C 
ATOM      7  C   UNL     1      32.596 -11.280 -22.877  0.00  0.00    +0.050 C 
ATOM      8  C   UNL     1      32.515 -13.589 -22.071  0.00  0.00    -0.002 C 
ATOM      9  C   UNL     1      33.400 -13.989 -23.066  0.00  0.00    +0.016 C 
ATOM     10  C   UNL     1      33.474 -11.717 -23.885  0.00  0.00    +0.015 C 
ATOM     11  C   UNL     1      32.792  -8.863 -23.495  0.00  0.00    +0.253 C 
ATOM     12  C   UNL     1      33.876 -13.054 -23.974  0.00  0.00    +0.003 C 
ENDROOT
BRANCH   9  17
ATOM     13  S   UNL     1      35.710 -17.120 -22.205  0.00  0.00    -0.051 S 
ATOM     14  O   UNL     1      35.538 -19.089 -23.884  0.00  0.00    -0.261 OA
ATOM     15  N   UNL     1      33.847 -15.986 -24.314  0.00  0.00    -0.182 NA
ATOM     16  N   UNL     1      34.294 -17.254 -24.463  0.00  0.00    -0.198 N 
ATOM     17  C   UNL     1      33.850 -15.416 -23.147  0.00  0.00    +0.086 C 
ATOM     18  C   UNL     1      34.240 -16.129 -21.866  0.00  0.00    +0.098 C 
ATOM     19  C   UNL     1      33.101 -16.992 -21.333  0.00  0.00    +0.019 C 
ATOM     20  C   UNL     1      35.148 -17.952 -23.637  0.00  0.00    +0.292 C 
ATOM     21  H   UNL     1      33.970 -17.736 -25.258  0.00  0.00    +0.178 HD
ENDBRANCH   9  17
BRANCH  11  22
ATOM     22  C   UNL     1      32.295  -7.487 -23.293  0.00  0.00    +0.057 C 
ATOM     23  C   UNL     1      31.852  -6.746 -24.385  0.00  0.00    +0.045 C 
ATOM     24  C   UNL     1      32.277  -6.940 -22.014  0.00  0.00    +0.008 C 
ATOM     25  C   UNL     1      31.384  -5.445 -24.194  0.00  0.00    +0.173 C 
ATOM     26  C   UNL     1      31.810  -5.640 -21.823  0.00  0.00    +0.040 C 
ATOM     27  C   UNL     1      31.364  -4.893 -22.914  0.00  0.00    +0.172 C 
BRANCH  25  28
ATOM     28  O   UNL     1      30.952  -4.725 -25.266  0.00  0.00    -0.468 OA
ATOM     29  C   UNL     1      31.949  -4.149 -26.106  0.00  0.00    +0.253 C 
ENDBRANCH  25  28
BRANCH  27  30
ATOM     30  O   UNL     1      30.909  -3.624 -22.715  0.00  0.00    -0.468 OA
ATOM     31  C   UNL     1      31.820  -2.559 -22.977  0.00  0.00    +0.253 C 
ENDBRANCH  27  30
ENDBRANCH  11  22
TORSDOF 4
ENDMDL
MODEL 8
REMARK VINA RESULT:      -9.1      7.243     13.132
REMARK  Name = 446286
REMARK  4 active torsions:
REMARK  status: ('A' for Active; 'I' for Inactive)
REMARK    1  A    between atoms: C_9  and  C_17
REMARK    2  A    between atoms: C_11  and  C_22
REMARK    3  A    between atoms: C_25  and  O_28
REMARK    4  A    between atoms: C_27  and  O_30
REMARK                            x       y       z     vdW  Elec       q    Type
REMARK                         _______ _______ _______ _____ _____    ______ ____
ROOT
ATOM      1  O   UNL     1      34.579 -14.532 -24.377  0.00  0.00    -0.270 OA
ATOM      2  N   UNL     1      33.656 -13.935 -22.285  0.00  0.00    -0.255 N 
ATOM      3  C   UNL     1      31.952 -13.910 -20.479  0.00  0.00    +0.027 C 
ATOM      4  C   UNL     1      31.932 -12.394 -20.460  0.00  0.00    +0.029 C 
ATOM      5  C   UNL     1      33.323 -14.390 -20.921  0.00  0.00    +0.099 C 
ATOM      6  C   UNL     1      32.469 -11.823 -21.747  0.00  0.00    -0.008 C 
ATOM      7  C   UNL     1      33.299 -12.571 -22.614  0.00  0.00    +0.050 C 
ATOM      8  C   UNL     1      32.146 -10.487 -22.051  0.00  0.00    -0.002 C 
ATOM      9  C   UNL     1      32.627  -9.885 -23.207  0.00  0.00    +0.016 C 
ATOM     10  C   UNL     1      33.787 -11.929 -23.766  0.00  0.00    +0.015 C 
ATOM     11  C   UNL     1      34.260 -14.800 -23.221  0.00  0.00    +0.253 C 
ATOM     12  C   UNL     1      33.449 -10.605 -24.062  0.00  0.00    +0.003 C 
ENDROOT
BRANCH   9  17
ATOM     13  S   UNL     1      32.145  -5.993 -22.493  0.00  0.00    -0.051 S 
ATOM     14  O   UNL     1      30.563  -4.775 -24.149  0.00  0.00    -0.261 OA
ATOM     15  N   UNL     1      31.158  -8.284 -24.221  0.00  0.00    -0.182 NA
ATOM     16  N   UNL     1      30.731  -7.032 -24.505  0.00  0.00    -0.198 N 
ATOM     17  C   UNL     1      32.246  -8.473 -23.538  0.00  0.00    +0.086 C 
ATOM     18  C   UNL     1      33.168  -7.351 -23.100  0.00  0.00    +0.098 C 
ATOM     19  C   UNL     1      34.078  -6.893 -24.237  0.00  0.00    +0.019 C 
ATOM     20  C   UNL     1      31.043  -5.863 -23.846  0.00  0.00    +0.292 C 
ATOM     21  H   UNL     1      30.123  -6.947 -25.274  0.00  0.00    +0.178 HD
ENDBRANCH   9  17
BRANCH  11  22
ATOM     22  C   UNL     1      34.539 -16.187 -22.798  0.00  0.00    +0.057 C 
ATOM     23  C   UNL     1      34.567 -17.205 -23.746  0.00  0.00    +0.045 C 
ATOM     24  C   UNL     1      34.770 -16.466 -21.454  0.00  0.00    +0.008 C 
ATOM     25  C   UNL     1      34.829 -18.516 -23.347  0.00  0.00    +0.173 C 
ATOM     26  C   UNL     1      35.032 -17.777 -21.054  0.00  0.00    +0.040 C 
ATOM     27  C   UNL     1      35.061 -18.801 -22.001  0.00  0.00    +0.172 C 
BRANCH  25  28
ATOM     28  O   UNL     1      34.855 -19.508 -24.279  0.00  0.00    -0.468 OA
ATOM     29  C   UNL     1      34.104 -19.296 -25.473  0.00  0.00    +0.253 C 
ENDBRANCH  25  28
BRANCH  27  30
ATOM     30  O   UNL     1      35.319 -20.078 -21.599  0.00  0.00    -0.468 OA
ATOM     31  C   UNL     1      34.950 -20.425 -20.266  0.00  0.00    +0.253 C 
ENDBRANCH  27  30
ENDBRANCH  11  22
TORSDOF 4
ENDMDL
MODEL 9
REMARK VINA RESULT:      -8.8      8.206     13.686
REMARK  Name = 446286
REMARK  4 active torsions:
REMARK  status: ('A' for Active; 'I' for Inactive)
REMARK    1  A    between atoms: C_9  and  C_17
REMARK    2  A    between atoms: C_11  and  C_22
REMARK    3  A    between atoms: C_25  and  O_28
REMARK    4  A    between atoms: C_27  and  O_30
REMARK                            x       y       z     vdW  Elec       q    Type
REMARK                         _______ _______ _______ _____ _____    ______ ____
ROOT
ATOM      1  O   UNL     1      34.023 -12.833 -25.423  0.00  0.00    -0.270 OA
ATOM      2  N   UNL     1      33.324 -12.805 -23.165  0.00  0.00    -0.255 N 
ATOM      3  C   UNL     1      31.798 -13.239 -21.256  0.00  0.00    +0.027 C 
ATOM      4  C   UNL     1      31.844 -11.783 -20.833  0.00  0.00    +0.029 C 
ATOM      5  C   UNL     1      33.100 -13.606 -21.946  0.00  0.00    +0.099 C 
ATOM      6  C   UNL     1      32.284 -10.897 -21.968  0.00  0.00    -0.008 C 
ATOM      7  C   UNL     1      32.997 -11.397 -23.082  0.00  0.00    +0.050 C 
ATOM      8  C   UNL     1      31.992  -9.524 -21.872  0.00  0.00    -0.002 C 
ATOM      9  C   UNL     1      32.389  -8.640 -22.869  0.00  0.00    +0.016 C 
ATOM     10  C   UNL     1      33.404 -10.478 -24.065  0.00  0.00    +0.015 C 
ATOM     11  C   UNL     1      33.801 -13.397 -24.353  0.00  0.00    +0.253 C 
ATOM     12  C   UNL     1      33.098  -9.117 -23.963  0.00  0.00    +0.003 C 
ENDROOT
BRANCH   9  17
ATOM     13  S   UNL     1      30.133  -5.507 -21.881  0.00  0.00    -0.051 S 
ATOM     14  O   UNL     1      30.723  -3.310 -23.127  0.00  0.00    -0.261 OA
ATOM     15  N   UNL     1      32.292  -6.434 -23.801  0.00  0.00    -0.182 NA
ATOM     16  N   UNL     1      31.951  -5.125 -23.798  0.00  0.00    -0.198 N 
ATOM     17  C   UNL     1      32.041  -7.185 -22.772  0.00  0.00    +0.086 C 
ATOM     18  C   UNL     1      31.458  -6.663 -21.473  0.00  0.00    +0.098 C 
ATOM     19  C   UNL     1      32.523  -6.000 -20.604  0.00  0.00    +0.019 C 
ATOM     20  C   UNL     1      30.997  -4.502 -23.023  0.00  0.00    +0.292 C 
ATOM     21  H   UNL     1      32.443  -4.548 -24.425  0.00  0.00    +0.178 HD
ENDBRANCH   9  17
BRANCH  11  22
ATOM     22  C   UNL     1      34.059 -14.851 -24.344  0.00  0.00    +0.057 C 
ATOM     23  C   UNL     1      34.772 -15.420 -23.294  0.00  0.00    +0.045 C 
ATOM     24  C   UNL     1      33.588 -15.642 -25.388  0.00  0.00    +0.008 C 
ATOM     25  C   UNL     1      35.017 -16.793 -23.286  0.00  0.00    +0.173 C 
ATOM     26  C   UNL     1      33.832 -17.016 -25.381  0.00  0.00    +0.040 C 
ATOM     27  C   UNL     1      34.547 -17.590 -24.330  0.00  0.00    +0.172 C 
BRANCH  25  28
ATOM     28  O   UNL     1      35.716 -17.344 -22.255  0.00  0.00    -0.468 OA
ATOM     29  C   UNL     1      35.084 -17.357 -20.977  0.00  0.00    +0.253 C 
ENDBRANCH  25  28
BRANCH  27  30
ATOM     30  O   UNL     1      34.779 -18.934 -24.333  0.00  0.00    -0.468 OA
ATOM     31  C   UNL     1      34.183 -19.692 -25.383  0.00  0.00    +0.253 C 
ENDBRANCH  27  30
ENDBRANCH  11  22
TORSDOF 4
ENDMDL
