MODEL 1
REMARK VINA RESULT:      -9.7      0.000      0.000
REMARK  Name = 46937084
REMARK  16 active torsions:
REMARK  status: ('A' for Active; 'I' for Inactive)
REMARK    1  A    between atoms: C_2  and  O_9
REMARK    2  A    between atoms: C_4  and  O_7
REMARK    3  A    between atoms: C_5  and  O_23
REMARK    4  A    between atoms: C_6  and  C_32
REMARK    5  A    between atoms: O_9  and  C_11
REMARK    6  A    between atoms: C_12  and  O_17
REMARK    7  A    between atoms: C_13  and  O_19
REMARK    8  A    between atoms: C_14  and  O_21
REMARK    9  A    between atoms: O_23  and  C_24
REMARK   10  A    between atoms: C_24  and  C_25
REMARK   11  A    between atoms: C_25  and  C_26
REMARK   12  A    between atoms: C_26  and  C_27
REMARK   13  A    between atoms: C_27  and  C_28
REMARK   14  A    between atoms: C_28  and  C_29
REMARK   15  A    between atoms: C_29  and  C_30
REMARK   16  A    between atoms: C_32  and  O_33
REMARK                            x       y       z     vdW  Elec       q    Type
REMARK                         _______ _______ _______ _____ _____    ______ ____
ROOT
ATOM      1  O   UNL     1      32.537 -22.886 -17.010  0.00  0.00    -0.326 OA
ATOM      2  C   UNL     1      34.411 -23.608 -15.644  0.00  0.00    +0.176 C 
ATOM      3  C   UNL     1      33.442 -24.265 -14.662  0.00  0.00    +0.067 C 
ATOM      4  C   UNL     1      32.058 -23.630 -14.742  0.00  0.00    +0.143 C 
ATOM      5  C   UNL     1      33.806 -23.538 -17.046  0.00  0.00    +0.264 C 
ATOM      6  C   UNL     1      31.580 -23.575 -16.199  0.00  0.00    +0.174 C 
ENDROOT
BRANCH   4   7
ATOM      7  O   UNL     1      32.116 -22.310 -14.207  0.00  0.00    -0.382 OA
ATOM      8  H   UNL     1      32.636 -22.315 -13.389  0.00  0.00    +0.210 HD
ENDBRANCH   4   7
BRANCH   2   9
ATOM      9  O   UNL     1      35.618 -24.364 -15.694  0.00  0.00    -0.326 OA
BRANCH   9  11
ATOM     10  O   UNL     1      35.970 -24.573 -13.364  0.00  0.00    -0.329 OA
ATOM     11  C   UNL     1      35.715 -25.263 -14.590  0.00  0.00    +0.266 C 
ATOM     12  C   UNL     1      36.805 -26.307 -14.857  0.00  0.00    +0.196 C 
ATOM     13  C   UNL     1      38.190 -25.662 -14.834  0.00  0.00    +0.171 C 
ATOM     14  C   UNL     1      38.390 -24.851 -13.550  0.00  0.00    +0.167 C 
ATOM     15  C   UNL     1      37.224 -23.874 -13.346  0.00  0.00    +0.147 C 
ATOM     16  C   UNL     1      37.312 -23.134 -12.016  0.00  0.00    +0.035 C 
BRANCH  12  17
ATOM     17  O   UNL     1      36.592 -26.926 -16.122  0.00  0.00    -0.378 OA
ATOM     18  H   UNL     1      35.797 -26.554 -16.534  0.00  0.00    +0.211 HD
ENDBRANCH  12  17
BRANCH  13  19
ATOM     19  O   UNL     1      39.185 -26.677 -14.932  0.00  0.00    -0.379 OA
ATOM     20  H   UNL     1      38.987 -27.252 -15.687  0.00  0.00    +0.211 HD
ENDBRANCH  13  19
BRANCH  14  21
ATOM     21  O   UNL     1      38.485 -25.736 -12.431  0.00  0.00    -0.379 OA
ATOM     22  H   UNL     1      39.301 -26.255 -12.498  0.00  0.00    +0.211 HD
ENDBRANCH  14  21
ENDBRANCH   9  11
ENDBRANCH   2   9
BRANCH   5  23
ATOM     23  O   UNL     1      34.703 -22.802 -17.876  0.00  0.00    -0.329 OA
BRANCH  23  24
ATOM     24  C   UNL     1      34.164 -22.597 -19.175  0.00  0.00    +0.145 C 
BRANCH  24  25
ATOM     25  C   UNL     1      34.446 -21.164 -19.605  0.00  0.00    +0.032 C 
BRANCH  25  26
ATOM     26  C   UNL     1      33.232 -20.529 -20.281  0.00  0.00    +0.003 C 
BRANCH  26  27
ATOM     27  C   UNL     1      33.653 -19.412 -21.238  0.00  0.00    +0.000 C 
BRANCH  27  28
ATOM     28  C   UNL     1      35.158 -19.382 -21.516  0.00  0.00    +0.000 C 
BRANCH  28  29
ATOM     29  C   UNL     1      35.532 -18.575 -22.761  0.00  0.00    +0.000 C 
BRANCH  29  30
ATOM     30  C   UNL     1      34.813 -19.106 -24.001  0.00  0.00    +0.000 C 
ATOM     31  C   UNL     1      34.501 -17.990 -24.985  0.00  0.00    +0.000 C 
ENDBRANCH  29  30
ENDBRANCH  28  29
ENDBRANCH  27  28
ENDBRANCH  26  27
ENDBRANCH  25  26
ENDBRANCH  24  25
ENDBRANCH  23  24
ENDBRANCH   5  23
BRANCH   6  32
ATOM     32  C   UNL     1      30.249 -22.845 -16.345  0.00  0.00    +0.169 C 
BRANCH  32  33
ATOM     33  O   UNL     1      29.505 -23.019 -15.152  0.00  0.00    -0.379 OA
ATOM     34  H   UNL     1      29.108 -22.173 -14.893  0.00  0.00    +0.211 HD
ENDBRANCH  32  33
ENDBRANCH   6  32
TORSDOF 16
ENDMDL
MODEL 2
REMARK VINA RESULT:      -9.1      1.676      2.283
REMARK  Name = 46937084
REMARK  16 active torsions:
REMARK  status: ('A' for Active; 'I' for Inactive)
REMARK    1  A    between atoms: C_2  and  O_9
REMARK    2  A    between atoms: C_4  and  O_7
REMARK    3  A    between atoms: C_5  and  O_23
REMARK    4  A    between atoms: C_6  and  C_32
REMARK    5  A    between atoms: O_9  and  C_11
REMARK    6  A    between atoms: C_12  and  O_17
REMARK    7  A    between atoms: C_13  and  O_19
REMARK    8  A    between atoms: C_14  and  O_21
REMARK    9  A    between atoms: O_23  and  C_24
REMARK   10  A    between atoms: C_24  and  C_25
REMARK   11  A    between atoms: C_25  and  C_26
REMARK   12  A    between atoms: C_26  and  C_27
REMARK   13  A    between atoms: C_27  and  C_28
REMARK   14  A    between atoms: C_28  and  C_29
REMARK   15  A    between atoms: C_29  and  C_30
REMARK   16  A    between atoms: C_32  and  O_33
REMARK                            x       y       z     vdW  Elec       q    Type
REMARK                         _______ _______ _______ _____ _____    ______ ____
ROOT
ATOM      1  O   UNL     1      31.381 -23.345 -16.730  0.00  0.00    -0.326 OA
ATOM      2  C   UNL     1      32.902 -23.743 -14.880  0.00  0.00    +0.176 C 
ATOM      3  C   UNL     1      31.760 -24.358 -14.072  0.00  0.00    +0.067 C 
ATOM      4  C   UNL     1      30.405 -23.854 -14.559  0.00  0.00    +0.143 C 
ATOM      5  C   UNL     1      32.652 -23.889 -16.380  0.00  0.00    +0.264 C 
ATOM      6  C   UNL     1      30.292 -24.010 -16.081  0.00  0.00    +0.174 C 
ENDROOT
BRANCH   4   7
ATOM      7  O   UNL     1      30.263 -22.479 -14.207  0.00  0.00    -0.382 OA
ATOM      8  H   UNL     1      30.396 -22.374 -13.252  0.00  0.00    +0.210 HD
ENDBRANCH   4   7
BRANCH   2   9
ATOM      9  O   UNL     1      34.123 -24.397 -14.545  0.00  0.00    -0.326 OA
BRANCH   9  11
ATOM     10  O   UNL     1      35.985 -22.938 -14.495  0.00  0.00    -0.329 OA
ATOM     11  C   UNL     1      34.952 -23.568 -13.732  0.00  0.00    +0.266 C 
ATOM     12  C   UNL     1      35.555 -24.388 -12.587  0.00  0.00    +0.196 C 
ATOM     13  C   UNL     1      36.575 -25.393 -13.119  0.00  0.00    +0.171 C 
ATOM     14  C   UNL     1      37.608 -24.698 -14.011  0.00  0.00    +0.167 C 
ATOM     15  C   UNL     1      36.907 -23.863 -15.091  0.00  0.00    +0.147 C 
ATOM     16  C   UNL     1      37.890 -23.049 -15.926  0.00  0.00    +0.035 C 
BRANCH  12  17
ATOM     17  O   UNL     1      34.526 -25.084 -11.887  0.00  0.00    -0.378 OA
ATOM     18  H   UNL     1      33.661 -24.740 -12.159  0.00  0.00    +0.211 HD
ENDBRANCH  12  17
BRANCH  13  19
ATOM     19  O   UNL     1      37.226 -26.031 -12.023  0.00  0.00    -0.379 OA
ATOM     20  H   UNL     1      37.140 -25.479 -11.230  0.00  0.00    +0.211 HD
ENDBRANCH  13  19
BRANCH  14  21
ATOM     21  O   UNL     1      38.446 -23.857 -13.214  0.00  0.00    -0.379 OA
ATOM     22  H   UNL     1      39.273 -24.323 -13.013  0.00  0.00    +0.211 HD
ENDBRANCH  14  21
ENDBRANCH   9  11
ENDBRANCH   2   9
BRANCH   5  23
ATOM     23  O   UNL     1      33.684 -23.185 -17.069  0.00  0.00    -0.329 OA
BRANCH  23  24
ATOM     24  C   UNL     1      33.178 -22.492 -18.202  0.00  0.00    +0.145 C 
BRANCH  24  25
ATOM     25  C   UNL     1      34.257 -22.448 -19.275  0.00  0.00    +0.032 C 
BRANCH  25  26
ATOM     26  C   UNL     1      35.546 -21.813 -18.753  0.00  0.00    +0.003 C 
BRANCH  26  27
ATOM     27  C   UNL     1      36.144 -20.850 -19.781  0.00  0.00    +0.000 C 
BRANCH  27  28
ATOM     28  C   UNL     1      35.139 -20.387 -20.839  0.00  0.00    +0.000 C 
BRANCH  28  29
ATOM     29  C   UNL     1      35.129 -18.871 -21.047  0.00  0.00    +0.000 C 
BRANCH  29  30
ATOM     30  C   UNL     1      35.794 -18.489 -22.370  0.00  0.00    +0.000 C 
ATOM     31  C   UNL     1      34.974 -18.959 -23.561  0.00  0.00    +0.000 C 
ENDBRANCH  29  30
ENDBRANCH  28  29
ENDBRANCH  27  28
ENDBRANCH  26  27
ENDBRANCH  25  26
ENDBRANCH  24  25
ENDBRANCH  23  24
ENDBRANCH   5  23
BRANCH   6  32
ATOM     32  C   UNL     1      29.001 -23.416 -16.630  0.00  0.00    +0.169 C 
BRANCH  32  33
ATOM     33  O   UNL     1      29.253 -22.082 -17.036  0.00  0.00    -0.379 OA
ATOM     34  H   UNL     1      29.451 -22.065 -17.985  0.00  0.00    +0.211 HD
ENDBRANCH  32  33
ENDBRANCH   6  32
TORSDOF 16
ENDMDL
MODEL 3
REMARK VINA RESULT:      -9.0      1.683      5.744
REMARK  Name = 46937084
REMARK  16 active torsions:
REMARK  status: ('A' for Active; 'I' for Inactive)
REMARK    1  A    between atoms: C_2  and  O_9
REMARK    2  A    between atoms: C_4  and  O_7
REMARK    3  A    between atoms: C_5  and  O_23
REMARK    4  A    between atoms: C_6  and  C_32
REMARK    5  A    between atoms: O_9  and  C_11
REMARK    6  A    between atoms: C_12  and  O_17
REMARK    7  A    between atoms: C_13  and  O_19
REMARK    8  A    between atoms: C_14  and  O_21
REMARK    9  A    between atoms: O_23  and  C_24
REMARK   10  A    between atoms: C_24  and  C_25
REMARK   11  A    between atoms: C_25  and  C_26
REMARK   12  A    between atoms: C_26  and  C_27
REMARK   13  A    between atoms: C_27  and  C_28
REMARK   14  A    between atoms: C_28  and  C_29
REMARK   15  A    between atoms: C_29  and  C_30
REMARK   16  A    between atoms: C_32  and  O_33
REMARK                            x       y       z     vdW  Elec       q    Type
REMARK                         _______ _______ _______ _____ _____    ______ ____
ROOT
ATOM      1  O   UNL     1      38.489 -23.909 -14.967  0.00  0.00    -0.326 OA
ATOM      2  C   UNL     1      36.094 -24.306 -15.010  0.00  0.00    +0.176 C 
ATOM      3  C   UNL     1      36.303 -25.647 -14.306  0.00  0.00    +0.067 C 
ATOM      4  C   UNL     1      37.715 -26.176 -14.534  0.00  0.00    +0.143 C 
ATOM      5  C   UNL     1      37.219 -23.329 -14.673  0.00  0.00    +0.264 C 
ATOM      6  C   UNL     1      38.751 -25.093 -14.207  0.00  0.00    +0.174 C 
ENDROOT
BRANCH   4   7
ATOM      7  O   UNL     1      37.852 -26.573 -15.897  0.00  0.00    -0.382 OA
ATOM      8  H   UNL     1      38.281 -25.863 -16.399  0.00  0.00    +0.210 HD
ENDBRANCH   4   7
BRANCH   2   9
ATOM      9  O   UNL     1      34.850 -23.746 -14.598  0.00  0.00    -0.326 OA
BRANCH   9  11
ATOM     10  O   UNL     1      33.120 -24.170 -16.155  0.00  0.00    -0.329 OA
ATOM     11  C   UNL     1      33.756 -24.592 -14.946  0.00  0.00    +0.266 C 
ATOM     12  C   UNL     1      32.745 -24.644 -13.796  0.00  0.00    +0.196 C 
ATOM     13  C   UNL     1      32.037 -23.299 -13.638  0.00  0.00    +0.171 C 
ATOM     14  C   UNL     1      31.453 -22.832 -14.975  0.00  0.00    +0.167 C 
ATOM     15  C   UNL     1      32.528 -22.865 -16.069  0.00  0.00    +0.147 C 
ATOM     16  C   UNL     1      31.965 -22.531 -17.447  0.00  0.00    +0.035 C 
BRANCH  12  17
ATOM     17  O   UNL     1      33.403 -24.979 -12.578  0.00  0.00    -0.378 OA
ATOM     18  H   UNL     1      34.345 -25.129 -12.751  0.00  0.00    +0.211 HD
ENDBRANCH  12  17
BRANCH  13  19
ATOM     19  O   UNL     1      31.000 -23.423 -12.667  0.00  0.00    -0.379 OA
ATOM     20  H   UNL     1      30.490 -24.231 -12.840  0.00  0.00    +0.211 HD
ENDBRANCH  13  19
BRANCH  14  21
ATOM     21  O   UNL     1      30.357 -23.673 -15.342  0.00  0.00    -0.379 OA
ATOM     22  H   UNL     1      30.695 -24.472 -15.778  0.00  0.00    +0.211 HD
ENDBRANCH  14  21
ENDBRANCH   9  11
ENDBRANCH   2   9
BRANCH   5  23
ATOM     23  O   UNL     1      37.032 -22.154 -15.459  0.00  0.00    -0.329 OA
BRANCH  23  24
ATOM     24  C   UNL     1      37.350 -22.381 -16.825  0.00  0.00    +0.145 C 
BRANCH  24  25
ATOM     25  C   UNL     1      36.148 -22.007 -17.680  0.00  0.00    +0.032 C 
BRANCH  25  26
ATOM     26  C   UNL     1      36.566 -21.247 -18.939  0.00  0.00    +0.003 C 
BRANCH  26  27
ATOM     27  C   UNL     1      35.590 -21.503 -20.090  0.00  0.00    +0.000 C 
BRANCH  27  28
ATOM     28  C   UNL     1      34.204 -20.895 -19.859  0.00  0.00    +0.000 C 
BRANCH  28  29
ATOM     29  C   UNL     1      33.784 -19.905 -20.948  0.00  0.00    +0.000 C 
BRANCH  29  30
ATOM     30  C   UNL     1      35.003 -19.281 -21.628  0.00  0.00    +0.000 C 
ATOM     31  C   UNL     1      34.804 -19.165 -23.131  0.00  0.00    +0.000 C 
ENDBRANCH  29  30
ENDBRANCH  28  29
ENDBRANCH  27  28
ENDBRANCH  26  27
ENDBRANCH  25  26
ENDBRANCH  24  25
ENDBRANCH  23  24
ENDBRANCH   5  23
BRANCH   6  32
ATOM     32  C   UNL     1      40.174 -25.536 -14.527  0.00  0.00    +0.169 C 
BRANCH  32  33
ATOM     33  O   UNL     1      40.338 -25.548 -15.934  0.00  0.00    -0.379 OA
ATOM     34  H   UNL     1      40.361 -26.465 -16.248  0.00  0.00    +0.211 HD
ENDBRANCH  32  33
ENDBRANCH   6  32
TORSDOF 16
ENDMDL
MODEL 4
REMARK VINA RESULT:      -8.4      1.901      5.482
REMARK  Name = 46937084
REMARK  16 active torsions:
REMARK  status: ('A' for Active; 'I' for Inactive)
REMARK    1  A    between atoms: C_2  and  O_9
REMARK    2  A    between atoms: C_4  and  O_7
REMARK    3  A    between atoms: C_5  and  O_23
REMARK    4  A    between atoms: C_6  and  C_32
REMARK    5  A    between atoms: O_9  and  C_11
REMARK    6  A    between atoms: C_12  and  O_17
REMARK    7  A    between atoms: C_13  and  O_19
REMARK    8  A    between atoms: C_14  and  O_21
REMARK    9  A    between atoms: O_23  and  C_24
REMARK   10  A    between atoms: C_24  and  C_25
REMARK   11  A    between atoms: C_25  and  C_26
REMARK   12  A    between atoms: C_26  and  C_27
REMARK   13  A    between atoms: C_27  and  C_28
REMARK   14  A    between atoms: C_28  and  C_29
REMARK   15  A    between atoms: C_29  and  C_30
REMARK   16  A    between atoms: C_32  and  O_33
REMARK                            x       y       z     vdW  Elec       q    Type
REMARK                         _______ _______ _______ _____ _____    ______ ____
ROOT
ATOM      1  O   UNL     1      35.620 -22.741 -17.271  0.00  0.00    -0.326 OA
ATOM      2  C   UNL     1      33.913 -23.698 -15.833  0.00  0.00    +0.176 C 
ATOM      3  C   UNL     1      34.855 -23.576 -14.635  0.00  0.00    +0.067 C 
ATOM      4  C   UNL     1      36.313 -23.541 -15.079  0.00  0.00    +0.143 C 
ATOM      5  C   UNL     1      34.246 -22.654 -16.898  0.00  0.00    +0.264 C 
ATOM      6  C   UNL     1      36.511 -22.490 -16.179  0.00  0.00    +0.174 C 
ENDROOT
BRANCH   4   7
ATOM      7  O   UNL     1      36.684 -24.826 -15.572  0.00  0.00    -0.382 OA
ATOM      8  H   UNL     1      37.624 -24.823 -15.810  0.00  0.00    +0.210 HD
ENDBRANCH   4   7
BRANCH   2   9
ATOM      9  O   UNL     1      32.569 -23.509 -15.398  0.00  0.00    -0.326 OA
BRANCH   9  11
ATOM     10  O   UNL     1      30.667 -24.666 -16.200  0.00  0.00    -0.329 OA
ATOM     11  C   UNL     1      31.846 -24.739 -15.394  0.00  0.00    +0.266 C 
ATOM     12  C   UNL     1      31.491 -25.135 -13.957  0.00  0.00    +0.196 C 
ATOM     13  C   UNL     1      30.450 -24.180 -13.374  0.00  0.00    +0.171 C 
ATOM     14  C   UNL     1      29.246 -24.050 -14.311  0.00  0.00    +0.167 C 
ATOM     15  C   UNL     1      29.708 -23.704 -15.733  0.00  0.00    +0.147 C 
ATOM     16  C   UNL     1      28.556 -23.690 -16.732  0.00  0.00    +0.035 C 
BRANCH  12  17
ATOM     17  O   UNL     1      32.658 -25.119 -13.141  0.00  0.00    -0.378 OA
ATOM     18  H   UNL     1      32.487 -25.611 -12.323  0.00  0.00    +0.211 HD
ENDBRANCH  12  17
BRANCH  13  19
ATOM     19  O   UNL     1      30.029 -24.660 -12.100  0.00  0.00    -0.379 OA
ATOM     20  H   UNL     1      30.424 -24.114 -11.401  0.00  0.00    +0.211 HD
ENDBRANCH  13  19
BRANCH  14  21
ATOM     21  O   UNL     1      28.511 -25.276 -14.324  0.00  0.00    -0.379 OA
ATOM     22  H   UNL     1      28.032 -25.375 -13.485  0.00  0.00    +0.211 HD
ENDBRANCH  14  21
ENDBRANCH   9  11
ENDBRANCH   2   9
BRANCH   5  23
ATOM     23  O   UNL     1      33.421 -22.906 -18.034  0.00  0.00    -0.329 OA
BRANCH  23  24
ATOM     24  C   UNL     1      33.847 -22.161 -19.166  0.00  0.00    +0.145 C 
BRANCH  24  25
ATOM     25  C   UNL     1      32.831 -21.063 -19.445  0.00  0.00    +0.032 C 
BRANCH  25  26
ATOM     26  C   UNL     1      33.266 -20.173 -20.609  0.00  0.00    +0.003 C 
BRANCH  26  27
ATOM     27  C   UNL     1      34.792 -20.095 -20.705  0.00  0.00    +0.000 C 
BRANCH  27  28
ATOM     28  C   UNL     1      35.289 -18.910 -21.537  0.00  0.00    +0.000 C 
BRANCH  28  29
ATOM     29  C   UNL     1      34.950 -19.025 -23.025  0.00  0.00    +0.000 C 
BRANCH  29  30
ATOM     30  C   UNL     1      35.060 -17.670 -23.725  0.00  0.00    +0.000 C 
ATOM     31  C   UNL     1      34.530 -17.733 -25.148  0.00  0.00    +0.000 C 
ENDBRANCH  29  30
ENDBRANCH  28  29
ENDBRANCH  27  28
ENDBRANCH  26  27
ENDBRANCH  25  26
ENDBRANCH  24  25
ENDBRANCH  23  24
ENDBRANCH   5  23
BRANCH   6  32
ATOM     32  C   UNL     1      37.930 -22.495 -16.737  0.00  0.00    +0.169 C 
BRANCH  32  33
ATOM     33  O   UNL     1      38.748 -23.279 -15.886  0.00  0.00    -0.379 OA
ATOM     34  H   UNL     1      38.309 -23.387 -15.028  0.00  0.00    +0.211 HD
ENDBRANCH  32  33
ENDBRANCH   6  32
TORSDOF 16
ENDMDL
MODEL 5
REMARK VINA RESULT:      -8.0     12.300     17.629
REMARK  Name = 46937084
REMARK  16 active torsions:
REMARK  status: ('A' for Active; 'I' for Inactive)
REMARK    1  A    between atoms: C_2  and  O_9
REMARK    2  A    between atoms: C_4  and  O_7
REMARK    3  A    between atoms: C_5  and  O_23
REMARK    4  A    between atoms: C_6  and  C_32
REMARK    5  A    between atoms: O_9  and  C_11
REMARK    6  A    between atoms: C_12  and  O_17
REMARK    7  A    between atoms: C_13  and  O_19
REMARK    8  A    between atoms: C_14  and  O_21
REMARK    9  A    between atoms: O_23  and  C_24
REMARK   10  A    between atoms: C_24  and  C_25
REMARK   11  A    between atoms: C_25  and  C_26
REMARK   12  A    between atoms: C_26  and  C_27
REMARK   13  A    between atoms: C_27  and  C_28
REMARK   14  A    between atoms: C_28  and  C_29
REMARK   15  A    between atoms: C_29  and  C_30
REMARK   16  A    between atoms: C_32  and  O_33
REMARK                            x       y       z     vdW  Elec       q    Type
REMARK                         _______ _______ _______ _____ _____    ______ ____
ROOT
ATOM      1  O   UNL     1      32.991 -10.385 -23.458  0.00  0.00    -0.326 OA
ATOM      2  C   UNL     1      33.592  -8.053 -23.141  0.00  0.00    +0.176 C 
ATOM      3  C   UNL     1      34.333  -8.063 -24.479  0.00  0.00    +0.067 C 
ATOM      4  C   UNL     1      34.757  -9.476 -24.866  0.00  0.00    +0.143 C 
ATOM      5  C   UNL     1      32.475  -9.096 -23.128  0.00  0.00    +0.264 C 
ATOM      6  C   UNL     1      33.564 -10.437 -24.768  0.00  0.00    +0.174 C 
ENDROOT
BRANCH   4   7
ATOM      7  O   UNL     1      35.794  -9.911 -23.990  0.00  0.00    -0.382 OA
ATOM      8  H   UNL     1      35.403 -10.291 -23.188  0.00  0.00    +0.210 HD
ENDBRANCH   4   7
BRANCH   2   9
ATOM      9  O   UNL     1      33.028  -6.763 -22.923  0.00  0.00    -0.326 OA
BRANCH   9  11
ATOM     10  O   UNL     1      31.863  -6.146 -24.889  0.00  0.00    -0.329 OA
ATOM     11  C   UNL     1      31.753  -6.640 -23.551  0.00  0.00    +0.266 C 
ATOM     12  C   UNL     1      30.842  -5.733 -22.717  0.00  0.00    +0.196 C 
ATOM     13  C   UNL     1      31.332  -4.286 -22.760  0.00  0.00    +0.171 C 
ATOM     14  C   UNL     1      31.533  -3.824 -24.207  0.00  0.00    +0.167 C 
ATOM     15  C   UNL     1      32.414  -4.823 -24.970  0.00  0.00    +0.147 C 
ATOM     16  C   UNL     1      32.539  -4.474 -26.450  0.00  0.00    +0.035 C 
BRANCH  12  17
ATOM     17  O   UNL     1      30.808  -6.181 -21.365  0.00  0.00    -0.378 OA
ATOM     18  H   UNL     1      31.183  -7.074 -21.311  0.00  0.00    +0.211 HD
ENDBRANCH  12  17
BRANCH  13  19
ATOM     19  O   UNL     1      30.385  -3.447 -22.106  0.00  0.00    -0.379 OA
ATOM     20  H   UNL     1      30.494  -2.533 -22.415  0.00  0.00    +0.211 HD
ENDBRANCH  13  19
BRANCH  14  21
ATOM     21  O   UNL     1      30.265  -3.700 -24.854  0.00  0.00    -0.379 OA
ATOM     22  H   UNL     1      30.333  -4.025 -25.765  0.00  0.00    +0.211 HD
ENDBRANCH  14  21
ENDBRANCH   9  11
ENDBRANCH   2   9
BRANCH   5  23
ATOM     23  O   UNL     1      31.915  -9.123 -21.816  0.00  0.00    -0.329 OA
BRANCH  23  24
ATOM     24  C   UNL     1      31.202 -10.329 -21.576  0.00  0.00    +0.145 C 
BRANCH  24  25
ATOM     25  C   UNL     1      31.508 -10.809 -20.164  0.00  0.00    +0.032 C 
BRANCH  25  26
ATOM     26  C   UNL     1      31.869 -12.294 -20.139  0.00  0.00    +0.003 C 
BRANCH  26  27
ATOM     27  C   UNL     1      32.018 -12.852 -21.556  0.00  0.00    +0.000 C 
BRANCH  27  28
ATOM     28  C   UNL     1      32.296 -14.357 -21.592  0.00  0.00    +0.000 C 
BRANCH  28  29
ATOM     29  C   UNL     1      32.979 -14.880 -20.326  0.00  0.00    +0.000 C 
BRANCH  29  30
ATOM     30  C   UNL     1      34.452 -15.200 -20.584  0.00  0.00    +0.000 C 
ATOM     31  C   UNL     1      34.647 -15.879 -21.931  0.00  0.00    +0.000 C 
ENDBRANCH  29  30
ENDBRANCH  28  29
ENDBRANCH  27  28
ENDBRANCH  26  27
ENDBRANCH  25  26
ENDBRANCH  24  25
ENDBRANCH  23  24
ENDBRANCH   5  23
BRANCH   6  32
ATOM     32  C   UNL     1      33.963 -11.883 -25.036  0.00  0.00    +0.169 C 
BRANCH  32  33
ATOM     33  O   UNL     1      34.396 -12.466 -23.819  0.00  0.00    -0.379 OA
ATOM     34  H   UNL     1      34.001 -11.988 -23.074  0.00  0.00    +0.211 HD
ENDBRANCH  32  33
ENDBRANCH   6  32
TORSDOF 16
ENDMDL
MODEL 6
REMARK VINA RESULT:      -7.9      9.039     14.576
REMARK  Name = 46937084
REMARK  16 active torsions:
REMARK  status: ('A' for Active; 'I' for Inactive)
REMARK    1  A    between atoms: C_2  and  O_9
REMARK    2  A    between atoms: C_4  and  O_7
REMARK    3  A    between atoms: C_5  and  O_23
REMARK    4  A    between atoms: C_6  and  C_32
REMARK    5  A    between atoms: O_9  and  C_11
REMARK    6  A    between atoms: C_12  and  O_17
REMARK    7  A    between atoms: C_13  and  O_19
REMARK    8  A    between atoms: C_14  and  O_21
REMARK    9  A    between atoms: O_23  and  C_24
REMARK   10  A    between atoms: C_24  and  C_25
REMARK   11  A    between atoms: C_25  and  C_26
REMARK   12  A    between atoms: C_26  and  C_27
REMARK   13  A    between atoms: C_27  and  C_28
REMARK   14  A    between atoms: C_28  and  C_29
REMARK   15  A    between atoms: C_29  and  C_30
REMARK   16  A    between atoms: C_32  and  O_33
REMARK                            x       y       z     vdW  Elec       q    Type
REMARK                         _______ _______ _______ _____ _____    ______ ____
ROOT
ATOM      1  O   UNL     1      33.444 -14.424 -24.636  0.00  0.00    -0.326 OA
ATOM      2  C   UNL     1      34.056 -12.085 -24.400  0.00  0.00    +0.176 C 
ATOM      3  C   UNL     1      33.339 -11.765 -25.711  0.00  0.00    +0.067 C 
ATOM      4  C   UNL     1      33.234 -13.000 -26.600  0.00  0.00    +0.143 C 
ATOM      5  C   UNL     1      33.450 -13.320 -23.733  0.00  0.00    +0.264 C 
ATOM      6  C   UNL     1      32.658 -14.181 -25.808  0.00  0.00    +0.174 C 
ENDROOT
BRANCH   4   7
ATOM      7  O   UNL     1      34.531 -13.338 -27.087  0.00  0.00    -0.382 OA
ATOM      8  H   UNL     1      35.197 -13.113 -26.419  0.00  0.00    +0.210 HD
ENDBRANCH   4   7
BRANCH   2   9
ATOM      9  O   UNL     1      33.941 -10.974 -23.515  0.00  0.00    -0.326 OA
BRANCH   9  11
ATOM     10  O   UNL     1      33.385  -8.879 -24.465  0.00  0.00    -0.329 OA
ATOM     11  C   UNL     1      32.886 -10.100 -23.912  0.00  0.00    +0.266 C 
ATOM     12  C   UNL     1      31.965  -9.813 -22.722  0.00  0.00    +0.196 C 
ATOM     13  C   UNL     1      32.680  -8.956 -21.678  0.00  0.00    +0.171 C 
ATOM     14  C   UNL     1      33.287  -7.706 -22.325  0.00  0.00    +0.167 C 
ATOM     15  C   UNL     1      34.147  -8.095 -23.535  0.00  0.00    +0.147 C 
ATOM     16  C   UNL     1      34.671  -6.877 -24.290  0.00  0.00    +0.035 C 
BRANCH  12  17
ATOM     17  O   UNL     1      31.543 -11.034 -22.122  0.00  0.00    -0.378 OA
ATOM     18  H   UNL     1      31.257 -11.652 -22.813  0.00  0.00    +0.211 HD
ENDBRANCH  12  17
BRANCH  13  19
ATOM     19  O   UNL     1      31.755  -8.580 -20.661  0.00  0.00    -0.379 OA
ATOM     20  H   UNL     1      32.240  -8.348 -19.853  0.00  0.00    +0.211 HD
ENDBRANCH  13  19
BRANCH  14  21
ATOM     21  O   UNL     1      32.243  -6.820 -22.734  0.00  0.00    -0.379 OA
ATOM     22  H   UNL     1      32.526  -6.329 -23.521  0.00  0.00    +0.211 HD
ENDBRANCH  14  21
ENDBRANCH   9  11
ENDBRANCH   2   9
BRANCH   5  23
ATOM     23  O   UNL     1      34.243 -13.636 -22.590  0.00  0.00    -0.329 OA
BRANCH  23  24
ATOM     24  C   UNL     1      34.581 -15.016 -22.554  0.00  0.00    +0.145 C 
BRANCH  24  25
ATOM     25  C   UNL     1      34.508 -15.504 -21.114  0.00  0.00    +0.032 C 
BRANCH  25  26
ATOM     26  C   UNL     1      34.969 -16.955 -20.985  0.00  0.00    +0.003 C 
BRANCH  26  27
ATOM     27  C   UNL     1      34.955 -17.663 -22.342  0.00  0.00    +0.000 C 
BRANCH  27  28
ATOM     28  C   UNL     1      34.674 -19.164 -22.243  0.00  0.00    +0.000 C 
BRANCH  28  29
ATOM     29  C   UNL     1      35.281 -19.817 -20.999  0.00  0.00    +0.000 C 
BRANCH  29  30
ATOM     30  C   UNL     1      34.217 -20.553 -20.185  0.00  0.00    +0.000 C 
ATOM     31  C   UNL     1      32.816 -20.083 -20.544  0.00  0.00    +0.000 C 
ENDBRANCH  29  30
ENDBRANCH  28  29
ENDBRANCH  27  28
ENDBRANCH  26  27
ENDBRANCH  25  26
ENDBRANCH  24  25
ENDBRANCH  23  24
ENDBRANCH   5  23
BRANCH   6  32
ATOM     32  C   UNL     1      32.640 -15.470 -26.621  0.00  0.00    +0.169 C 
BRANCH  32  33
ATOM     33  O   UNL     1      33.733 -16.275 -26.217  0.00  0.00    -0.379 OA
ATOM     34  H   UNL     1      33.718 -17.110 -26.710  0.00  0.00    +0.211 HD
ENDBRANCH  32  33
ENDBRANCH   6  32
TORSDOF 16
ENDMDL
MODEL 7
REMARK VINA RESULT:      -7.6      6.743     10.775
REMARK  Name = 46937084
REMARK  16 active torsions:
REMARK  status: ('A' for Active; 'I' for Inactive)
REMARK    1  A    between atoms: C_2  and  O_9
REMARK    2  A    between atoms: C_4  and  O_7
REMARK    3  A    between atoms: C_5  and  O_23
REMARK    4  A    between atoms: C_6  and  C_32
REMARK    5  A    between atoms: O_9  and  C_11
REMARK    6  A    between atoms: C_12  and  O_17
REMARK    7  A    between atoms: C_13  and  O_19
REMARK    8  A    between atoms: C_14  and  O_21
REMARK    9  A    between atoms: O_23  and  C_24
REMARK   10  A    between atoms: C_24  and  C_25
REMARK   11  A    between atoms: C_25  and  C_26
REMARK   12  A    between atoms: C_26  and  C_27
REMARK   13  A    between atoms: C_27  and  C_28
REMARK   14  A    between atoms: C_28  and  C_29
REMARK   15  A    between atoms: C_29  and  C_30
REMARK   16  A    between atoms: C_32  and  O_33
REMARK                            x       y       z     vdW  Elec       q    Type
REMARK                         _______ _______ _______ _____ _____    ______ ____
ROOT
ATOM      1  O   UNL     1      33.117 -14.589 -24.145  0.00  0.00    -0.326 OA
ATOM      2  C   UNL     1      34.153 -16.696 -23.524  0.00  0.00    +0.176 C 
ATOM      3  C   UNL     1      34.863 -16.745 -24.877  0.00  0.00    +0.067 C 
ATOM      4  C   UNL     1      34.122 -15.916 -25.921  0.00  0.00    +0.143 C 
ATOM      5  C   UNL     1      33.851 -15.254 -23.118  0.00  0.00    +0.264 C 
ATOM      6  C   UNL     1      33.835 -14.509 -25.380  0.00  0.00    +0.174 C 
ENDROOT
BRANCH   4   7
ATOM      7  O   UNL     1      32.894 -16.563 -26.247  0.00  0.00    -0.382 OA
ATOM      8  H   UNL     1      33.008 -17.085 -27.056  0.00  0.00    +0.210 HD
ENDBRANCH   4   7
BRANCH   2   9
ATOM      9  O   UNL     1      34.983 -17.295 -22.533  0.00  0.00    -0.326 OA
BRANCH   9  11
ATOM     10  O   UNL     1      34.094 -19.486 -22.433  0.00  0.00    -0.329 OA
ATOM     11  C   UNL     1      35.211 -18.676 -22.811  0.00  0.00    +0.266 C 
ATOM     12  C   UNL     1      36.484 -19.151 -22.103  0.00  0.00    +0.196 C 
ATOM     13  C   UNL     1      36.281 -19.185 -20.589  0.00  0.00    +0.171 C 
ATOM     14  C   UNL     1      35.022 -19.978 -20.227  0.00  0.00    +0.167 C 
ATOM     15  C   UNL     1      33.816 -19.462 -21.024  0.00  0.00    +0.147 C 
ATOM     16  C   UNL     1      32.565 -20.302 -20.794  0.00  0.00    +0.035 C 
BRANCH  12  17
ATOM     17  O   UNL     1      37.572 -18.286 -22.416  0.00  0.00    -0.378 OA
ATOM     18  H   UNL     1      37.264 -17.582 -23.008  0.00  0.00    +0.211 HD
ENDBRANCH  12  17
BRANCH  13  19
ATOM     19  O   UNL     1      37.424 -19.773 -19.972  0.00  0.00    -0.379 OA
ATOM     20  H   UNL     1      38.001 -20.153 -20.655  0.00  0.00    +0.211 HD
ENDBRANCH  13  19
BRANCH  14  21
ATOM     21  O   UNL     1      35.230 -21.366 -20.503  0.00  0.00    -0.379 OA
ATOM     22  H   UNL     1      34.496 -21.882 -20.135  0.00  0.00    +0.211 HD
ENDBRANCH  14  21
ENDBRANCH   9  11
ENDBRANCH   2   9
BRANCH   5  23
ATOM     23  O   UNL     1      33.078 -15.288 -21.919  0.00  0.00    -0.329 OA
BRANCH  23  24
ATOM     24  C   UNL     1      33.486 -14.279 -21.005  0.00  0.00    +0.145 C 
BRANCH  24  25
ATOM     25  C   UNL     1      32.264 -13.474 -20.582  0.00  0.00    +0.032 C 
BRANCH  25  26
ATOM     26  C   UNL     1      31.786 -12.547 -21.698  0.00  0.00    +0.003 C 
BRANCH  26  27
ATOM     27  C   UNL     1      31.176 -11.264 -21.129  0.00  0.00    +0.000 C 
BRANCH  27  28
ATOM     28  C   UNL     1      31.506 -11.037 -19.652  0.00  0.00    +0.000 C 
BRANCH  28  29
ATOM     29  C   UNL     1      31.728  -9.565 -19.296  0.00  0.00    +0.000 C 
BRANCH  29  30
ATOM     30  C   UNL     1      32.232  -8.774 -20.505  0.00  0.00    +0.000 C 
ATOM     31  C   UNL     1      32.538  -7.331 -20.138  0.00  0.00    +0.000 C 
ENDBRANCH  29  30
ENDBRANCH  28  29
ENDBRANCH  27  28
ENDBRANCH  26  27
ENDBRANCH  25  26
ENDBRANCH  24  25
ENDBRANCH  23  24
ENDBRANCH   5  23
BRANCH   6  32
ATOM     32  C   UNL     1      32.996 -13.678 -26.344  0.00  0.00    +0.169 C 
BRANCH  32  33
ATOM     33  O   UNL     1      33.562 -13.777 -27.639  0.00  0.00    -0.379 OA
ATOM     34  H   UNL     1      33.133 -13.137 -28.228  0.00  0.00    +0.211 HD
ENDBRANCH  32  33
ENDBRANCH   6  32
TORSDOF 16
ENDMDL
MODEL 8
REMARK VINA RESULT:      -7.6      8.423     12.596
REMARK  Name = 46937084
REMARK  16 active torsions:
REMARK  status: ('A' for Active; 'I' for Inactive)
REMARK    1  A    between atoms: C_2  and  O_9
REMARK    2  A    between atoms: C_4  and  O_7
REMARK    3  A    between atoms: C_5  and  O_23
REMARK    4  A    between atoms: C_6  and  C_32
REMARK    5  A    between atoms: O_9  and  C_11
REMARK    6  A    between atoms: C_12  and  O_17
REMARK    7  A    between atoms: C_13  and  O_19
REMARK    8  A    between atoms: C_14  and  O_21
REMARK    9  A    between atoms: O_23  and  C_24
REMARK   10  A    between atoms: C_24  and  C_25
REMARK   11  A    between atoms: C_25  and  C_26
REMARK   12  A    between atoms: C_26  and  C_27
REMARK   13  A    between atoms: C_27  and  C_28
REMARK   14  A    between atoms: C_28  and  C_29
REMARK   15  A    between atoms: C_29  and  C_30
REMARK   16  A    between atoms: C_32  and  O_33
REMARK                            x       y       z     vdW  Elec       q    Type
REMARK                         _______ _______ _______ _____ _____    ______ ____
ROOT
ATOM      1  O   UNL     1      32.218 -11.323 -22.727  0.00  0.00    -0.326 OA
ATOM      2  C   UNL     1      33.056 -13.450 -21.909  0.00  0.00    +0.176 C 
ATOM      3  C   UNL     1      32.020 -13.427 -20.786  0.00  0.00    +0.067 C 
ATOM      4  C   UNL     1      31.566 -12.003 -20.482  0.00  0.00    +0.143 C 
ATOM      5  C   UNL     1      32.572 -12.649 -23.117  0.00  0.00    +0.264 C 
ATOM      6  C   UNL     1      31.150 -11.288 -21.774  0.00  0.00    +0.174 C 
ENDROOT
BRANCH   4   7
ATOM      7  O   UNL     1      32.636 -11.291 -19.865  0.00  0.00    -0.382 OA
ATOM      8  H   UNL     1      33.030 -10.679 -20.505  0.00  0.00    +0.210 HD
ENDBRANCH   4   7
BRANCH   2   9
ATOM      9  O   UNL     1      33.290 -14.798 -22.308  0.00  0.00    -0.326 OA
BRANCH   9  11
ATOM     10  O   UNL     1      35.066 -15.544 -23.682  0.00  0.00    -0.329 OA
ATOM     11  C   UNL     1      34.686 -15.084 -22.382  0.00  0.00    +0.266 C 
ATOM     12  C   UNL     1      35.069 -16.114 -21.315  0.00  0.00    +0.196 C 
ATOM     13  C   UNL     1      34.471 -17.481 -21.641  0.00  0.00    +0.171 C 
ATOM     14  C   UNL     1      34.816 -17.897 -23.075  0.00  0.00    +0.167 C 
ATOM     15  C   UNL     1      34.443 -16.781 -24.061  0.00  0.00    +0.147 C 
ATOM     16  C   UNL     1      34.885 -17.094 -25.486  0.00  0.00    +0.035 C 
BRANCH  12  17
ATOM     17  O   UNL     1      34.608 -15.689 -20.035  0.00  0.00    -0.378 OA
ATOM     18  H   UNL     1      33.800 -16.174 -19.806  0.00  0.00    +0.211 HD
ENDBRANCH  12  17
BRANCH  13  19
ATOM     19  O   UNL     1      34.967 -18.448 -20.719  0.00  0.00    -0.379 OA
ATOM     20  H   UNL     1      35.213 -19.255 -21.197  0.00  0.00    +0.211 HD
ENDBRANCH  13  19
BRANCH  14  21
ATOM     21  O   UNL     1      36.214 -18.183 -23.170  0.00  0.00    -0.379 OA
ATOM     22  H   UNL     1      36.708 -17.354 -23.269  0.00  0.00    +0.211 HD
ENDBRANCH  14  21
ENDBRANCH   9  11
ENDBRANCH   2   9
BRANCH   5  23
ATOM     23  O   UNL     1      33.632 -12.604 -24.070  0.00  0.00    -0.329 OA
BRANCH  23  24
ATOM     24  C   UNL     1      33.485 -11.511 -24.966  0.00  0.00    +0.145 C 
BRANCH  24  25
ATOM     25  C   UNL     1      34.851 -11.151 -25.533  0.00  0.00    +0.032 C 
BRANCH  25  26
ATOM     26  C   UNL     1      35.406  -9.875 -24.900  0.00  0.00    +0.003 C 
BRANCH  26  27
ATOM     27  C   UNL     1      34.341  -9.166 -24.059  0.00  0.00    +0.000 C 
BRANCH  27  28
ATOM     28  C   UNL     1      34.698  -7.715 -23.724  0.00  0.00    +0.000 C 
BRANCH  28  29
ATOM     29  C   UNL     1      33.793  -6.691 -24.412  0.00  0.00    +0.000 C 
BRANCH  29  30
ATOM     30  C   UNL     1      32.545  -6.404 -23.576  0.00  0.00    +0.000 C 
ATOM     31  C   UNL     1      31.299  -6.999 -24.212  0.00  0.00    +0.000 C 
ENDBRANCH  29  30
ENDBRANCH  28  29
ENDBRANCH  27  28
ENDBRANCH  26  27
ENDBRANCH  25  26
ENDBRANCH  24  25
ENDBRANCH  23  24
ENDBRANCH   5  23
BRANCH   6  32
ATOM     32  C   UNL     1      30.795  -9.825 -21.538  0.00  0.00    +0.169 C 
BRANCH  32  33
ATOM     33  O   UNL     1      31.995  -9.090 -21.368  0.00  0.00    -0.379 OA
ATOM     34  H   UNL     1      32.741  -9.704 -21.292  0.00  0.00    +0.211 HD
ENDBRANCH  32  33
ENDBRANCH   6  32
TORSDOF 16
ENDMDL
MODEL 9
REMARK VINA RESULT:      -7.5      8.824     12.939
REMARK  Name = 46937084
REMARK  16 active torsions:
REMARK  status: ('A' for Active; 'I' for Inactive)
REMARK    1  A    between atoms: C_2  and  O_9
REMARK    2  A    between atoms: C_4  and  O_7
REMARK    3  A    between atoms: C_5  and  O_23
REMARK    4  A    between atoms: C_6  and  C_32
REMARK    5  A    between atoms: O_9  and  C_11
REMARK    6  A    between atoms: C_12  and  O_17
REMARK    7  A    between atoms: C_13  and  O_19
REMARK    8  A    between atoms: C_14  and  O_21
REMARK    9  A    between atoms: O_23  and  C_24
REMARK   10  A    between atoms: C_24  and  C_25
REMARK   11  A    between atoms: C_25  and  C_26
REMARK   12  A    between atoms: C_26  and  C_27
REMARK   13  A    between atoms: C_27  and  C_28
REMARK   14  A    between atoms: C_28  and  C_29
REMARK   15  A    between atoms: C_29  and  C_30
REMARK   16  A    between atoms: C_32  and  O_33
REMARK                            x       y       z     vdW  Elec       q    Type
REMARK                         _______ _______ _______ _____ _____    ______ ____
ROOT
ATOM      1  O   UNL     1      32.456 -11.491 -22.840  0.00  0.00    -0.326 OA
ATOM      2  C   UNL     1      33.836 -13.391 -22.220  0.00  0.00    +0.176 C 
ATOM      3  C   UNL     1      32.745 -13.871 -21.263  0.00  0.00    +0.067 C 
ATOM      4  C   UNL     1      31.845 -12.719 -20.829  0.00  0.00    +0.143 C 
ATOM      5  C   UNL     1      33.240 -12.565 -23.359  0.00  0.00    +0.264 C 
ATOM      6  C   UNL     1      31.348 -11.939 -22.054  0.00  0.00    +0.174 C 
ENDROOT
BRANCH   4   7
ATOM      7  O   UNL     1      32.579 -11.848 -19.972  0.00  0.00    -0.382 OA
ATOM      8  H   UNL     1      32.903 -12.345 -19.206  0.00  0.00    +0.210 HD
ENDBRANCH   4   7
BRANCH   2   9
ATOM      9  O   UNL     1      34.513 -14.519 -22.768  0.00  0.00    -0.326 OA
BRANCH   9  11
ATOM     10  O   UNL     1      33.949 -16.694 -22.026  0.00  0.00    -0.329 OA
ATOM     11  C   UNL     1      33.632 -15.629 -22.927  0.00  0.00    +0.266 C 
ATOM     12  C   UNL     1      33.664 -16.124 -24.377  0.00  0.00    +0.196 C 
ATOM     13  C   UNL     1      35.011 -16.770 -24.698  0.00  0.00    +0.171 C 
ATOM     14  C   UNL     1      35.364 -17.837 -23.657  0.00  0.00    +0.167 C 
ATOM     15  C   UNL     1      35.251 -17.259 -22.239  0.00  0.00    +0.147 C 
ATOM     16  C   UNL     1      35.469 -18.317 -21.162  0.00  0.00    +0.035 C 
BRANCH  12  17
ATOM     17  O   UNL     1      33.435 -15.038 -25.271  0.00  0.00    -0.378 OA
ATOM     18  H   UNL     1      34.210 -14.919 -25.840  0.00  0.00    +0.211 HD
ENDBRANCH  12  17
BRANCH  13  19
ATOM     19  O   UNL     1      34.957 -17.353 -25.997  0.00  0.00    -0.379 OA
ATOM     20  H   UNL     1      35.859 -17.481 -26.332  0.00  0.00    +0.211 HD
ENDBRANCH  13  19
BRANCH  14  21
ATOM     21  O   UNL     1      34.486 -18.956 -23.798  0.00  0.00    -0.379 OA
ATOM     22  H   UNL     1      34.222 -19.045 -24.727  0.00  0.00    +0.211 HD
ENDBRANCH  14  21
ENDBRANCH   9  11
ENDBRANCH   2   9
BRANCH   5  23
ATOM     23  O   UNL     1      34.317 -12.044 -24.136  0.00  0.00    -0.329 OA
BRANCH  23  24
ATOM     24  C   UNL     1      33.956 -10.833 -24.786  0.00  0.00    +0.145 C 
BRANCH  24  25
ATOM     25  C   UNL     1      34.961  -9.753 -24.411  0.00  0.00    +0.032 C 
BRANCH  25  26
ATOM     26  C   UNL     1      34.298  -8.606 -23.649  0.00  0.00    +0.003 C 
BRANCH  26  27
ATOM     27  C   UNL     1      34.572  -7.261 -24.325  0.00  0.00    +0.000 C 
BRANCH  27  28
ATOM     28  C   UNL     1      33.332  -6.369 -24.431  0.00  0.00    +0.000 C 
BRANCH  28  29
ATOM     29  C   UNL     1      32.101  -6.952 -23.734  0.00  0.00    +0.000 C 
BRANCH  29  30
ATOM     30  C   UNL     1      31.484  -5.943 -22.764  0.00  0.00    +0.000 C 
ATOM     31  C   UNL     1      31.986  -6.155 -21.345  0.00  0.00    +0.000 C 
ENDBRANCH  29  30
ENDBRANCH  28  29
ENDBRANCH  27  28
ENDBRANCH  26  27
ENDBRANCH  25  26
ENDBRANCH  24  25
ENDBRANCH  23  24
ENDBRANCH   5  23
BRANCH   6  32
ATOM     32  C   UNL     1      30.535 -10.709 -21.666  0.00  0.00    +0.169 C 
BRANCH  32  33
ATOM     33  O   UNL     1      31.423  -9.621 -21.480  0.00  0.00    -0.379 OA
ATOM     34  H   UNL     1      31.483  -9.109 -22.301  0.00  0.00    +0.211 HD
ENDBRANCH  32  33
ENDBRANCH   6  32
TORSDOF 16
ENDMDL
