MODEL 1
REMARK VINA RESULT:      -9.5      0.000      0.000
REMARK  Name = 4066
REMARK  2 active torsions:
REMARK  status: ('A' for Active; 'I' for Inactive)
REMARK    1  A    between atoms: N_2  and  C_15
REMARK    2  A    between atoms: C_15  and  C_18
REMARK                            x       y       z     vdW  Elec       q    Type
REMARK                         _______ _______ _______ _____ _____    ______ ____
ROOT
ATOM      1  S   UNL     1      32.969 -23.237 -17.948  0.00  0.00    -0.084 S 
ATOM      2  N   UNL     1      34.756 -23.048 -15.410  0.00  0.00    -0.286 N 
ATOM      3  C   UNL     1      33.370 -23.241 -15.175  0.00  0.00    +0.058 C 
ATOM      4  C   UNL     1      35.312 -22.506 -16.597  0.00  0.00    +0.058 C 
ATOM      5  C   UNL     1      32.456 -23.318 -16.243  0.00  0.00    +0.043 C 
ATOM      6  C   UNL     1      34.590 -22.512 -17.807  0.00  0.00    +0.043 C 
ATOM      7  C   UNL     1      32.840 -23.328 -13.869  0.00  0.00    +0.015 C 
ATOM      8  C   UNL     1      36.591 -21.909 -16.617  0.00  0.00    +0.015 C 
ATOM      9  C   UNL     1      31.082 -23.502 -16.004  0.00  0.00    +0.008 C 
ATOM     10  C   UNL     1      35.144 -21.967 -18.979  0.00  0.00    +0.008 C 
ATOM     11  C   UNL     1      31.473 -23.505 -13.636  0.00  0.00    +0.001 C 
ATOM     12  C   UNL     1      37.136 -21.363 -17.783  0.00  0.00    +0.001 C 
ATOM     13  C   UNL     1      30.594 -23.595 -14.705  0.00  0.00    +0.001 C 
ATOM     14  C   UNL     1      36.413 -21.396 -18.966  0.00  0.00    +0.001 C 
ENDROOT
BRANCH   2  15
ATOM     15  C   UNL     1      35.680 -23.370 -14.316  0.00  0.00    +0.093 C 
BRANCH  15  18
ATOM     16  N   UNL     1      37.014 -26.780 -13.909  0.00  0.00    +0.387 N 
ATOM     17  C   UNL     1      37.994 -24.371 -13.921  0.00  0.00    -0.005 C 
ATOM     18  C   UNL     1      36.675 -24.435 -14.725  0.00  0.00    -0.001 C 
ATOM     19  C   UNL     1      36.079 -25.855 -14.589  0.00  0.00    -0.076 C 
ATOM     20  C   UNL     1      37.753 -24.865 -12.484  0.00  0.00    -0.023 C 
ATOM     21  C   UNL     1      38.967 -25.369 -14.577  0.00  0.00    -0.023 C 
ATOM     22  C   UNL     1      37.215 -26.305 -12.522  0.00  0.00    -0.077 C 
ATOM     23  C   UNL     1      38.313 -26.762 -14.613  0.00  0.00    -0.077 C 
ATOM     24  H   UNL     1      36.635 -27.727 -13.909  0.00  0.00    -0.080 HD
ENDBRANCH  15  18
ENDBRANCH   2  15
TORSDOF 2
ENDMDL
MODEL 2
REMARK VINA RESULT:      -8.8      1.364      2.102
REMARK  Name = 4066
REMARK  2 active torsions:
REMARK  status: ('A' for Active; 'I' for Inactive)
REMARK    1  A    between atoms: N_2  and  C_15
REMARK    2  A    between atoms: C_15  and  C_18
REMARK                            x       y       z     vdW  Elec       q    Type
REMARK                         _______ _______ _______ _____ _____    ______ ____
ROOT
ATOM      1  S   UNL     1      32.728 -22.795 -17.910  0.00  0.00    -0.084 S 
ATOM      2  N   UNL     1      34.595 -23.737 -15.609  0.00  0.00    -0.286 N 
ATOM      3  C   UNL     1      33.209 -23.719 -15.309  0.00  0.00    +0.058 C 
ATOM      4  C   UNL     1      35.216 -22.980 -16.635  0.00  0.00    +0.058 C 
ATOM      5  C   UNL     1      32.265 -23.288 -16.262  0.00  0.00    +0.043 C 
ATOM      6  C   UNL     1      34.471 -22.477 -17.720  0.00  0.00    +0.043 C 
ATOM      7  C   UNL     1      32.715 -24.092 -14.040  0.00  0.00    +0.015 C 
ATOM      8  C   UNL     1      36.592 -22.665 -16.602  0.00  0.00    +0.015 C 
ATOM      9  C   UNL     1      30.893 -23.265 -15.956  0.00  0.00    +0.008 C 
ATOM     10  C   UNL     1      35.091 -21.721 -18.730  0.00  0.00    +0.008 C 
ATOM     11  C   UNL     1      31.350 -24.063 -13.739  0.00  0.00    +0.001 C 
ATOM     12  C   UNL     1      37.203 -21.909 -17.607  0.00  0.00    +0.001 C 
ATOM     13  C   UNL     1      30.438 -23.651 -14.699  0.00  0.00    +0.001 C 
ATOM     14  C   UNL     1      36.452 -21.440 -18.674  0.00  0.00    +0.001 C 
ENDROOT
BRANCH   2  15
ATOM     15  C   UNL     1      35.464 -24.549 -14.748  0.00  0.00    +0.093 C 
BRANCH  15  18
ATOM     16  N   UNL     1      37.747 -23.247 -12.165  0.00  0.00    +0.387 N 
ATOM     17  C   UNL     1      35.766 -24.931 -12.242  0.00  0.00    -0.005 C 
ATOM     18  C   UNL     1      35.663 -23.903 -13.392  0.00  0.00    -0.001 C 
ATOM     19  C   UNL     1      36.919 -23.003 -13.369  0.00  0.00    -0.076 C 
ATOM     20  C   UNL     1      37.118 -25.660 -12.315  0.00  0.00    -0.023 C 
ATOM     21  C   UNL     1      35.764 -24.130 -10.926  0.00  0.00    -0.023 C 
ATOM     22  C   UNL     1      38.259 -24.634 -12.224  0.00  0.00    -0.077 C 
ATOM     23  C   UNL     1      36.905 -23.099 -10.959  0.00  0.00    -0.077 C 
ATOM     24  H   UNL     1      38.520 -22.583 -12.129  0.00  0.00    -0.080 HD
ENDBRANCH  15  18
ENDBRANCH   2  15
TORSDOF 2
ENDMDL
MODEL 3
REMARK VINA RESULT:      -8.7      2.122      6.118
REMARK  Name = 4066
REMARK  2 active torsions:
REMARK  status: ('A' for Active; 'I' for Inactive)
REMARK    1  A    between atoms: N_2  and  C_15
REMARK    2  A    between atoms: C_15  and  C_18
REMARK                            x       y       z     vdW  Elec       q    Type
REMARK                         _______ _______ _______ _____ _____    ______ ____
ROOT
ATOM      1  S   UNL     1      37.489 -22.724 -15.999  0.00  0.00    -0.084 S 
ATOM      2  N   UNL     1      34.499 -23.530 -15.718  0.00  0.00    -0.286 N 
ATOM      3  C   UNL     1      34.841 -22.836 -16.907  0.00  0.00    +0.058 C 
ATOM      4  C   UNL     1      35.243 -23.491 -14.511  0.00  0.00    +0.058 C 
ATOM      5  C   UNL     1      36.159 -22.397 -17.139  0.00  0.00    +0.043 C 
ATOM      6  C   UNL     1      36.601 -23.118 -14.506  0.00  0.00    +0.043 C 
ATOM      7  C   UNL     1      33.878 -22.522 -17.892  0.00  0.00    +0.015 C 
ATOM      8  C   UNL     1      34.655 -23.789 -13.262  0.00  0.00    +0.015 C 
ATOM      9  C   UNL     1      36.490 -21.702 -18.316  0.00  0.00    +0.008 C 
ATOM     10  C   UNL     1      37.331 -23.075 -13.304  0.00  0.00    +0.008 C 
ATOM     11  C   UNL     1      34.211 -21.828 -19.058  0.00  0.00    +0.001 C 
ATOM     12  C   UNL     1      35.383 -23.739 -12.070  0.00  0.00    +0.001 C 
ATOM     13  C   UNL     1      35.519 -21.420 -19.271  0.00  0.00    +0.001 C 
ATOM     14  C   UNL     1      36.724 -23.386 -12.092  0.00  0.00    +0.001 C 
ENDROOT
BRANCH   2  15
ATOM     15  C   UNL     1      33.244 -24.291 -15.715  0.00  0.00    +0.093 C 
BRANCH  15  18
ATOM     16  N   UNL     1      30.113 -23.275 -14.059  0.00  0.00    +0.387 N 
ATOM     17  C   UNL     1      30.838 -23.904 -16.477  0.00  0.00    -0.005 C 
ATOM     18  C   UNL     1      32.039 -23.375 -15.659  0.00  0.00    -0.001 C 
ATOM     19  C   UNL     1      31.579 -23.127 -14.205  0.00  0.00    -0.076 C 
ATOM     20  C   UNL     1      30.207 -25.108 -15.755  0.00  0.00    -0.023 C 
ATOM     21  C   UNL     1      29.778 -22.787 -16.488  0.00  0.00    -0.023 C 
ATOM     22  C   UNL     1      29.755 -24.681 -14.349  0.00  0.00    -0.077 C 
ATOM     23  C   UNL     1      29.437 -22.399 -15.039  0.00  0.00    -0.077 C 
ATOM     24  H   UNL     1      29.825 -23.022 -13.114  0.00  0.00    -0.080 HD
ENDBRANCH  15  18
ENDBRANCH   2  15
TORSDOF 2
ENDMDL
MODEL 4
REMARK VINA RESULT:      -8.4      1.229      4.205
REMARK  Name = 4066
REMARK  2 active torsions:
REMARK  status: ('A' for Active; 'I' for Inactive)
REMARK    1  A    between atoms: N_2  and  C_15
REMARK    2  A    between atoms: C_15  and  C_18
REMARK                            x       y       z     vdW  Elec       q    Type
REMARK                         _______ _______ _______ _____ _____    ______ ____
ROOT
ATOM      1  S   UNL     1      31.404 -22.581 -17.271  0.00  0.00    -0.084 S 
ATOM      2  N   UNL     1      33.886 -23.244 -15.518  0.00  0.00    -0.286 N 
ATOM      3  C   UNL     1      34.164 -22.767 -16.824  0.00  0.00    +0.058 C 
ATOM      4  C   UNL     1      32.667 -23.848 -15.114  0.00  0.00    +0.058 C 
ATOM      5  C   UNL     1      33.123 -22.456 -17.721  0.00  0.00    +0.043 C 
ATOM      6  C   UNL     1      31.478 -23.643 -15.842  0.00  0.00    +0.043 C 
ATOM      7  C   UNL     1      35.486 -22.616 -17.298  0.00  0.00    +0.015 C 
ATOM      8  C   UNL     1      32.594 -24.705 -13.995  0.00  0.00    +0.015 C 
ATOM      9  C   UNL     1      33.406 -21.990 -19.018  0.00  0.00    +0.008 C 
ATOM     10  C   UNL     1      30.275 -24.250 -15.440  0.00  0.00    +0.008 C 
ATOM     11  C   UNL     1      35.761 -22.158 -18.589  0.00  0.00    +0.001 C 
ATOM     12  C   UNL     1      31.397 -25.311 -13.603  0.00  0.00    +0.001 C 
ATOM     13  C   UNL     1      34.720 -21.842 -19.449  0.00  0.00    +0.001 C 
ATOM     14  C   UNL     1      30.236 -25.080 -14.325  0.00  0.00    +0.001 C 
ENDROOT
BRANCH   2  15
ATOM     15  C   UNL     1      34.965 -23.169 -14.525  0.00  0.00    +0.093 C 
BRANCH  15  18
ATOM     16  N   UNL     1      37.308 -25.265 -12.605  0.00  0.00    +0.387 N 
ATOM     17  C   UNL     1      36.618 -25.026 -15.101  0.00  0.00    -0.005 C 
ATOM     18  C   UNL     1      35.485 -24.545 -14.165  0.00  0.00    -0.001 C 
ATOM     19  C   UNL     1      35.989 -24.600 -12.706  0.00  0.00    -0.076 C 
ATOM     20  C   UNL     1      37.907 -24.242 -14.804  0.00  0.00    -0.023 C 
ATOM     21  C   UNL     1      36.900 -26.497 -14.741  0.00  0.00    -0.023 C 
ATOM     22  C   UNL     1      38.302 -24.445 -13.332  0.00  0.00    -0.077 C 
ATOM     23  C   UNL     1      37.230 -26.597 -13.242  0.00  0.00    -0.077 C 
ATOM     24  H   UNL     1      37.578 -25.367 -11.626  0.00  0.00    -0.080 HD
ENDBRANCH  15  18
ENDBRANCH   2  15
TORSDOF 2
ENDMDL
MODEL 5
REMARK VINA RESULT:      -8.4      1.824      5.239
REMARK  Name = 4066
REMARK  2 active torsions:
REMARK  status: ('A' for Active; 'I' for Inactive)
REMARK    1  A    between atoms: N_2  and  C_15
REMARK    2  A    between atoms: C_15  and  C_18
REMARK                            x       y       z     vdW  Elec       q    Type
REMARK                         _______ _______ _______ _____ _____    ______ ____
ROOT
ATOM      1  S   UNL     1      37.227 -21.809 -16.467  0.00  0.00    -0.084 S 
ATOM      2  N   UNL     1      34.735 -23.661 -16.647  0.00  0.00    -0.286 N 
ATOM      3  C   UNL     1      35.767 -24.099 -15.778  0.00  0.00    +0.058 C 
ATOM      4  C   UNL     1      34.909 -22.756 -17.725  0.00  0.00    +0.058 C 
ATOM      5  C   UNL     1      36.956 -23.359 -15.630  0.00  0.00    +0.043 C 
ATOM      6  C   UNL     1      36.013 -21.881 -17.769  0.00  0.00    +0.043 C 
ATOM      7  C   UNL     1      35.669 -25.307 -15.053  0.00  0.00    +0.015 C 
ATOM      8  C   UNL     1      34.012 -22.711 -18.815  0.00  0.00    +0.015 C 
ATOM      9  C   UNL     1      37.978 -23.802 -14.772  0.00  0.00    +0.008 C 
ATOM     10  C   UNL     1      36.183 -20.991 -18.844  0.00  0.00    +0.008 C 
ATOM     11  C   UNL     1      36.690 -25.746 -14.206  0.00  0.00    +0.001 C 
ATOM     12  C   UNL     1      34.189 -21.828 -19.883  0.00  0.00    +0.001 C 
ATOM     13  C   UNL     1      37.845 -24.991 -14.063  0.00  0.00    +0.001 C 
ATOM     14  C   UNL     1      35.273 -20.964 -19.896  0.00  0.00    +0.001 C 
ENDROOT
BRANCH   2  15
ATOM     15  C   UNL     1      33.400 -24.241 -16.460  0.00  0.00    +0.093 C 
BRANCH  15  18
ATOM     16  N   UNL     1      31.212 -24.665 -13.526  0.00  0.00    +0.387 N 
ATOM     17  C   UNL     1      31.284 -23.099 -15.601  0.00  0.00    -0.005 C 
ATOM     18  C   UNL     1      32.694 -23.636 -15.264  0.00  0.00    -0.001 C 
ATOM     19  C   UNL     1      32.577 -24.646 -14.100  0.00  0.00    -0.076 C 
ATOM     20  C   UNL     1      30.320 -24.276 -15.827  0.00  0.00    -0.023 C 
ATOM     21  C   UNL     1      30.783 -22.346 -14.355  0.00  0.00    -0.023 C 
ATOM     22  C   UNL     1      30.275 -25.150 -14.563  0.00  0.00    -0.077 C 
ATOM     23  C   UNL     1      30.828 -23.290 -13.141  0.00  0.00    -0.077 C 
ATOM     24  H   UNL     1      31.183 -25.272 -12.707  0.00  0.00    -0.080 HD
ENDBRANCH  15  18
ENDBRANCH   2  15
TORSDOF 2
ENDMDL
MODEL 6
REMARK VINA RESULT:      -8.3     14.651     18.225
REMARK  Name = 4066
REMARK  2 active torsions:
REMARK  status: ('A' for Active; 'I' for Inactive)
REMARK    1  A    between atoms: N_2  and  C_15
REMARK    2  A    between atoms: C_15  and  C_18
REMARK                            x       y       z     vdW  Elec       q    Type
REMARK                         _______ _______ _______ _____ _____    ______ ____
ROOT
ATOM      1  S   UNL     1      31.981 -11.891 -22.990  0.00  0.00    -0.084 S 
ATOM      2  N   UNL     1      33.131  -9.034 -22.560  0.00  0.00    -0.286 N 
ATOM      3  C   UNL     1      33.714  -9.780 -23.616  0.00  0.00    +0.058 C 
ATOM      4  C   UNL     1      32.438  -9.591 -21.456  0.00  0.00    +0.058 C 
ATOM      5  C   UNL     1      33.295 -11.096 -23.894  0.00  0.00    +0.043 C 
ATOM      6  C   UNL     1      31.891 -10.888 -21.520  0.00  0.00    +0.043 C 
ATOM      7  C   UNL     1      34.759  -9.259 -24.411  0.00  0.00    +0.015 C 
ATOM      8  C   UNL     1      32.293  -8.894 -20.236  0.00  0.00    +0.015 C 
ATOM      9  C   UNL     1      33.882 -11.834 -24.937  0.00  0.00    +0.008 C 
ATOM     10  C   UNL     1      31.211 -11.438 -20.418  0.00  0.00    +0.008 C 
ATOM     11  C   UNL     1      35.343  -9.998 -25.443  0.00  0.00    +0.001 C 
ATOM     12  C   UNL     1      31.621  -9.447 -19.142  0.00  0.00    +0.001 C 
ATOM     13  C   UNL     1      34.901 -11.286 -25.709  0.00  0.00    +0.001 C 
ATOM     14  C   UNL     1      31.076 -10.719 -19.235  0.00  0.00    +0.001 C 
ENDROOT
BRANCH   2  15
ATOM     15  C   UNL     1      33.318  -7.578 -22.577  0.00  0.00    +0.093 C 
BRANCH  15  18
ATOM     16  N   UNL     1      31.875  -4.527 -24.056  0.00  0.00    +0.387 N 
ATOM     17  C   UNL     1      30.986  -6.860 -23.326  0.00  0.00    -0.005 C 
ATOM     18  C   UNL     1      32.493  -6.924 -23.665  0.00  0.00    -0.001 C 
ATOM     19  C   UNL     1      32.992  -5.496 -23.979  0.00  0.00    -0.076 C 
ATOM     20  C   UNL     1      30.743  -5.806 -22.232  0.00  0.00    -0.023 C 
ATOM     21  C   UNL     1      30.263  -6.362 -24.591  0.00  0.00    -0.023 C 
ATOM     22  C   UNL     1      31.243  -4.437 -22.721  0.00  0.00    -0.077 C 
ATOM     23  C   UNL     1      30.873  -5.018 -25.026  0.00  0.00    -0.077 C 
ATOM     24  H   UNL     1      32.220  -3.613 -24.349  0.00  0.00    -0.080 HD
ENDBRANCH  15  18
ENDBRANCH   2  15
TORSDOF 2
ENDMDL
MODEL 7
REMARK VINA RESULT:      -8.2     10.852     14.006
REMARK  Name = 4066
REMARK  2 active torsions:
REMARK  status: ('A' for Active; 'I' for Inactive)
REMARK    1  A    between atoms: N_2  and  C_15
REMARK    2  A    between atoms: C_15  and  C_18
REMARK                            x       y       z     vdW  Elec       q    Type
REMARK                         _______ _______ _______ _____ _____    ______ ____
ROOT
ATOM      1  S   UNL     1      34.579 -10.288 -25.024  0.00  0.00    -0.084 S 
ATOM      2  N   UNL     1      32.802 -12.395 -23.583  0.00  0.00    -0.286 N 
ATOM      3  C   UNL     1      33.183 -12.715 -24.912  0.00  0.00    +0.058 C 
ATOM      4  C   UNL     1      32.769 -11.085 -23.040  0.00  0.00    +0.058 C 
ATOM      5  C   UNL     1      33.967 -11.829 -25.676  0.00  0.00    +0.043 C 
ATOM      6  C   UNL     1      33.513 -10.038 -23.618  0.00  0.00    +0.043 C 
ATOM      7  C   UNL     1      32.768 -13.909 -25.540  0.00  0.00    +0.015 C 
ATOM      8  C   UNL     1      31.968 -10.760 -21.923  0.00  0.00    +0.015 C 
ATOM      9  C   UNL     1      34.335 -12.149 -26.995  0.00  0.00    +0.008 C 
ATOM     10  C   UNL     1      33.470  -8.740 -23.078  0.00  0.00    +0.008 C 
ATOM     11  C   UNL     1      33.132 -14.220 -26.853  0.00  0.00    +0.001 C 
ATOM     12  C   UNL     1      31.924  -9.468 -21.393  0.00  0.00    +0.001 C 
ATOM     13  C   UNL     1      33.919 -13.340 -27.581  0.00  0.00    +0.001 C 
ATOM     14  C   UNL     1      32.679  -8.458 -21.969  0.00  0.00    +0.001 C 
ENDROOT
BRANCH   2  15
ATOM     15  C   UNL     1      32.343 -13.495 -22.727  0.00  0.00    +0.093 C 
BRANCH  15  18
ATOM     16  N   UNL     1      33.845 -16.743 -21.851  0.00  0.00    +0.387 N 
ATOM     17  C   UNL     1      33.406 -14.489 -20.630  0.00  0.00    -0.005 C 
ATOM     18  C   UNL     1      33.507 -14.279 -22.158  0.00  0.00    -0.001 C 
ATOM     19  C   UNL     1      33.651 -15.659 -22.841  0.00  0.00    -0.076 C 
ATOM     20  C   UNL     1      32.303 -15.513 -20.316  0.00  0.00    -0.023 C 
ATOM     21  C   UNL     1      34.737 -15.115 -20.176  0.00  0.00    -0.023 C 
ATOM     22  C   UNL     1      32.623 -16.842 -21.022  0.00  0.00    -0.077 C 
ATOM     23  C   UNL     1      34.989 -16.405 -20.977  0.00  0.00    -0.077 C 
ATOM     24  H   UNL     1      34.025 -17.627 -22.327  0.00  0.00    -0.080 HD
ENDBRANCH  15  18
ENDBRANCH   2  15
TORSDOF 2
ENDMDL
MODEL 8
REMARK VINA RESULT:      -8.0     11.147     13.799
REMARK  Name = 4066
REMARK  2 active torsions:
REMARK  status: ('A' for Active; 'I' for Inactive)
REMARK    1  A    between atoms: N_2  and  C_15
REMARK    2  A    between atoms: C_15  and  C_18
REMARK                            x       y       z     vdW  Elec       q    Type
REMARK                         _______ _______ _______ _____ _____    ______ ____
ROOT
ATOM      1  S   UNL     1      32.468  -8.465 -22.549  0.00  0.00    -0.084 S 
ATOM      2  N   UNL     1      32.544 -11.573 -22.484  0.00  0.00    -0.286 N 
ATOM      3  C   UNL     1      32.114 -10.943 -21.289  0.00  0.00    +0.058 C 
ATOM      4  C   UNL     1      33.332 -10.959 -23.491  0.00  0.00    +0.058 C 
ATOM      5  C   UNL     1      32.061  -9.539 -21.186  0.00  0.00    +0.043 C 
ATOM      6  C   UNL     1      33.398  -9.556 -23.607  0.00  0.00    +0.043 C 
ATOM      7  C   UNL     1      31.757 -11.683 -20.140  0.00  0.00    +0.015 C 
ATOM      8  C   UNL     1      34.110 -11.714 -24.395  0.00  0.00    +0.015 C 
ATOM      9  C   UNL     1      31.641  -8.919 -19.996  0.00  0.00    +0.008 C 
ATOM     10  C   UNL     1      34.187  -8.953 -24.603  0.00  0.00    +0.008 C 
ATOM     11  C   UNL     1      31.346 -11.063 -18.958  0.00  0.00    +0.001 C 
ATOM     12  C   UNL     1      34.897 -11.110 -25.380  0.00  0.00    +0.001 C 
ATOM     13  C   UNL     1      31.285  -9.679 -18.886  0.00  0.00    +0.001 C 
ATOM     14  C   UNL     1      34.932  -9.728 -25.486  0.00  0.00    +0.001 C 
ENDROOT
BRANCH   2  15
ATOM     15  C   UNL     1      32.205 -12.991 -22.662  0.00  0.00    +0.093 C 
BRANCH  15  18
ATOM     16  N   UNL     1      33.592 -16.385 -22.299  0.00  0.00    +0.387 N 
ATOM     17  C   UNL     1      33.458 -14.246 -20.826  0.00  0.00    -0.005 C 
ATOM     18  C   UNL     1      33.378 -13.888 -22.328  0.00  0.00    -0.001 C 
ATOM     19  C   UNL     1      33.346 -15.197 -23.149  0.00  0.00    -0.076 C 
ATOM     20  C   UNL     1      32.339 -15.238 -20.467  0.00  0.00    -0.023 C 
ATOM     21  C   UNL     1      34.792 -14.984 -20.612  0.00  0.00    -0.023 C 
ATOM     22  C   UNL     1      32.482 -16.503 -21.329  0.00  0.00    -0.077 C 
ATOM     23  C   UNL     1      34.857 -16.197 -21.556  0.00  0.00    -0.077 C 
ATOM     24  H   UNL     1      33.653 -17.224 -22.876  0.00  0.00    -0.080 HD
ENDBRANCH  15  18
ENDBRANCH   2  15
TORSDOF 2
ENDMDL
MODEL 9
REMARK VINA RESULT:      -7.6     13.137     16.352
REMARK  Name = 4066
REMARK  2 active torsions:
REMARK  status: ('A' for Active; 'I' for Inactive)
REMARK    1  A    between atoms: N_2  and  C_15
REMARK    2  A    between atoms: C_15  and  C_18
REMARK                            x       y       z     vdW  Elec       q    Type
REMARK                         _______ _______ _______ _____ _____    ______ ____
ROOT
ATOM      1  S   UNL     1      33.029 -14.301 -22.640  0.00  0.00    -0.084 S 
ATOM      2  N   UNL     1      33.205 -11.405 -23.757  0.00  0.00    -0.286 N 
ATOM      3  C   UNL     1      32.640 -11.532 -22.463  0.00  0.00    +0.058 C 
ATOM      4  C   UNL     1      33.272 -12.442 -24.722  0.00  0.00    +0.058 C 
ATOM      5  C   UNL     1      32.484 -12.796 -21.859  0.00  0.00    +0.043 C 
ATOM      6  C   UNL     1      33.180 -13.795 -24.342  0.00  0.00    +0.043 C 
ATOM      7  C   UNL     1      32.176 -10.413 -21.737  0.00  0.00    +0.015 C 
ATOM      8  C   UNL     1      33.397 -12.171 -26.102  0.00  0.00    +0.015 C 
ATOM      9  C   UNL     1      31.916 -12.917 -20.578  0.00  0.00    +0.008 C 
ATOM     10  C   UNL     1      33.239 -14.819 -25.305  0.00  0.00    +0.008 C 
ATOM     11  C   UNL     1      31.608 -10.539 -20.466  0.00  0.00    +0.001 C 
ATOM     12  C   UNL     1      33.450 -13.192 -27.056  0.00  0.00    +0.001 C 
ATOM     13  C   UNL     1      31.480 -11.792 -19.885  0.00  0.00    +0.001 C 
ATOM     14  C   UNL     1      33.375 -14.517 -26.656  0.00  0.00    +0.001 C 
ENDROOT
BRANCH   2  15
ATOM     15  C   UNL     1      33.697 -10.079 -24.154  0.00  0.00    +0.093 C 
BRANCH  15  18
ATOM     16  N   UNL     1      31.976  -6.822 -24.211  0.00  0.00    +0.387 N 
ATOM     17  C   UNL     1      33.934  -7.886 -22.870  0.00  0.00    -0.005 C 
ATOM     18  C   UNL     1      32.977  -8.974 -23.409  0.00  0.00    -0.001 C 
ATOM     19  C   UNL     1      31.903  -8.299 -24.290  0.00  0.00    -0.076 C 
ATOM     20  C   UNL     1      34.459  -7.031 -24.035  0.00  0.00    -0.023 C 
ATOM     21  C   UNL     1      33.093  -6.953 -21.978  0.00  0.00    -0.023 C 
ATOM     22  C   UNL     1      33.274  -6.388 -24.773  0.00  0.00    -0.077 C 
ATOM     23  C   UNL     1      31.907  -6.408 -22.793  0.00  0.00    -0.077 C 
ATOM     24  H   UNL     1      31.204  -6.402 -24.730  0.00  0.00    -0.080 HD
ENDBRANCH  15  18
ENDBRANCH   2  15
TORSDOF 2
ENDMDL
