MODEL 1
REMARK VINA RESULT:      -7.8      0.000      0.000
REMARK  Name = 449125
REMARK  5 active torsions:
REMARK  status: ('A' for Active; 'I' for Inactive)
REMARK    1  A    between atoms: C_1  and  C_15
REMARK    2  A    between atoms: C_2  and  N_8
REMARK    3  A    between atoms: C_9  and  C_12
REMARK    4  A    between atoms: C_12  and  O_13
REMARK    5  A    between atoms: C_15  and  N_16
REMARK                            x       y       z     vdW  Elec       q    Type
REMARK                         _______ _______ _______ _____ _____    ______ ____
ROOT
ATOM      1  C   UNL     1      34.163 -21.356 -19.573  0.00  0.00    -0.044 C 
ATOM      2  C   UNL     1      34.492 -19.326 -21.460  0.00  0.00    +0.051 C 
ATOM      3  C   UNL     1      33.049 -20.687 -20.080  0.00  0.00    -0.005 C 
ATOM      4  C   UNL     1      35.441 -21.009 -20.009  0.00  0.00    -0.005 C 
ATOM      5  C   UNL     1      33.213 -19.673 -21.024  0.00  0.00    +0.014 C 
ATOM      6  C   UNL     1      35.607 -19.996 -20.952  0.00  0.00    +0.014 C 
ENDROOT
BRANCH   2   8
ATOM      7  O   UNL     1      34.854 -19.454 -24.462  0.00  0.00    -0.263 OA
ATOM      8  N   UNL     1      34.657 -18.312 -22.403  0.00  0.00    -0.275 N 
ATOM      9  C   UNL     1      34.819 -18.443 -23.780  0.00  0.00    +0.325 C 
ATOM     10  H   UNL     1      34.658 -17.392 -22.052  0.00  0.00    +0.155 HD
BRANCH   9  12
ATOM     11  O   UNL     1      34.522 -16.872 -25.580  0.00  0.00    -0.240 OA
ATOM     12  C   UNL     1      34.968 -17.102 -24.474  0.00  0.00    +0.393 C 
BRANCH  12  13
ATOM     13  O   UNL     1      35.645 -16.248 -23.691  0.00  0.00    -0.474 OA
ATOM     14  H   UNL     1      35.948 -15.432 -24.038  0.00  0.00    +0.296 HD
ENDBRANCH  12  13
ENDBRANCH   9  12
ENDBRANCH   2   8
BRANCH   1  15
ATOM     15  C   UNL     1      33.986 -22.440 -18.565  0.00  0.00    -0.059 C 
BRANCH  15  16
ATOM     16  N   UNL     1      32.590 -22.594 -18.151  0.00  0.00    +0.383 N 
ATOM     17  H   UNL     1      32.540 -23.235 -17.358  0.00  0.00    -0.089 HD
ATOM     18  H   UNL     1      32.045 -22.967 -18.927  0.00  0.00    -0.089 HD
ATOM     19  H   UNL     1      32.215 -21.686 -17.877  0.00  0.00    -0.089 HD
ENDBRANCH  15  16
ENDBRANCH   1  15
TORSDOF 5
ENDMDL
MODEL 2
REMARK VINA RESULT:      -7.8      0.010      1.291
REMARK  Name = 449125
REMARK  5 active torsions:
REMARK  status: ('A' for Active; 'I' for Inactive)
REMARK    1  A    between atoms: C_1  and  C_15
REMARK    2  A    between atoms: C_2  and  N_8
REMARK    3  A    between atoms: C_9  and  C_12
REMARK    4  A    between atoms: C_12  and  O_13
REMARK    5  A    between atoms: C_15  and  N_16
REMARK                            x       y       z     vdW  Elec       q    Type
REMARK                         _______ _______ _______ _____ _____    ______ ____
ROOT
ATOM      1  C   UNL     1      34.161 -21.355 -19.573  0.00  0.00    -0.044 C 
ATOM      2  C   UNL     1      34.485 -19.323 -21.457  0.00  0.00    +0.051 C 
ATOM      3  C   UNL     1      35.438 -21.013 -20.016  0.00  0.00    -0.005 C 
ATOM      4  C   UNL     1      33.046 -20.682 -20.072  0.00  0.00    -0.005 C 
ATOM      5  C   UNL     1      35.600 -19.996 -20.958  0.00  0.00    +0.014 C 
ATOM      6  C   UNL     1      33.207 -19.667 -21.013  0.00  0.00    +0.014 C 
ENDROOT
BRANCH   2   8
ATOM      7  O   UNL     1      34.855 -19.448 -24.458  0.00  0.00    -0.263 OA
ATOM      8  N   UNL     1      34.648 -18.307 -22.399  0.00  0.00    -0.275 N 
ATOM      9  C   UNL     1      34.814 -18.437 -23.776  0.00  0.00    +0.325 C 
ATOM     10  H   UNL     1      34.643 -17.387 -22.048  0.00  0.00    +0.155 HD
BRANCH   9  12
ATOM     11  O   UNL     1      34.504 -16.863 -25.571  0.00  0.00    -0.240 OA
ATOM     12  C   UNL     1      34.958 -17.096 -24.469  0.00  0.00    +0.393 C 
BRANCH  12  13
ATOM     13  O   UNL     1      35.642 -16.243 -23.690  0.00  0.00    -0.474 OA
ATOM     14  H   UNL     1      35.798 -16.453 -22.790  0.00  0.00    +0.296 HD
ENDBRANCH  12  13
ENDBRANCH   9  12
ENDBRANCH   2   8
BRANCH   1  15
ATOM     15  C   UNL     1      33.987 -22.441 -18.566  0.00  0.00    -0.059 C 
BRANCH  15  16
ATOM     16  N   UNL     1      32.594 -22.593 -18.145  0.00  0.00    +0.383 N 
ATOM     17  H   UNL     1      32.552 -23.184 -17.314  0.00  0.00    -0.089 HD
ATOM     18  H   UNL     1      32.057 -23.025 -18.896  0.00  0.00    -0.089 HD
ATOM     19  H   UNL     1      32.202 -21.677 -17.929  0.00  0.00    -0.089 HD
ENDBRANCH  15  16
ENDBRANCH   1  15
TORSDOF 5
ENDMDL
MODEL 3
REMARK VINA RESULT:      -7.8      1.478      2.361
REMARK  Name = 449125
REMARK  5 active torsions:
REMARK  status: ('A' for Active; 'I' for Inactive)
REMARK    1  A    between atoms: C_1  and  C_15
REMARK    2  A    between atoms: C_2  and  N_8
REMARK    3  A    between atoms: C_9  and  C_12
REMARK    4  A    between atoms: C_12  and  O_13
REMARK    5  A    between atoms: C_15  and  N_16
REMARK                            x       y       z     vdW  Elec       q    Type
REMARK                         _______ _______ _______ _____ _____    ______ ____
ROOT
ATOM      1  C   UNL     1      34.099 -21.427 -19.588  0.00  0.00    -0.044 C 
ATOM      2  C   UNL     1      34.411 -19.137 -21.150  0.00  0.00    +0.051 C 
ATOM      3  C   UNL     1      35.373 -21.023 -19.986  0.00  0.00    -0.005 C 
ATOM      4  C   UNL     1      32.981 -20.687 -19.971  0.00  0.00    -0.005 C 
ATOM      5  C   UNL     1      35.529 -19.878 -20.767  0.00  0.00    +0.014 C 
ATOM      6  C   UNL     1      33.136 -19.543 -20.752  0.00  0.00    +0.014 C 
ENDROOT
BRANCH   2   8
ATOM      7  O   UNL     1      35.060 -16.285 -20.374  0.00  0.00    -0.263 OA
ATOM      8  N   UNL     1      34.567 -17.992 -21.932  0.00  0.00    -0.275 N 
ATOM      9  C   UNL     1      34.868 -16.700 -21.505  0.00  0.00    +0.325 C 
ATOM     10  H   UNL     1      34.451 -18.111 -22.902  0.00  0.00    +0.155 HD
BRANCH   9  12
ATOM     11  O   UNL     1      34.439 -14.620 -22.637  0.00  0.00    -0.240 OA
ATOM     12  C   UNL     1      34.957 -15.718 -22.657  0.00  0.00    +0.393 C 
BRANCH  12  13
ATOM     13  O   UNL     1      35.677 -16.244 -23.659  0.00  0.00    -0.474 OA
ATOM     14  H   UNL     1      36.232 -15.694 -24.177  0.00  0.00    +0.296 HD
ENDBRANCH  12  13
ENDBRANCH   9  12
ENDBRANCH   2   8
BRANCH   1  15
ATOM     15  C   UNL     1      33.933 -22.652 -18.753  0.00  0.00    -0.059 C 
BRANCH  15  16
ATOM     16  N   UNL     1      32.615 -22.719 -18.119  0.00  0.00    +0.383 N 
ATOM     17  H   UNL     1      32.552 -23.567 -17.554  0.00  0.00    -0.089 HD
ATOM     18  H   UNL     1      31.892 -22.734 -18.838  0.00  0.00    -0.089 HD
ATOM     19  H   UNL     1      32.483 -21.903 -17.521  0.00  0.00    -0.089 HD
ENDBRANCH  15  16
ENDBRANCH   1  15
TORSDOF 5
ENDMDL
MODEL 4
REMARK VINA RESULT:      -7.7      1.498      2.010
REMARK  Name = 449125
REMARK  5 active torsions:
REMARK  status: ('A' for Active; 'I' for Inactive)
REMARK    1  A    between atoms: C_1  and  C_15
REMARK    2  A    between atoms: C_2  and  N_8
REMARK    3  A    between atoms: C_9  and  C_12
REMARK    4  A    between atoms: C_12  and  O_13
REMARK    5  A    between atoms: C_15  and  N_16
REMARK                            x       y       z     vdW  Elec       q    Type
REMARK                         _______ _______ _______ _____ _____    ______ ____
ROOT
ATOM      1  C   UNL     1      34.089 -21.450 -19.560  0.00  0.00    -0.044 C 
ATOM      2  C   UNL     1      34.386 -19.145 -21.103  0.00  0.00    +0.051 C 
ATOM      3  C   UNL     1      32.966 -20.719 -19.946  0.00  0.00    -0.005 C 
ATOM      4  C   UNL     1      35.361 -21.028 -19.945  0.00  0.00    -0.005 C 
ATOM      5  C   UNL     1      33.114 -19.567 -20.718  0.00  0.00    +0.014 C 
ATOM      6  C   UNL     1      35.511 -19.876 -20.716  0.00  0.00    +0.014 C 
ENDROOT
BRANCH   2   8
ATOM      7  O   UNL     1      35.080 -16.308 -20.308  0.00  0.00    -0.263 OA
ATOM      8  N   UNL     1      34.535 -17.992 -21.875  0.00  0.00    -0.275 N 
ATOM      9  C   UNL     1      34.858 -16.708 -21.439  0.00  0.00    +0.325 C 
ATOM     10  H   UNL     1      34.396 -18.098 -22.843  0.00  0.00    +0.155 HD
BRANCH   9  12
ATOM     11  O   UNL     1      34.431 -14.607 -22.534  0.00  0.00    -0.240 OA
ATOM     12  C   UNL     1      34.930 -15.713 -22.582  0.00  0.00    +0.393 C 
BRANCH  12  13
ATOM     13  O   UNL     1      35.612 -16.238 -23.611  0.00  0.00    -0.474 OA
ATOM     14  H   UNL     1      36.514 -16.470 -23.506  0.00  0.00    +0.296 HD
ENDBRANCH  12  13
ENDBRANCH   9  12
ENDBRANCH   2   8
BRANCH   1  15
ATOM     15  C   UNL     1      33.930 -22.682 -18.735  0.00  0.00    -0.059 C 
BRANCH  15  16
ATOM     16  N   UNL     1      32.638 -22.730 -18.049  0.00  0.00    +0.383 N 
ATOM     17  H   UNL     1      31.993 -23.318 -18.579  0.00  0.00    -0.089 HD
ATOM     18  H   UNL     1      32.257 -21.787 -17.976  0.00  0.00    -0.089 HD
ATOM     19  H   UNL     1      32.763 -23.120 -17.115  0.00  0.00    -0.089 HD
ENDBRANCH  15  16
ENDBRANCH   1  15
TORSDOF 5
ENDMDL
MODEL 5
REMARK VINA RESULT:      -7.0      1.629      2.302
REMARK  Name = 449125
REMARK  5 active torsions:
REMARK  status: ('A' for Active; 'I' for Inactive)
REMARK    1  A    between atoms: C_1  and  C_15
REMARK    2  A    between atoms: C_2  and  N_8
REMARK    3  A    between atoms: C_9  and  C_12
REMARK    4  A    between atoms: C_12  and  O_13
REMARK    5  A    between atoms: C_15  and  N_16
REMARK                            x       y       z     vdW  Elec       q    Type
REMARK                         _______ _______ _______ _____ _____    ______ ____
ROOT
ATOM      1  C   UNL     1      35.560 -20.572 -20.045  0.00  0.00    -0.044 C 
ATOM      2  C   UNL     1      34.988 -18.487 -21.809  0.00  0.00    +0.051 C 
ATOM      3  C   UNL     1      36.589 -19.762 -20.524  0.00  0.00    -0.005 C 
ATOM      4  C   UNL     1      34.245 -20.340 -20.448  0.00  0.00    -0.005 C 
ATOM      5  C   UNL     1      36.303 -18.719 -21.406  0.00  0.00    +0.014 C 
ATOM      6  C   UNL     1      33.959 -19.300 -21.330  0.00  0.00    +0.014 C 
ENDROOT
BRANCH   2   8
ATOM      7  O   UNL     1      34.690 -18.471 -24.821  0.00  0.00    -0.263 OA
ATOM      8  N   UNL     1      34.702 -17.446 -22.691  0.00  0.00    -0.275 N 
ATOM      9  C   UNL     1      34.578 -17.509 -24.078  0.00  0.00    +0.325 C 
ATOM     10  H   UNL     1      34.570 -16.558 -22.285  0.00  0.00    +0.155 HD
BRANCH   9  12
ATOM     11  O   UNL     1      34.067 -15.157 -24.032  0.00  0.00    -0.240 OA
ATOM     12  C   UNL     1      34.258 -16.159 -24.691  0.00  0.00    +0.393 C 
BRANCH  12  13
ATOM     13  O   UNL     1      34.225 -16.255 -26.029  0.00  0.00    -0.474 OA
ATOM     14  H   UNL     1      33.505 -15.892 -26.507  0.00  0.00    +0.296 HD
ENDBRANCH  12  13
ENDBRANCH   9  12
ENDBRANCH   2   8
BRANCH   1  15
ATOM     15  C   UNL     1      35.866 -21.686 -19.102  0.00  0.00    -0.059 C 
BRANCH  15  16
ATOM     16  N   UNL     1      36.722 -21.258 -17.993  0.00  0.00    +0.383 N 
ATOM     17  H   UNL     1      37.470 -20.663 -18.351  0.00  0.00    -0.089 HD
ATOM     18  H   UNL     1      37.125 -22.078 -17.540  0.00  0.00    -0.089 HD
ATOM     19  H   UNL     1      36.166 -20.734 -17.318  0.00  0.00    -0.089 HD
ENDBRANCH  15  16
ENDBRANCH   1  15
TORSDOF 5
ENDMDL
MODEL 6
REMARK VINA RESULT:      -7.0      3.270      6.071
REMARK  Name = 449125
REMARK  5 active torsions:
REMARK  status: ('A' for Active; 'I' for Inactive)
REMARK    1  A    between atoms: C_1  and  C_15
REMARK    2  A    between atoms: C_2  and  N_8
REMARK    3  A    between atoms: C_9  and  C_12
REMARK    4  A    between atoms: C_12  and  O_13
REMARK    5  A    between atoms: C_15  and  N_16
REMARK                            x       y       z     vdW  Elec       q    Type
REMARK                         _______ _______ _______ _____ _____    ______ ____
ROOT
ATOM      1  C   UNL     1      34.874 -17.005 -23.279  0.00  0.00    -0.044 C 
ATOM      2  C   UNL     1      34.785 -19.214 -21.577  0.00  0.00    +0.051 C 
ATOM      3  C   UNL     1      34.801 -18.293 -23.810  0.00  0.00    -0.005 C 
ATOM      4  C   UNL     1      34.902 -16.822 -21.897  0.00  0.00    -0.005 C 
ATOM      5  C   UNL     1      34.757 -19.397 -22.959  0.00  0.00    +0.014 C 
ATOM      6  C   UNL     1      34.858 -17.925 -21.046  0.00  0.00    +0.014 C 
ENDROOT
BRANCH   2   8
ATOM      7  O   UNL     1      32.522 -20.341 -19.913  0.00  0.00    -0.263 OA
ATOM      8  N   UNL     1      34.741 -20.318 -20.725  0.00  0.00    -0.275 N 
ATOM      9  C   UNL     1      33.657 -20.784 -19.985  0.00  0.00    +0.325 C 
ATOM     10  H   UNL     1      35.577 -20.831 -20.638  0.00  0.00    +0.155 HD
BRANCH   9  12
ATOM     11  O   UNL     1      35.130 -22.450 -19.064  0.00  0.00    -0.240 OA
ATOM     12  C   UNL     1      34.000 -22.019 -19.174  0.00  0.00    +0.393 C 
BRANCH  12  13
ATOM     13  O   UNL     1      32.891 -22.533 -18.621  0.00  0.00    -0.474 OA
ATOM     14  H   UNL     1      32.116 -22.010 -18.552  0.00  0.00    +0.296 HD
ENDBRANCH  12  13
ENDBRANCH   9  12
ENDBRANCH   2   8
BRANCH   1  15
ATOM     15  C   UNL     1      34.921 -15.825 -24.190  0.00  0.00    -0.059 C 
BRANCH  15  16
ATOM     16  N   UNL     1      33.811 -15.813 -25.144  0.00  0.00    +0.383 N 
ATOM     17  H   UNL     1      33.783 -14.912 -25.622  0.00  0.00    -0.089 HD
ATOM     18  H   UNL     1      32.933 -15.962 -24.647  0.00  0.00    -0.089 HD
ATOM     19  H   UNL     1      33.944 -16.556 -25.830  0.00  0.00    -0.089 HD
ENDBRANCH  15  16
ENDBRANCH   1  15
TORSDOF 5
ENDMDL
MODEL 7
REMARK VINA RESULT:      -6.9      3.273      6.051
REMARK  Name = 449125
REMARK  5 active torsions:
REMARK  status: ('A' for Active; 'I' for Inactive)
REMARK    1  A    between atoms: C_1  and  C_15
REMARK    2  A    between atoms: C_2  and  N_8
REMARK    3  A    between atoms: C_9  and  C_12
REMARK    4  A    between atoms: C_12  and  O_13
REMARK    5  A    between atoms: C_15  and  N_16
REMARK                            x       y       z     vdW  Elec       q    Type
REMARK                         _______ _______ _______ _____ _____    ______ ____
ROOT
ATOM      1  C   UNL     1      34.811 -16.990 -23.291  0.00  0.00    -0.044 C 
ATOM      2  C   UNL     1      34.771 -19.207 -21.597  0.00  0.00    +0.051 C 
ATOM      3  C   UNL     1      34.800 -16.811 -21.908  0.00  0.00    -0.005 C 
ATOM      4  C   UNL     1      34.801 -18.278 -23.827  0.00  0.00    -0.005 C 
ATOM      5  C   UNL     1      34.781 -17.919 -21.061  0.00  0.00    +0.014 C 
ATOM      6  C   UNL     1      34.781 -19.386 -22.981  0.00  0.00    +0.014 C 
ENDROOT
BRANCH   2   8
ATOM      7  O   UNL     1      32.540 -20.369 -19.913  0.00  0.00    -0.263 OA
ATOM      8  N   UNL     1      34.750 -20.315 -20.750  0.00  0.00    -0.275 N 
ATOM      9  C   UNL     1      33.680 -20.797 -19.999  0.00  0.00    +0.325 C 
ATOM     10  H   UNL     1      35.593 -20.818 -20.674  0.00  0.00    +0.155 HD
BRANCH   9  12
ATOM     11  O   UNL     1      35.188 -22.424 -19.065  0.00  0.00    -0.240 OA
ATOM     12  C   UNL     1      34.047 -22.032 -19.198  0.00  0.00    +0.393 C 
BRANCH  12  13
ATOM     13  O   UNL     1      32.943 -22.592 -18.680  0.00  0.00    -0.474 OA
ATOM     14  H   UNL     1      32.192 -22.737 -19.221  0.00  0.00    +0.296 HD
ENDBRANCH  12  13
ENDBRANCH   9  12
ENDBRANCH   2   8
BRANCH   1  15
ATOM     15  C   UNL     1      34.833 -15.806 -24.196  0.00  0.00    -0.059 C 
BRANCH  15  16
ATOM     16  N   UNL     1      33.673 -14.934 -24.001  0.00  0.00    +0.383 N 
ATOM     17  H   UNL     1      33.790 -14.401 -23.138  0.00  0.00    -0.089 HD
ATOM     18  H   UNL     1      32.828 -15.502 -23.939  0.00  0.00    -0.089 HD
ATOM     19  H   UNL     1      33.595 -14.291 -24.788  0.00  0.00    -0.089 HD
ENDBRANCH  15  16
ENDBRANCH   1  15
TORSDOF 5
ENDMDL
MODEL 8
REMARK VINA RESULT:      -6.8      3.489      6.106
REMARK  Name = 449125
REMARK  5 active torsions:
REMARK  status: ('A' for Active; 'I' for Inactive)
REMARK    1  A    between atoms: C_1  and  C_15
REMARK    2  A    between atoms: C_2  and  N_8
REMARK    3  A    between atoms: C_9  and  C_12
REMARK    4  A    between atoms: C_12  and  O_13
REMARK    5  A    between atoms: C_15  and  N_16
REMARK                            x       y       z     vdW  Elec       q    Type
REMARK                         _______ _______ _______ _____ _____    ______ ____
ROOT
ATOM      1  C   UNL     1      34.048 -14.557 -22.528  0.00  0.00    -0.044 C 
ATOM      2  C   UNL     1      35.029 -16.920 -21.417  0.00  0.00    +0.051 C 
ATOM      3  C   UNL     1      33.983 -14.759 -21.150  0.00  0.00    -0.005 C 
ATOM      4  C   UNL     1      34.602 -15.536 -23.351  0.00  0.00    -0.005 C 
ATOM      5  C   UNL     1      34.474 -15.941 -20.594  0.00  0.00    +0.014 C 
ATOM      6  C   UNL     1      35.092 -16.718 -22.797  0.00  0.00    +0.014 C 
ENDROOT
BRANCH   2   8
ATOM      7  O   UNL     1      33.964 -19.751 -21.533  0.00  0.00    -0.263 OA
ATOM      8  N   UNL     1      35.519 -18.103 -20.862  0.00  0.00    -0.275 N 
ATOM      9  C   UNL     1      34.974 -19.381 -20.956  0.00  0.00    +0.325 C 
ATOM     10  H   UNL     1      36.351 -18.024 -20.342  0.00  0.00    +0.155 HD
BRANCH   9  12
ATOM     11  O   UNL     1      35.456 -21.574 -20.087  0.00  0.00    -0.240 OA
ATOM     12  C   UNL     1      35.799 -20.416 -20.216  0.00  0.00    +0.393 C 
BRANCH  12  13
ATOM     13  O   UNL     1      36.928 -19.860 -19.749  0.00  0.00    -0.474 OA
ATOM     14  H   UNL     1      36.953 -19.509 -18.880  0.00  0.00    +0.296 HD
ENDBRANCH  12  13
ENDBRANCH   9  12
ENDBRANCH   2   8
BRANCH   1  15
ATOM     15  C   UNL     1      33.523 -13.293 -23.121  0.00  0.00    -0.059 C 
BRANCH  15  16
ATOM     16  N   UNL     1      32.098 -13.098 -22.847  0.00  0.00    +0.383 N 
ATOM     17  H   UNL     1      31.784 -13.793 -22.168  0.00  0.00    -0.089 HD
ATOM     18  H   UNL     1      31.569 -13.204 -23.712  0.00  0.00    -0.089 HD
ATOM     19  H   UNL     1      31.950 -12.163 -22.469  0.00  0.00    -0.089 HD
ENDBRANCH  15  16
ENDBRANCH   1  15
TORSDOF 5
ENDMDL
MODEL 9
REMARK VINA RESULT:      -6.6      3.812      5.246
REMARK  Name = 449125
REMARK  5 active torsions:
REMARK  status: ('A' for Active; 'I' for Inactive)
REMARK    1  A    between atoms: C_1  and  C_15
REMARK    2  A    between atoms: C_2  and  N_8
REMARK    3  A    between atoms: C_9  and  C_12
REMARK    4  A    between atoms: C_12  and  O_13
REMARK    5  A    between atoms: C_15  and  N_16
REMARK                            x       y       z     vdW  Elec       q    Type
REMARK                         _______ _______ _______ _____ _____    ______ ____
ROOT
ATOM      1  C   UNL     1      34.943 -17.674 -21.937  0.00  0.00    -0.044 C 
ATOM      2  C   UNL     1      34.599 -15.033 -22.767  0.00  0.00    +0.051 C 
ATOM      3  C   UNL     1      34.708 -16.673 -20.996  0.00  0.00    -0.005 C 
ATOM      4  C   UNL     1      35.006 -17.355 -23.294  0.00  0.00    -0.005 C 
ATOM      5  C   UNL     1      34.536 -15.352 -21.411  0.00  0.00    +0.014 C 
ATOM      6  C   UNL     1      34.835 -16.036 -23.709  0.00  0.00    +0.014 C 
ENDROOT
BRANCH   2   8
ATOM      7  O   UNL     1      32.106 -13.328 -22.963  0.00  0.00    -0.263 OA
ATOM      8  N   UNL     1      34.428 -13.712 -23.182  0.00  0.00    -0.275 N 
ATOM      9  C   UNL     1      33.242 -12.984 -23.247  0.00  0.00    +0.325 C 
ATOM     10  H   UNL     1      35.244 -13.237 -23.461  0.00  0.00    +0.155 HD
BRANCH   9  12
ATOM     11  O   UNL     1      32.781 -10.626 -23.400  0.00  0.00    -0.240 OA
ATOM     12  C   UNL     1      33.461 -11.569 -23.750  0.00  0.00    +0.393 C 
BRANCH  12  13
ATOM     13  O   UNL     1      34.491 -11.538 -24.610  0.00  0.00    -0.474 OA
ATOM     14  H   UNL     1      34.341 -11.343 -25.514  0.00  0.00    +0.296 HD
ENDBRANCH  12  13
ENDBRANCH   9  12
ENDBRANCH   2   8
BRANCH   1  15
ATOM     15  C   UNL     1      35.126 -19.086 -21.494  0.00  0.00    -0.059 C 
BRANCH  15  16
ATOM     16  N   UNL     1      36.161 -19.217 -20.466  0.00  0.00    +0.383 N 
ATOM     17  H   UNL     1      35.810 -18.849 -19.581  0.00  0.00    -0.089 HD
ATOM     18  H   UNL     1      36.988 -18.693 -20.749  0.00  0.00    -0.089 HD
ATOM     19  H   UNL     1      36.404 -20.201 -20.352  0.00  0.00    -0.089 HD
ENDBRANCH  15  16
ENDBRANCH   1  15
TORSDOF 5
ENDMDL
