MODEL 1
REMARK VINA RESULT:      -7.5      0.000      0.000
REMARK  Name = 5288101
REMARK  5 active torsions:
REMARK  status: ('A' for Active; 'I' for Inactive)
REMARK    1  A    between atoms: C_7  and  N_12
REMARK    2  A    between atoms: C_8  and  C_20
REMARK    3  A    between atoms: C_8  and  P_26
REMARK    4  A    between atoms: P_26  and  O_28
REMARK    5  A    between atoms: P_26  and  O_30
REMARK                            x       y       z     vdW  Elec       q    Type
REMARK                         _______ _______ _______ _____ _____    ______ ____
ROOT
ATOM      1  O   UNL     1      30.684  -5.943 -23.295  0.00  0.00    -0.335 OA
ATOM      2  O   UNL     1      32.413  -8.689 -21.667  0.00  0.00    -0.322 OA
ATOM      3  O   UNL     1      30.745  -9.586 -23.158  0.00  0.00    -0.320 OA
ATOM      4  C   UNL     1      32.019  -7.365 -21.965  0.00  0.00    +0.152 C 
ATOM      5  C   UNL     1      30.680  -7.231 -22.664  0.00  0.00    +0.174 C 
ATOM      6  C   UNL     1      32.939  -6.599 -22.891  0.00  0.00    +0.084 C 
ATOM      7  C   UNL     1      32.038  -5.457 -23.336  0.00  0.00    +0.202 C 
ATOM      8  C   UNL     1      32.065  -9.689 -22.623  0.00  0.00    +0.304 C 
ATOM      9  C   UNL     1      30.479  -8.307 -23.715  0.00  0.00    +0.177 C 
ENDROOT
BRANCH   7  12
ATOM     10  O   UNL     1      30.467  -3.603 -24.822  0.00  0.00    -0.252 OA
ATOM     11  O   UNL     1      33.341  -3.783 -28.407  0.00  0.00    -0.270 OA
ATOM     12  N   UNL     1      32.337  -4.992 -24.659  0.00  0.00    -0.219 N 
ATOM     13  N   UNL     1      31.909  -3.702 -26.603  0.00  0.00    -0.236 N 
ATOM     14  C   UNL     1      33.479  -5.471 -25.287  0.00  0.00    +0.071 C 
ATOM     15  C   UNL     1      31.496  -4.069 -25.318  0.00  0.00    +0.315 C 
ATOM     16  C   UNL     1      33.873  -5.118 -26.518  0.00  0.00    +0.047 C 
ATOM     17  C   UNL     1      33.037  -4.148 -27.275  0.00  0.00    +0.250 C 
ATOM     18  C   UNL     1      35.106  -5.646 -27.175  0.00  0.00    +0.037 C 
ATOM     19  H   UNL     1      31.337  -3.060 -27.082  0.00  0.00    +0.159 HD
ENDBRANCH   7  12
BRANCH   8  20
ATOM     20  C   UNL     1      33.157  -9.997 -23.634  0.00  0.00    +0.040 C 
ATOM     21  C   UNL     1      33.045 -11.111 -24.468  0.00  0.00    +0.001 C 
ATOM     22  C   UNL     1      34.273  -9.165 -23.733  0.00  0.00    +0.001 C 
ATOM     23  C   UNL     1      34.046 -11.393 -25.397  0.00  0.00    -0.000 C 
ATOM     24  C   UNL     1      35.275  -9.446 -24.662  0.00  0.00    -0.000 C 
ATOM     25  C   UNL     1      35.161 -10.560 -25.493  0.00  0.00    -0.000 C 
ENDBRANCH   8  20
BRANCH   8  26
ATOM     26  P   UNL     1      31.848 -11.139 -21.514  0.00  0.00    +0.391 P 
ATOM     27  O   UNL     1      32.745 -12.295 -21.829  0.00  0.00    -0.253 OA
BRANCH  26  28
ATOM     28  O   UNL     1      30.266 -11.439 -21.610  0.00  0.00    -0.320 OA
ATOM     29  H   UNL     1      29.791 -10.882 -20.975  0.00  0.00    +0.220 HD
ENDBRANCH  26  28
BRANCH  26  30
ATOM     30  O   UNL     1      32.026 -10.502 -20.042  0.00  0.00    -0.320 OA
ATOM     31  H   UNL     1      32.568  -9.700 -20.100  0.00  0.00    +0.220 HD
ENDBRANCH  26  30
ENDBRANCH   8  26
TORSDOF 5
ENDMDL
MODEL 2
REMARK VINA RESULT:      -7.5     16.527     18.599
REMARK  Name = 5288101
REMARK  5 active torsions:
REMARK  status: ('A' for Active; 'I' for Inactive)
REMARK    1  A    between atoms: C_7  and  N_12
REMARK    2  A    between atoms: C_8  and  C_20
REMARK    3  A    between atoms: C_8  and  P_26
REMARK    4  A    between atoms: P_26  and  O_28
REMARK    5  A    between atoms: P_26  and  O_30
REMARK                            x       y       z     vdW  Elec       q    Type
REMARK                         _______ _______ _______ _____ _____    ______ ____
ROOT
ATOM      1  O   UNL     1      32.199 -24.727 -13.632  0.00  0.00    -0.335 OA
ATOM      2  O   UNL     1      35.005 -22.558 -14.406  0.00  0.00    -0.322 OA
ATOM      3  O   UNL     1      35.442 -24.754 -15.297  0.00  0.00    -0.320 OA
ATOM      4  C   UNL     1      33.786 -22.992 -13.839  0.00  0.00    +0.152 C 
ATOM      5  C   UNL     1      33.609 -24.496 -13.759  0.00  0.00    +0.174 C 
ATOM      6  C   UNL     1      32.532 -22.561 -14.569  0.00  0.00    +0.084 C 
ATOM      7  C   UNL     1      31.502 -23.521 -13.993  0.00  0.00    +0.202 C 
ATOM      8  C   UNL     1      35.524 -23.340 -15.481  0.00  0.00    +0.304 C 
ATOM      9  C   UNL     1      34.124 -25.194 -15.005  0.00  0.00    +0.177 C 
ENDROOT
BRANCH   7  12
ATOM     10  O   UNL     1      30.760 -26.148 -14.807  0.00  0.00    -0.252 OA
ATOM     11  O   UNL     1      27.442 -24.541 -17.555  0.00  0.00    -0.270 OA
ATOM     12  N   UNL     1      30.452 -23.836 -14.917  0.00  0.00    -0.219 N 
ATOM     13  N   UNL     1      29.108 -25.333 -16.173  0.00  0.00    -0.236 N 
ATOM     14  C   UNL     1      29.725 -22.792 -15.474  0.00  0.00    +0.071 C 
ATOM     15  C   UNL     1      30.156 -25.173 -15.261  0.00  0.00    +0.315 C 
ATOM     16  C   UNL     1      28.722 -22.948 -16.348  0.00  0.00    +0.047 C 
ATOM     17  C   UNL     1      28.352 -24.329 -16.758  0.00  0.00    +0.250 C 
ATOM     18  C   UNL     1      27.952 -21.809 -16.935  0.00  0.00    +0.037 C 
ATOM     19  H   UNL     1      28.884 -26.257 -16.429  0.00  0.00    +0.159 HD
ENDBRANCH   7  12
BRANCH   8  20
ATOM     20  C   UNL     1      35.141 -22.839 -16.863  0.00  0.00    +0.040 C 
ATOM     21  C   UNL     1      36.067 -22.131 -17.632  0.00  0.00    +0.001 C 
ATOM     22  C   UNL     1      33.863 -23.085 -17.368  0.00  0.00    +0.001 C 
ATOM     23  C   UNL     1      35.716 -21.671 -18.902  0.00  0.00    -0.000 C 
ATOM     24  C   UNL     1      33.512 -22.626 -18.637  0.00  0.00    -0.000 C 
ATOM     25  C   UNL     1      34.438 -21.919 -19.403  0.00  0.00    -0.000 C 
ENDBRANCH   8  20
BRANCH   8  26
ATOM     26  P   UNL     1      37.327 -23.088 -15.228  0.00  0.00    +0.391 P 
ATOM     27  O   UNL     1      37.890 -21.905 -15.950  0.00  0.00    -0.253 OA
BRANCH  26  28
ATOM     28  O   UNL     1      37.957 -24.516 -15.635  0.00  0.00    -0.320 OA
ATOM     29  H   UNL     1      37.682 -24.746 -16.536  0.00  0.00    +0.220 HD
ENDBRANCH  26  28
BRANCH  26  30
ATOM     30  O   UNL     1      37.468 -23.054 -13.620  0.00  0.00    -0.320 OA
ATOM     31  H   UNL     1      36.991 -22.285 -13.270  0.00  0.00    +0.220 HD
ENDBRANCH  26  30
ENDBRANCH   8  26
TORSDOF 5
ENDMDL
MODEL 3
REMARK VINA RESULT:      -7.0      2.732      6.319
REMARK  Name = 5288101
REMARK  5 active torsions:
REMARK  status: ('A' for Active; 'I' for Inactive)
REMARK    1  A    between atoms: C_7  and  N_12
REMARK    2  A    between atoms: C_8  and  C_20
REMARK    3  A    between atoms: C_8  and  P_26
REMARK    4  A    between atoms: P_26  and  O_28
REMARK    5  A    between atoms: P_26  and  O_30
REMARK                            x       y       z     vdW  Elec       q    Type
REMARK                         _______ _______ _______ _____ _____    ______ ____
ROOT
ATOM      1  O   UNL     1      31.192  -8.039 -21.566  0.00  0.00    -0.335 OA
ATOM      2  O   UNL     1      30.411  -5.192 -23.679  0.00  0.00    -0.322 OA
ATOM      3  O   UNL     1      32.394  -4.700 -22.401  0.00  0.00    -0.320 OA
ATOM      4  C   UNL     1      30.266  -6.444 -23.039  0.00  0.00    +0.152 C 
ATOM      5  C   UNL     1      31.089  -6.624 -21.778  0.00  0.00    +0.174 C 
ATOM      6  C   UNL     1      30.669  -7.650 -23.859  0.00  0.00    +0.084 C 
ATOM      7  C   UNL     1      30.814  -8.713 -22.779  0.00  0.00    +0.202 C 
ATOM      8  C   UNL     1      31.712  -4.608 -23.653  0.00  0.00    +0.304 C 
ATOM      9  C   UNL     1      32.480  -6.033 -21.921  0.00  0.00    +0.177 C 
ENDROOT
BRANCH   7  12
ATOM     10  O   UNL     1      30.720 -11.445 -21.977  0.00  0.00    -0.252 OA
ATOM     11  O   UNL     1      34.689 -12.381 -24.103  0.00  0.00    -0.270 OA
ATOM     12  N   UNL     1      31.799  -9.705 -23.100  0.00  0.00    -0.219 N 
ATOM     13  N   UNL     1      32.700 -11.897 -23.042  0.00  0.00    -0.236 N 
ATOM     14  C   UNL     1      32.897  -9.326 -23.861  0.00  0.00    +0.071 C 
ATOM     15  C   UNL     1      31.667 -11.038 -22.656  0.00  0.00    +0.315 C 
ATOM     16  C   UNL     1      33.886 -10.151 -24.230  0.00  0.00    +0.047 C 
ATOM     17  C   UNL     1      33.815 -11.572 -23.799  0.00  0.00    +0.250 C 
ATOM     18  C   UNL     1      35.059  -9.721 -25.050  0.00  0.00    +0.037 C 
ATOM     19  H   UNL     1      32.630 -12.833 -22.743  0.00  0.00    +0.159 HD
ENDBRANCH   7  12
BRANCH   8  20
ATOM     20  C   UNL     1      32.558  -4.906 -24.879  0.00  0.00    +0.040 C 
ATOM     21  C   UNL     1      32.289  -4.262 -26.089  0.00  0.00    +0.001 C 
ATOM     22  C   UNL     1      33.607  -5.823 -24.800  0.00  0.00    +0.001 C 
ATOM     23  C   UNL     1      33.066  -4.534 -27.215  0.00  0.00    -0.000 C 
ATOM     24  C   UNL     1      34.384  -6.096 -25.926  0.00  0.00    -0.000 C 
ATOM     25  C   UNL     1      34.113  -5.452 -27.133  0.00  0.00    -0.000 C 
ENDBRANCH   8  20
BRANCH   8  26
ATOM     26  P   UNL     1      31.270  -2.824 -23.646  0.00  0.00    +0.391 P 
ATOM     27  O   UNL     1      32.439  -1.900 -23.777  0.00  0.00    -0.253 OA
BRANCH  26  28
ATOM     28  O   UNL     1      30.405  -2.667 -22.293  0.00  0.00    -0.320 OA
ATOM     29  H   UNL     1      29.581  -3.169 -22.375  0.00  0.00    +0.220 HD
ENDBRANCH  26  28
BRANCH  26  30
ATOM     30  O   UNL     1      30.165  -2.718 -24.819  0.00  0.00    -0.320 OA
ATOM     31  H   UNL     1      29.621  -1.927 -24.680  0.00  0.00    +0.220 HD
ENDBRANCH  26  30
ENDBRANCH   8  26
TORSDOF 5
ENDMDL
MODEL 4
REMARK VINA RESULT:      -6.8      1.092      1.634
REMARK  Name = 5288101
REMARK  5 active torsions:
REMARK  status: ('A' for Active; 'I' for Inactive)
REMARK    1  A    between atoms: C_7  and  N_12
REMARK    2  A    between atoms: C_8  and  C_20
REMARK    3  A    between atoms: C_8  and  P_26
REMARK    4  A    between atoms: P_26  and  O_28
REMARK    5  A    between atoms: P_26  and  O_30
REMARK                            x       y       z     vdW  Elec       q    Type
REMARK                         _______ _______ _______ _____ _____    ______ ____
ROOT
ATOM      1  O   UNL     1      30.955  -5.879 -23.473  0.00  0.00    -0.335 OA
ATOM      2  O   UNL     1      32.531  -8.691 -21.804  0.00  0.00    -0.322 OA
ATOM      3  O   UNL     1      30.786  -9.514 -23.249  0.00  0.00    -0.320 OA
ATOM      4  C   UNL     1      32.217  -7.352 -22.128  0.00  0.00    +0.152 C 
ATOM      5  C   UNL     1      30.878  -7.149 -22.811  0.00  0.00    +0.174 C 
ATOM      6  C   UNL     1      33.170  -6.668 -23.085  0.00  0.00    +0.084 C 
ATOM      7  C   UNL     1      32.336  -5.482 -23.545  0.00  0.00    +0.202 C 
ATOM      8  C   UNL     1      32.105  -9.690 -22.730  0.00  0.00    +0.304 C 
ATOM      9  C   UNL     1      30.593  -8.235 -23.833  0.00  0.00    +0.177 C 
ENDROOT
BRANCH   7  12
ATOM     10  O   UNL     1      34.458  -6.515 -25.140  0.00  0.00    -0.252 OA
ATOM     11  O   UNL     1      33.370  -3.769 -28.665  0.00  0.00    -0.270 OA
ATOM     12  N   UNL     1      32.643  -5.067 -24.883  0.00  0.00    -0.219 N 
ATOM     13  N   UNL     1      33.904  -5.140 -26.890  0.00  0.00    -0.236 N 
ATOM     14  C   UNL     1      31.858  -4.084 -25.469  0.00  0.00    +0.071 C 
ATOM     15  C   UNL     1      33.719  -5.639 -25.596  0.00  0.00    +0.315 C 
ATOM     16  C   UNL     1      32.038  -3.608 -26.708  0.00  0.00    +0.047 C 
ATOM     17  C   UNL     1      33.152  -4.162 -27.522  0.00  0.00    +0.250 C 
ATOM     18  C   UNL     1      31.179  -2.547 -27.319  0.00  0.00    +0.037 C 
ATOM     19  H   UNL     1      34.649  -5.524 -27.407  0.00  0.00    +0.159 HD
ENDBRANCH   7  12
BRANCH   8  20
ATOM     20  C   UNL     1      33.159 -10.089 -23.750  0.00  0.00    +0.040 C 
ATOM     21  C   UNL     1      32.919 -11.151 -24.625  0.00  0.00    +0.001 C 
ATOM     22  C   UNL     1      34.369  -9.396 -23.814  0.00  0.00    +0.001 C 
ATOM     23  C   UNL     1      33.886 -11.517 -25.561  0.00  0.00    -0.000 C 
ATOM     24  C   UNL     1      35.335  -9.762 -24.750  0.00  0.00    -0.000 C 
ATOM     25  C   UNL     1      35.094 -10.823 -25.623  0.00  0.00    -0.000 C 
ENDBRANCH   8  20
BRANCH   8  26
ATOM     26  P   UNL     1      31.814 -11.097 -21.583  0.00  0.00    +0.391 P 
ATOM     27  O   UNL     1      32.707 -12.274 -21.815  0.00  0.00    -0.253 OA
BRANCH  26  28
ATOM     28  O   UNL     1      30.234 -11.378 -21.745  0.00  0.00    -0.320 OA
ATOM     29  H   UNL     1      29.735 -10.597 -21.463  0.00  0.00    +0.220 HD
ENDBRANCH  26  28
BRANCH  26  30
ATOM     30  O   UNL     1      31.932 -10.410 -20.127  0.00  0.00    -0.320 OA
ATOM     31  H   UNL     1      32.516  -9.639 -20.180  0.00  0.00    +0.220 HD
ENDBRANCH  26  30
ENDBRANCH   8  26
TORSDOF 5
ENDMDL
MODEL 5
REMARK VINA RESULT:      -6.7     16.401     18.946
REMARK  Name = 5288101
REMARK  5 active torsions:
REMARK  status: ('A' for Active; 'I' for Inactive)
REMARK    1  A    between atoms: C_7  and  N_12
REMARK    2  A    between atoms: C_8  and  C_20
REMARK    3  A    between atoms: C_8  and  P_26
REMARK    4  A    between atoms: P_26  and  O_28
REMARK    5  A    between atoms: P_26  and  O_30
REMARK                            x       y       z     vdW  Elec       q    Type
REMARK                         _______ _______ _______ _____ _____    ______ ____
ROOT
ATOM      1  O   UNL     1      33.367 -25.344 -13.603  0.00  0.00    -0.335 OA
ATOM      2  O   UNL     1      36.708 -23.924 -13.552  0.00  0.00    -0.322 OA
ATOM      3  O   UNL     1      36.585 -25.578 -15.299  0.00  0.00    -0.320 OA
ATOM      4  C   UNL     1      35.380 -24.196 -13.152  0.00  0.00    +0.152 C 
ATOM      5  C   UNL     1      34.792 -25.483 -13.697  0.00  0.00    +0.174 C 
ATOM      6  C   UNL     1      34.346 -23.171 -13.567  0.00  0.00    +0.084 C 
ATOM      7  C   UNL     1      33.055 -23.956 -13.389  0.00  0.00    +0.202 C 
ATOM      8  C   UNL     1      37.065 -24.300 -14.881  0.00  0.00    +0.304 C 
ATOM      9  C   UNL     1      35.181 -25.714 -15.147  0.00  0.00    +0.177 C 
ENDROOT
BRANCH   7  12
ATOM     10  O   UNL     1      30.268 -23.896 -12.803  0.00  0.00    -0.252 OA
ATOM     11  O   UNL     1      29.242 -22.381 -17.021  0.00  0.00    -0.270 OA
ATOM     12  N   UNL     1      32.025 -23.553 -14.302  0.00  0.00    -0.219 N 
ATOM     13  N   UNL     1      29.771 -23.140 -14.910  0.00  0.00    -0.236 N 
ATOM     14  C   UNL     1      32.392 -23.157 -15.581  0.00  0.00    +0.071 C 
ATOM     15  C   UNL     1      30.666 -23.557 -13.920  0.00  0.00    +0.315 C 
ATOM     16  C   UNL     1      31.532 -22.759 -16.528  0.00  0.00    +0.047 C 
ATOM     17  C   UNL     1      30.082 -22.736 -16.199  0.00  0.00    +0.250 C 
ATOM     18  C   UNL     1      31.949 -22.337 -17.900  0.00  0.00    +0.037 C 
ATOM     19  H   UNL     1      28.816 -23.135 -14.666  0.00  0.00    +0.159 HD
ENDBRANCH   7  12
BRANCH   8  20
ATOM     20  C   UNL     1      36.931 -23.185 -15.905  0.00  0.00    +0.040 C 
ATOM     21  C   UNL     1      35.897 -23.218 -16.844  0.00  0.00    +0.001 C 
ATOM     22  C   UNL     1      37.840 -22.126 -15.910  0.00  0.00    +0.001 C 
ATOM     23  C   UNL     1      35.774 -22.195 -17.783  0.00  0.00    -0.000 C 
ATOM     24  C   UNL     1      37.717 -21.103 -16.849  0.00  0.00    -0.000 C 
ATOM     25  C   UNL     1      36.684 -21.138 -17.786  0.00  0.00    -0.000 C 
ENDBRANCH   8  20
BRANCH   8  26
ATOM     26  P   UNL     1      38.846 -24.687 -14.643  0.00  0.00    +0.391 P 
ATOM     27  O   UNL     1      39.755 -24.038 -15.638  0.00  0.00    -0.253 OA
BRANCH  26  28
ATOM     28  O   UNL     1      38.870 -26.301 -14.627  0.00  0.00    -0.320 OA
ATOM     29  H   UNL     1      38.009 -26.640 -14.917  0.00  0.00    +0.220 HD
ENDBRANCH  26  28
BRANCH  26  30
ATOM     30  O   UNL     1      39.104 -24.287 -13.101  0.00  0.00    -0.320 OA
ATOM     31  H   UNL     1      39.162 -25.093 -12.564  0.00  0.00    +0.220 HD
ENDBRANCH  26  30
ENDBRANCH   8  26
TORSDOF 5
ENDMDL
MODEL 6
REMARK VINA RESULT:      -6.2      3.501      6.160
REMARK  Name = 5288101
REMARK  5 active torsions:
REMARK  status: ('A' for Active; 'I' for Inactive)
REMARK    1  A    between atoms: C_7  and  N_12
REMARK    2  A    between atoms: C_8  and  C_20
REMARK    3  A    between atoms: C_8  and  P_26
REMARK    4  A    between atoms: P_26  and  O_28
REMARK    5  A    between atoms: P_26  and  O_30
REMARK                            x       y       z     vdW  Elec       q    Type
REMARK                         _______ _______ _______ _____ _____    ______ ____
ROOT
ATOM      1  O   UNL     1      34.189  -8.637 -25.426  0.00  0.00    -0.335 OA
ATOM      2  O   UNL     1      33.894  -7.570 -21.968  0.00  0.00    -0.322 OA
ATOM      3  O   UNL     1      31.763  -7.294 -23.059  0.00  0.00    -0.320 OA
ATOM      4  C   UNL     1      34.493  -8.008 -23.171  0.00  0.00    +0.152 C 
ATOM      5  C   UNL     1      33.693  -7.732 -24.429  0.00  0.00    +0.174 C 
ATOM      6  C   UNL     1      34.748  -9.496 -23.274  0.00  0.00    +0.084 C 
ATOM      7  C   UNL     1      34.956  -9.663 -24.772  0.00  0.00    +0.202 C 
ATOM      8  C   UNL     1      32.475  -7.684 -21.884  0.00  0.00    +0.304 C 
ATOM      9  C   UNL     1      32.209  -7.976 -24.221  0.00  0.00    +0.177 C 
ENDROOT
BRANCH   7  12
ATOM     10  O   UNL     1      35.546 -10.723 -27.349  0.00  0.00    -0.252 OA
ATOM     11  O   UNL     1      33.276 -14.620 -26.453  0.00  0.00    -0.270 OA
ATOM     12  N   UNL     1      34.540 -10.949 -25.254  0.00  0.00    -0.219 N 
ATOM     13  N   UNL     1      34.411 -12.661 -26.889  0.00  0.00    -0.236 N 
ATOM     14  C   UNL     1      33.788 -11.759 -24.415  0.00  0.00    +0.071 C 
ATOM     15  C   UNL     1      34.882 -11.389 -26.551  0.00  0.00    +0.315 C 
ATOM     16  C   UNL     1      33.338 -12.978 -24.741  0.00  0.00    +0.047 C 
ATOM     17  C   UNL     1      33.658 -13.510 -26.092  0.00  0.00    +0.250 C 
ATOM     18  C   UNL     1      32.528 -13.834 -23.821  0.00  0.00    +0.037 C 
ATOM     19  H   UNL     1      34.636 -12.990 -27.790  0.00  0.00    +0.159 HD
ENDBRANCH   7  12
BRANCH   8  20
ATOM     20  C   UNL     1      31.986  -8.959 -21.218  0.00  0.00    +0.040 C 
ATOM     21  C   UNL     1      31.387  -9.962 -21.983  0.00  0.00    +0.001 C 
ATOM     22  C   UNL     1      32.135  -9.132 -19.841  0.00  0.00    +0.001 C 
ATOM     23  C   UNL     1      30.939 -11.134 -21.373  0.00  0.00    -0.000 C 
ATOM     24  C   UNL     1      31.687 -10.303 -19.231  0.00  0.00    -0.000 C 
ATOM     25  C   UNL     1      31.089 -11.303 -19.997  0.00  0.00    -0.000 C 
ENDBRANCH   8  20
BRANCH   8  26
ATOM     26  P   UNL     1      32.097  -6.253 -20.792  0.00  0.00    +0.391 P 
ATOM     27  O   UNL     1      32.825  -6.269 -19.485  0.00  0.00    -0.253 OA
BRANCH  26  28
ATOM     28  O   UNL     1      30.487  -6.284 -20.693  0.00  0.00    -0.320 OA
ATOM     29  H   UNL     1      30.120  -6.665 -21.505  0.00  0.00    +0.220 HD
ENDBRANCH  26  28
BRANCH  26  30
ATOM     30  O   UNL     1      32.397  -4.982 -21.740  0.00  0.00    -0.320 OA
ATOM     31  H   UNL     1      32.574  -5.287 -22.643  0.00  0.00    +0.220 HD
ENDBRANCH  26  30
ENDBRANCH   8  26
TORSDOF 5
ENDMDL
MODEL 7
REMARK VINA RESULT:      -6.0      4.068      7.609
REMARK  Name = 5288101
REMARK  5 active torsions:
REMARK  status: ('A' for Active; 'I' for Inactive)
REMARK    1  A    between atoms: C_7  and  N_12
REMARK    2  A    between atoms: C_8  and  C_20
REMARK    3  A    between atoms: C_8  and  P_26
REMARK    4  A    between atoms: P_26  and  O_28
REMARK    5  A    between atoms: P_26  and  O_30
REMARK                            x       y       z     vdW  Elec       q    Type
REMARK                         _______ _______ _______ _____ _____    ______ ____
ROOT
ATOM      1  O   UNL     1      31.589 -12.291 -20.227  0.00  0.00    -0.335 OA
ATOM      2  O   UNL     1      31.101  -9.768 -22.791  0.00  0.00    -0.322 OA
ATOM      3  O   UNL     1      32.834  -9.033 -21.288  0.00  0.00    -0.320 OA
ATOM      4  C   UNL     1      30.881 -10.935 -22.025  0.00  0.00    +0.152 C 
ATOM      5  C   UNL     1      31.490 -10.920 -20.636  0.00  0.00    +0.174 C 
ATOM      6  C   UNL     1      31.441 -12.216 -22.604  0.00  0.00    +0.084 C 
ATOM      7  C   UNL     1      31.432 -13.128 -21.386  0.00  0.00    +0.202 C 
ATOM      8  C   UNL     1      32.366  -9.129 -22.634  0.00  0.00    +0.304 C 
ATOM      9  C   UNL     1      32.871 -10.290 -20.629  0.00  0.00    +0.177 C 
ENDROOT
BRANCH   7  12
ATOM     10  O   UNL     1      32.257 -14.713 -19.169  0.00  0.00    -0.252 OA
ATOM     11  O   UNL     1      35.475 -16.841 -21.672  0.00  0.00    -0.270 OA
ATOM     12  N   UNL     1      32.479 -14.107 -21.413  0.00  0.00    -0.219 N 
ATOM     13  N   UNL     1      33.857 -15.766 -20.429  0.00  0.00    -0.236 N 
ATOM     14  C   UNL     1      33.160 -14.316 -22.604  0.00  0.00    +0.071 C 
ATOM     15  C   UNL     1      32.818 -14.846 -20.259  0.00  0.00    +0.315 C 
ATOM     16  C   UNL     1      34.156 -15.198 -22.764  0.00  0.00    +0.047 C 
ATOM     17  C   UNL     1      34.569 -16.015 -21.592  0.00  0.00    +0.250 C 
ATOM     18  C   UNL     1      34.876 -15.407 -24.057  0.00  0.00    +0.037 C 
ATOM     19  H   UNL     1      34.112 -16.294 -19.637  0.00  0.00    +0.159 HD
ENDBRANCH   7  12
BRANCH   8  20
ATOM     20  C   UNL     1      33.409  -9.540 -23.659  0.00  0.00    +0.040 C 
ATOM     21  C   UNL     1      34.505  -8.713 -23.914  0.00  0.00    +0.001 C 
ATOM     22  C   UNL     1      33.275 -10.746 -24.348  0.00  0.00    +0.001 C 
ATOM     23  C   UNL     1      35.462  -9.091 -24.855  0.00  0.00    -0.000 C 
ATOM     24  C   UNL     1      34.232 -11.124 -25.289  0.00  0.00    -0.000 C 
ATOM     25  C   UNL     1      35.325 -10.297 -25.543  0.00  0.00    -0.000 C 
ENDBRANCH   8  20
BRANCH   8  26
ATOM     26  P   UNL     1      31.887  -7.379 -22.931  0.00  0.00    +0.391 P 
ATOM     27  O   UNL     1      32.933  -6.565 -23.626  0.00  0.00    -0.253 OA
BRANCH  26  28
ATOM     28  O   UNL     1      31.463  -6.861 -21.464  0.00  0.00    -0.320 OA
ATOM     29  H   UNL     1      31.803  -5.964 -21.325  0.00  0.00    +0.220 HD
ENDBRANCH  26  28
BRANCH  26  30
ATOM     30  O   UNL     1      30.480  -7.514 -23.710  0.00  0.00    -0.320 OA
ATOM     31  H   UNL     1      30.642  -7.571 -24.664  0.00  0.00    +0.220 HD
ENDBRANCH  26  30
ENDBRANCH   8  26
TORSDOF 5
ENDMDL
MODEL 8
REMARK VINA RESULT:      -5.8      7.797     11.869
REMARK  Name = 5288101
REMARK  5 active torsions:
REMARK  status: ('A' for Active; 'I' for Inactive)
REMARK    1  A    between atoms: C_7  and  N_12
REMARK    2  A    between atoms: C_8  and  C_20
REMARK    3  A    between atoms: C_8  and  P_26
REMARK    4  A    between atoms: P_26  and  O_28
REMARK    5  A    between atoms: P_26  and  O_30
REMARK                            x       y       z     vdW  Elec       q    Type
REMARK                         _______ _______ _______ _____ _____    ______ ____
ROOT
ATOM      1  O   UNL     1      35.513 -18.771 -24.088  0.00  0.00    -0.335 OA
ATOM      2  O   UNL     1      35.174 -15.160 -24.240  0.00  0.00    -0.322 OA
ATOM      3  O   UNL     1      33.102 -16.172 -24.938  0.00  0.00    -0.320 OA
ATOM      4  C   UNL     1      35.783 -16.426 -24.089  0.00  0.00    +0.152 C 
ATOM      5  C   UNL     1      35.043 -17.581 -24.736  0.00  0.00    +0.174 C 
ATOM      6  C   UNL     1      35.946 -16.910 -22.664  0.00  0.00    +0.084 C 
ATOM      7  C   UNL     1      36.191 -18.396 -22.877  0.00  0.00    +0.202 C 
ATOM      8  C   UNL     1      33.748 -15.129 -24.209  0.00  0.00    +0.304 C 
ATOM      9  C   UNL     1      33.540 -17.465 -24.550  0.00  0.00    +0.177 C 
ENDROOT
BRANCH   7  12
ATOM     10  O   UNL     1      37.815 -19.554 -20.843  0.00  0.00    -0.252 OA
ATOM     11  O   UNL     1      34.173 -21.467 -18.788  0.00  0.00    -0.270 OA
ATOM     12  N   UNL     1      35.711 -19.203 -21.792  0.00  0.00    -0.219 N 
ATOM     13  N   UNL     1      35.991 -20.502 -19.828  0.00  0.00    -0.236 N 
ATOM     14  C   UNL     1      34.349 -19.454 -21.706  0.00  0.00    +0.071 C 
ATOM     15  C   UNL     1      36.596 -19.735 -20.829  0.00  0.00    +0.315 C 
ATOM     16  C   UNL     1      33.771 -20.189 -20.747  0.00  0.00    +0.047 C 
ATOM     17  C   UNL     1      34.639 -20.783 -19.696  0.00  0.00    +0.250 C 
ATOM     18  C   UNL     1      32.301 -20.446 -20.674  0.00  0.00    +0.037 C 
ATOM     19  H   UNL     1      36.588 -20.885 -19.145  0.00  0.00    +0.159 HD
ENDBRANCH   7  12
BRANCH   8  20
ATOM     20  C   UNL     1      33.158 -14.826 -22.841  0.00  0.00    +0.040 C 
ATOM     21  C   UNL     1      33.071 -15.833 -21.878  0.00  0.00    +0.001 C 
ATOM     22  C   UNL     1      32.703 -13.541 -22.545  0.00  0.00    +0.001 C 
ATOM     23  C   UNL     1      32.531 -15.556 -20.623  0.00  0.00    -0.000 C 
ATOM     24  C   UNL     1      32.162 -13.263 -21.289  0.00  0.00    -0.000 C 
ATOM     25  C   UNL     1      32.076 -14.270 -20.329  0.00  0.00    -0.000 C 
ENDBRANCH   8  20
BRANCH   8  26
ATOM     26  P   UNL     1      33.427 -13.707 -25.330  0.00  0.00    +0.391 P 
ATOM     27  O   UNL     1      34.008 -12.411 -24.860  0.00  0.00    -0.253 OA
BRANCH  26  28
ATOM     28  O   UNL     1      31.823 -13.731 -25.500  0.00  0.00    -0.320 OA
ATOM     29  H   UNL     1      31.410 -13.291 -24.742  0.00  0.00    +0.220 HD
ENDBRANCH  26  28
BRANCH  26  30
ATOM     30  O   UNL     1      33.970 -14.237 -26.754  0.00  0.00    -0.320 OA
ATOM     31  H   UNL     1      33.360 -14.905 -27.104  0.00  0.00    +0.220 HD
ENDBRANCH  26  30
ENDBRANCH   8  26
TORSDOF 5
ENDMDL
MODEL 9
REMARK VINA RESULT:      -5.8     14.329     17.303
REMARK  Name = 5288101
REMARK  5 active torsions:
REMARK  status: ('A' for Active; 'I' for Inactive)
REMARK    1  A    between atoms: C_7  and  N_12
REMARK    2  A    between atoms: C_8  and  C_20
REMARK    3  A    between atoms: C_8  and  P_26
REMARK    4  A    between atoms: P_26  and  O_28
REMARK    5  A    between atoms: P_26  and  O_30
REMARK                            x       y       z     vdW  Elec       q    Type
REMARK                         _______ _______ _______ _____ _____    ______ ____
ROOT
ATOM      1  O   UNL     1      34.640 -22.613 -16.047  0.00  0.00    -0.335 OA
ATOM      2  O   UNL     1      32.035 -24.876 -14.919  0.00  0.00    -0.322 OA
ATOM      3  O   UNL     1      31.735 -22.739 -13.847  0.00  0.00    -0.320 OA
ATOM      4  C   UNL     1      33.209 -24.428 -15.565  0.00  0.00    +0.152 C 
ATOM      5  C   UNL     1      33.802 -23.146 -15.012  0.00  0.00    +0.174 C 
ATOM      6  C   UNL     1      33.066 -24.104 -17.036  0.00  0.00    +0.084 C 
ATOM      7  C   UNL     1      34.313 -23.269 -17.285  0.00  0.00    +0.202 C 
ATOM      8  C   UNL     1      31.128 -23.870 -14.471  0.00  0.00    +0.304 C 
ATOM      9  C   UNL     1      32.729 -22.132 -14.659  0.00  0.00    +0.177 C 
ENDROOT
BRANCH   7  12
ATOM     10  O   UNL     1      31.806 -22.212 -18.126  0.00  0.00    -0.252 OA
ATOM     11  O   UNL     1      33.808 -19.496 -21.250  0.00  0.00    -0.270 OA
ATOM     12  N   UNL     1      34.132 -22.286 -18.312  0.00  0.00    -0.219 N 
ATOM     13  N   UNL     1      32.817 -20.863 -19.680  0.00  0.00    -0.236 N 
ATOM     14  C   UNL     1      35.255 -21.795 -18.965  0.00  0.00    +0.071 C 
ATOM     15  C   UNL     1      32.845 -21.821 -18.662  0.00  0.00    +0.315 C 
ATOM     16  C   UNL     1      35.225 -20.877 -19.940  0.00  0.00    +0.047 C 
ATOM     17  C   UNL     1      33.905 -20.340 -20.362  0.00  0.00    +0.250 C 
ATOM     18  C   UNL     1      36.447 -20.363 -20.630  0.00  0.00    +0.037 C 
ATOM     19  H   UNL     1      31.930 -20.524 -19.941  0.00  0.00    +0.159 HD
ENDBRANCH   7  12
BRANCH   8  20
ATOM     20  C   UNL     1      30.011 -23.552 -15.452  0.00  0.00    +0.040 C 
ATOM     21  C   UNL     1      29.624 -24.499 -16.403  0.00  0.00    +0.001 C 
ATOM     22  C   UNL     1      29.369 -22.314 -15.403  0.00  0.00    +0.001 C 
ATOM     23  C   UNL     1      28.598 -24.207 -17.302  0.00  0.00    -0.000 C 
ATOM     24  C   UNL     1      28.343 -22.023 -16.303  0.00  0.00    -0.000 C 
ATOM     25  C   UNL     1      27.959 -22.969 -17.252  0.00  0.00    -0.000 C 
ENDBRANCH   8  20
BRANCH   8  26
ATOM     26  P   UNL     1      30.414 -24.705 -12.997  0.00  0.00    +0.391 P 
ATOM     27  O   UNL     1      30.135 -23.790 -11.847  0.00  0.00    -0.253 OA
BRANCH  26  28
ATOM     28  O   UNL     1      31.468 -25.891 -12.704  0.00  0.00    -0.320 OA
ATOM     29  H   UNL     1      32.313 -25.688 -13.133  0.00  0.00    +0.220 HD
ENDBRANCH  26  28
BRANCH  26  30
ATOM     30  O   UNL     1      29.131 -25.476 -13.601  0.00  0.00    -0.320 OA
ATOM     31  H   UNL     1      28.320 -25.082 -13.244  0.00  0.00    +0.220 HD
ENDBRANCH  26  30
ENDBRANCH   8  26
TORSDOF 5
ENDMDL
