MODEL 1
REMARK VINA RESULT:      -7.8      0.000      0.000
REMARK  Name = 2564
REMARK  6 active torsions:
REMARK  status: ('A' for Active; 'I' for Inactive)
REMARK    1  A    between atoms: C_1  and  C_3
REMARK    2  A    between atoms: C_1  and  C_10
REMARK    3  A    between atoms: C_1  and  O_15
REMARK    4  A    between atoms: O_15  and  C_16
REMARK    5  A    between atoms: C_16  and  C_17
REMARK    6  A    between atoms: C_17  and  N_18
REMARK                            x       y       z     vdW  Elec       q    Type
REMARK                         _______ _______ _______ _____ _____    ______ ____
ROOT
ATOM      1  C   UNL     1      33.987 -18.121 -22.217  0.00  0.00    +0.177 C 
ENDROOT
BRANCH   1   3
ATOM      2 CL   UNL     1      34.727 -22.692 -18.397  0.00  0.00    -0.082 Cl
ATOM      3  C   UNL     1      34.173 -19.274 -21.254  0.00  0.00    +0.010 C 
ATOM      4  C   UNL     1      33.059 -19.875 -20.697  0.00  0.00    -0.001 C 
ATOM      5  C   UNL     1      35.455 -19.701 -20.952  0.00  0.00    -0.001 C 
ATOM      6  C   UNL     1      33.230 -20.937 -19.810  0.00  0.00    +0.011 C 
ATOM      7  C   UNL     1      35.627 -20.764 -20.064  0.00  0.00    +0.011 C 
ATOM      8  C   UNL     1      34.515 -21.382 -19.492  0.00  0.00    +0.058 C 
ENDBRANCH   1   3
BRANCH   1  10
ATOM      9  N   UNL     1      34.910 -16.101 -21.252  0.00  0.00    -0.245 NA
ATOM     10  C   UNL     1      33.790 -16.791 -21.515  0.00  0.00    +0.090 C 
ATOM     11  C   UNL     1      32.512 -16.398 -21.204  0.00  0.00    +0.018 C 
ATOM     12  C   UNL     1      32.365 -15.174 -20.560  0.00  0.00    +0.003 C 
ATOM     13  C   UNL     1      34.729 -14.917 -20.625  0.00  0.00    +0.099 C 
ATOM     14  C   UNL     1      33.491 -14.413 -20.262  0.00  0.00    +0.021 C 
ENDBRANCH   1  10
BRANCH   1  15
ATOM     15  O   UNL     1      35.067 -18.075 -23.139  0.00  0.00    -0.348 OA
BRANCH  15  16
ATOM     16  C   UNL     1      34.605 -17.948 -24.477  0.00  0.00    +0.120 C 
BRANCH  16  17
ATOM     17  C   UNL     1      34.850 -16.522 -24.945  0.00  0.00    -0.045 C 
BRANCH  17  18
ATOM     18  N   UNL     1      33.606 -15.751 -24.922  0.00  0.00    +0.386 N 
ATOM     19  C   UNL     1      33.143 -15.489 -26.284  0.00  0.00    -0.101 C 
ATOM     20  C   UNL     1      33.798 -14.496 -24.196  0.00  0.00    -0.101 C 
ATOM     21  H   UNL     1      32.896 -16.299 -24.438  0.00  0.00    -0.080 HD
ENDBRANCH  17  18
ENDBRANCH  16  17
ENDBRANCH  15  16
ENDBRANCH   1  15
TORSDOF 6
ENDMDL
MODEL 2
REMARK VINA RESULT:      -7.8      1.457      3.365
REMARK  Name = 2564
REMARK  6 active torsions:
REMARK  status: ('A' for Active; 'I' for Inactive)
REMARK    1  A    between atoms: C_1  and  C_3
REMARK    2  A    between atoms: C_1  and  C_10
REMARK    3  A    between atoms: C_1  and  O_15
REMARK    4  A    between atoms: O_15  and  C_16
REMARK    5  A    between atoms: C_16  and  C_17
REMARK    6  A    between atoms: C_17  and  N_18
REMARK                            x       y       z     vdW  Elec       q    Type
REMARK                         _______ _______ _______ _____ _____    ______ ____
ROOT
ATOM      1  C   UNL     1      34.779 -17.741 -21.534  0.00  0.00    +0.177 C 
ENDROOT
BRANCH   1   3
ATOM      2 CL   UNL     1      33.842 -23.034 -18.862  0.00  0.00    -0.082 Cl
ATOM      3  C   UNL     1      34.542 -19.077 -20.860  0.00  0.00    +0.010 C 
ATOM      4  C   UNL     1      33.244 -19.491 -20.619  0.00  0.00    -0.001 C 
ATOM      5  C   UNL     1      35.631 -19.853 -20.501  0.00  0.00    -0.001 C 
ATOM      6  C   UNL     1      33.027 -20.720 -19.999  0.00  0.00    +0.011 C 
ATOM      7  C   UNL     1      35.413 -21.083 -19.880  0.00  0.00    +0.011 C 
ATOM      8  C   UNL     1      34.111 -21.517 -19.628  0.00  0.00    +0.058 C 
ENDBRANCH   1   3
BRANCH   1  10
ATOM      9  N   UNL     1      34.675 -16.642 -23.689  0.00  0.00    -0.245 NA
ATOM     10  C   UNL     1      34.691 -17.819 -23.046  0.00  0.00    +0.090 C 
ATOM     11  C   UNL     1      34.633 -19.058 -23.636  0.00  0.00    +0.018 C 
ATOM     12  C   UNL     1      34.553 -19.094 -25.024  0.00  0.00    +0.003 C 
ATOM     13  C   UNL     1      34.596 -16.716 -25.036  0.00  0.00    +0.099 C 
ATOM     14  C   UNL     1      34.534 -17.905 -25.745  0.00  0.00    +0.021 C 
ENDBRANCH   1  10
BRANCH   1  15
ATOM     15  O   UNL     1      33.896 -16.763 -21.003  0.00  0.00    -0.348 OA
BRANCH  15  16
ATOM     16  C   UNL     1      34.599 -15.764 -20.277  0.00  0.00    +0.120 C 
BRANCH  16  17
ATOM     17  C   UNL     1      34.644 -14.494 -21.112  0.00  0.00    -0.045 C 
BRANCH  17  18
ATOM     18  N   UNL     1      33.376 -14.293 -21.815  0.00  0.00    +0.386 N 
ATOM     19  C   UNL     1      33.585 -13.511 -23.033  0.00  0.00    -0.101 C 
ATOM     20  C   UNL     1      32.409 -13.630 -20.941  0.00  0.00    -0.101 C 
ATOM     21  H   UNL     1      33.003 -15.205 -22.075  0.00  0.00    -0.080 HD
ENDBRANCH  17  18
ENDBRANCH  16  17
ENDBRANCH  15  16
ENDBRANCH   1  15
TORSDOF 6
ENDMDL
MODEL 3
REMARK VINA RESULT:      -7.7      7.014     10.067
REMARK  Name = 2564
REMARK  6 active torsions:
REMARK  status: ('A' for Active; 'I' for Inactive)
REMARK    1  A    between atoms: C_1  and  C_3
REMARK    2  A    between atoms: C_1  and  C_10
REMARK    3  A    between atoms: C_1  and  O_15
REMARK    4  A    between atoms: O_15  and  C_16
REMARK    5  A    between atoms: C_16  and  C_17
REMARK    6  A    between atoms: C_17  and  N_18
REMARK                            x       y       z     vdW  Elec       q    Type
REMARK                         _______ _______ _______ _____ _____    ______ ____
ROOT
ATOM      1  C   UNL     1      34.295 -24.008 -15.477  0.00  0.00    +0.177 C 
ENDROOT
BRANCH   1   3
ATOM      2 CL   UNL     1      36.412 -20.701 -20.017  0.00  0.00    -0.082 Cl
ATOM      3  C   UNL     1      34.828 -23.173 -16.622  0.00  0.00    +0.010 C 
ATOM      4  C   UNL     1      34.044 -22.991 -17.747  0.00  0.00    -0.001 C 
ATOM      5  C   UNL     1      36.089 -22.611 -16.517  0.00  0.00    -0.001 C 
ATOM      6  C   UNL     1      34.536 -22.223 -18.802  0.00  0.00    +0.011 C 
ATOM      7  C   UNL     1      36.581 -21.842 -17.572  0.00  0.00    +0.011 C 
ATOM      8  C   UNL     1      35.805 -21.649 -18.716  0.00  0.00    +0.058 C 
ENDBRANCH   1   3
BRANCH   1  10
ATOM      9  N   UNL     1      35.915 -25.806 -15.548  0.00  0.00    -0.245 NA
ATOM     10  C   UNL     1      35.369 -24.836 -14.799  0.00  0.00    +0.090 C 
ATOM     11  C   UNL     1      35.700 -24.543 -13.499  0.00  0.00    +0.018 C 
ATOM     12  C   UNL     1      36.690 -25.320 -12.907  0.00  0.00    +0.003 C 
ATOM     13  C   UNL     1      36.872 -26.541 -14.940  0.00  0.00    +0.099 C 
ATOM     14  C   UNL     1      37.292 -26.341 -13.635  0.00  0.00    +0.021 C 
ENDBRANCH   1  10
BRANCH   1  15
ATOM     15  O   UNL     1      33.603 -23.181 -14.551  0.00  0.00    -0.348 OA
BRANCH  15  16
ATOM     16  C   UNL     1      32.302 -23.682 -14.276  0.00  0.00    +0.120 C 
BRANCH  16  17
ATOM     17  C   UNL     1      31.280 -22.801 -14.980  0.00  0.00    -0.045 C 
BRANCH  17  18
ATOM     18  N   UNL     1      30.547 -23.567 -15.988  0.00  0.00    +0.386 N 
ATOM     19  C   UNL     1      29.368 -22.825 -16.434  0.00  0.00    -0.101 C 
ATOM     20  C   UNL     1      30.159 -24.872 -15.456  0.00  0.00    -0.101 C 
ATOM     21  H   UNL     1      31.159 -23.714 -16.790  0.00  0.00    -0.080 HD
ENDBRANCH  17  18
ENDBRANCH  16  17
ENDBRANCH  15  16
ENDBRANCH   1  15
TORSDOF 6
ENDMDL
MODEL 4
REMARK VINA RESULT:      -7.6      5.720      8.876
REMARK  Name = 2564
REMARK  6 active torsions:
REMARK  status: ('A' for Active; 'I' for Inactive)
REMARK    1  A    between atoms: C_1  and  C_3
REMARK    2  A    between atoms: C_1  and  C_10
REMARK    3  A    between atoms: C_1  and  O_15
REMARK    4  A    between atoms: O_15  and  C_16
REMARK    5  A    between atoms: C_16  and  C_17
REMARK    6  A    between atoms: C_17  and  N_18
REMARK                            x       y       z     vdW  Elec       q    Type
REMARK                         _______ _______ _______ _____ _____    ______ ____
ROOT
ATOM      1  C   UNL     1      35.383 -23.008 -15.884  0.00  0.00    +0.177 C 
ENDROOT
BRANCH   1   3
ATOM      2 CL   UNL     1      29.482 -23.799 -15.118  0.00  0.00    -0.082 Cl
ATOM      3  C   UNL     1      33.894 -23.207 -15.690  0.00  0.00    +0.010 C 
ATOM      4  C   UNL     1      33.408 -23.469 -14.422  0.00  0.00    -0.001 C 
ATOM      5  C   UNL     1      33.054 -23.122 -16.787  0.00  0.00    -0.001 C 
ATOM      6  C   UNL     1      32.037 -23.653 -14.244  0.00  0.00    +0.011 C 
ATOM      7  C   UNL     1      31.683 -23.306 -16.609  0.00  0.00    +0.011 C 
ATOM      8  C   UNL     1      31.174 -23.572 -15.337  0.00  0.00    +0.058 C 
ENDBRANCH   1   3
BRANCH   1  10
ATOM      9  N   UNL     1      36.032 -25.324 -15.602  0.00  0.00    -0.245 NA
ATOM     10  C   UNL     1      36.216 -24.063 -15.181  0.00  0.00    +0.090 C 
ATOM     11  C   UNL     1      37.076 -23.665 -14.188  0.00  0.00    +0.018 C 
ATOM     12  C   UNL     1      37.825 -24.656 -13.564  0.00  0.00    +0.003 C 
ATOM     13  C   UNL     1      36.777 -26.260 -14.973  0.00  0.00    +0.099 C 
ATOM     14  C   UNL     1      37.679 -25.982 -13.959  0.00  0.00    +0.021 C 
ENDBRANCH   1  10
BRANCH   1  15
ATOM     15  O   UNL     1      35.689 -22.930 -17.269  0.00  0.00    -0.348 OA
BRANCH  15  16
ATOM     16  C   UNL     1      36.504 -21.803 -17.560  0.00  0.00    +0.120 C 
BRANCH  16  17
ATOM     17  C   UNL     1      36.572 -21.626 -19.069  0.00  0.00    -0.045 C 
BRANCH  17  18
ATOM     18  N   UNL     1      35.727 -20.511 -19.497  0.00  0.00    +0.386 N 
ATOM     19  C   UNL     1      34.405 -20.996 -19.893  0.00  0.00    -0.101 C 
ATOM     20  C   UNL     1      36.358 -19.786 -20.599  0.00  0.00    -0.101 C 
ATOM     21  H   UNL     1      35.615 -19.871 -18.711  0.00  0.00    -0.080 HD
ENDBRANCH  17  18
ENDBRANCH  16  17
ENDBRANCH  15  16
ENDBRANCH   1  15
TORSDOF 6
ENDMDL
MODEL 5
REMARK VINA RESULT:      -7.6      3.428      5.758
REMARK  Name = 2564
REMARK  6 active torsions:
REMARK  status: ('A' for Active; 'I' for Inactive)
REMARK    1  A    between atoms: C_1  and  C_3
REMARK    2  A    between atoms: C_1  and  C_10
REMARK    3  A    between atoms: C_1  and  O_15
REMARK    4  A    between atoms: O_15  and  C_16
REMARK    5  A    between atoms: C_16  and  C_17
REMARK    6  A    between atoms: C_17  and  N_18
REMARK                            x       y       z     vdW  Elec       q    Type
REMARK                         _______ _______ _______ _____ _____    ______ ____
ROOT
ATOM      1  C   UNL     1      33.367 -13.526 -22.802  0.00  0.00    +0.177 C 
ENDROOT
BRANCH   1   3
ATOM      2 CL   UNL     1      36.089 -18.614 -21.151  0.00  0.00    -0.082 Cl
ATOM      3  C   UNL     1      34.053 -14.809 -22.385  0.00  0.00    +0.010 C 
ATOM      4  C   UNL     1      34.038 -15.181 -21.053  0.00  0.00    -0.001 C 
ATOM      5  C   UNL     1      34.681 -15.582 -23.348  0.00  0.00    -0.001 C 
ATOM      6  C   UNL     1      34.670 -16.363 -20.669  0.00  0.00    +0.011 C 
ATOM      7  C   UNL     1      35.313 -16.765 -22.963  0.00  0.00    +0.011 C 
ATOM      8  C   UNL     1      35.309 -17.156 -21.624  0.00  0.00    +0.058 C 
ENDBRANCH   1   3
BRANCH   1  10
ATOM      9  N   UNL     1      32.815 -14.319 -25.023  0.00  0.00    -0.245 NA
ATOM     10  C   UNL     1      33.357 -13.323 -24.305  0.00  0.00    +0.090 C 
ATOM     11  C   UNL     1      33.892 -12.165 -24.814  0.00  0.00    +0.018 C 
ATOM     12  C   UNL     1      33.867 -12.011 -26.196  0.00  0.00    +0.003 C 
ATOM     13  C   UNL     1      32.808 -14.134 -26.361  0.00  0.00    +0.099 C 
ATOM     14  C   UNL     1      33.316 -13.010 -26.992  0.00  0.00    +0.021 C 
ENDBRANCH   1  10
BRANCH   1  15
ATOM     15  O   UNL     1      32.058 -13.471 -22.254  0.00  0.00    -0.348 OA
BRANCH  15  16
ATOM     16  C   UNL     1      31.915 -12.381 -21.354  0.00  0.00    +0.120 C 
BRANCH  16  17
ATOM     17  C   UNL     1      31.247 -11.227 -22.086  0.00  0.00    -0.045 C 
BRANCH  17  18
ATOM     18  N   UNL     1      32.114 -10.048 -22.091  0.00  0.00    +0.386 N 
ATOM     19  C   UNL     1      31.955  -9.293 -20.848  0.00  0.00    -0.101 C 
ATOM     20  C   UNL     1      31.816  -9.202 -23.246  0.00  0.00    -0.101 C 
ATOM     21  H   UNL     1      33.082 -10.360 -22.160  0.00  0.00    -0.080 HD
ENDBRANCH  17  18
ENDBRANCH  16  17
ENDBRANCH  15  16
ENDBRANCH   1  15
TORSDOF 6
ENDMDL
MODEL 6
REMARK VINA RESULT:      -7.5      7.415     10.552
REMARK  Name = 2564
REMARK  6 active torsions:
REMARK  status: ('A' for Active; 'I' for Inactive)
REMARK    1  A    between atoms: C_1  and  C_3
REMARK    2  A    between atoms: C_1  and  C_10
REMARK    3  A    between atoms: C_1  and  O_15
REMARK    4  A    between atoms: O_15  and  C_16
REMARK    5  A    between atoms: C_16  and  C_17
REMARK    6  A    between atoms: C_17  and  N_18
REMARK                            x       y       z     vdW  Elec       q    Type
REMARK                         _______ _______ _______ _____ _____    ______ ____
ROOT
ATOM      1  C   UNL     1      34.575 -23.847 -14.989  0.00  0.00    +0.177 C 
ENDROOT
BRANCH   1   3
ATOM      2 CL   UNL     1      35.632 -21.134 -20.239  0.00  0.00    -0.082 Cl
ATOM      3  C   UNL     1      34.842 -23.163 -16.314  0.00  0.00    +0.010 C 
ATOM      4  C   UNL     1      36.044 -22.503 -16.503  0.00  0.00    -0.001 C 
ATOM      5  C   UNL     1      33.878 -23.213 -17.306  0.00  0.00    -0.001 C 
ATOM      6  C   UNL     1      36.289 -21.873 -17.722  0.00  0.00    +0.011 C 
ATOM      7  C   UNL     1      34.124 -22.582 -18.526  0.00  0.00    +0.011 C 
ATOM      8  C   UNL     1      35.329 -21.911 -18.734  0.00  0.00    +0.058 C 
ENDBRANCH   1   3
BRANCH   1  10
ATOM      9  N   UNL     1      32.661 -25.020 -14.080  0.00  0.00    -0.245 NA
ATOM     10  C   UNL     1      33.103 -23.877 -14.627  0.00  0.00    +0.090 C 
ATOM     11  C   UNL     1      32.343 -22.761 -14.879  0.00  0.00    +0.018 C 
ATOM     12  C   UNL     1      30.997 -22.821 -14.535  0.00  0.00    +0.003 C 
ATOM     13  C   UNL     1      31.349 -25.041 -13.759  0.00  0.00    +0.099 C 
ATOM     14  C   UNL     1      30.483 -23.980 -13.964  0.00  0.00    +0.021 C 
ENDBRANCH   1  10
BRANCH   1  15
ATOM     15  O   UNL     1      35.145 -25.148 -14.988  0.00  0.00    -0.348 OA
BRANCH  15  16
ATOM     16  C   UNL     1      36.317 -25.203 -14.185  0.00  0.00    +0.120 C 
BRANCH  16  17
ATOM     17  C   UNL     1      37.357 -26.055 -14.895  0.00  0.00    -0.045 C 
BRANCH  17  18
ATOM     18  N   UNL     1      38.516 -26.281 -14.031  0.00  0.00    +0.386 N 
ATOM     19  C   UNL     1      38.315 -25.643 -12.731  0.00  0.00    -0.101 C 
ATOM     20  C   UNL     1      39.732 -25.775 -14.667  0.00  0.00    -0.101 C 
ATOM     21  H   UNL     1      38.620 -27.285 -13.887  0.00  0.00    -0.080 HD
ENDBRANCH  17  18
ENDBRANCH  16  17
ENDBRANCH  15  16
ENDBRANCH   1  15
TORSDOF 6
ENDMDL
MODEL 7
REMARK VINA RESULT:      -7.4      6.833      9.812
REMARK  Name = 2564
REMARK  6 active torsions:
REMARK  status: ('A' for Active; 'I' for Inactive)
REMARK    1  A    between atoms: C_1  and  C_3
REMARK    2  A    between atoms: C_1  and  C_10
REMARK    3  A    between atoms: C_1  and  O_15
REMARK    4  A    between atoms: O_15  and  C_16
REMARK    5  A    between atoms: C_16  and  C_17
REMARK    6  A    between atoms: C_17  and  N_18
REMARK                            x       y       z     vdW  Elec       q    Type
REMARK                         _______ _______ _______ _____ _____    ______ ____
ROOT
ATOM      1  C   UNL     1      34.546 -23.673 -15.706  0.00  0.00    +0.177 C 
ENDROOT
BRANCH   1   3
ATOM      2 CL   UNL     1      28.686 -22.438 -15.298  0.00  0.00    -0.082 Cl
ATOM      3  C   UNL     1      33.068 -23.361 -15.603  0.00  0.00    +0.010 C 
ATOM      4  C   UNL     1      32.493 -23.219 -14.352  0.00  0.00    -0.001 C 
ATOM      5  C   UNL     1      32.325 -23.224 -16.762  0.00  0.00    -0.001 C 
ATOM      6  C   UNL     1      31.132 -22.933 -14.257  0.00  0.00    +0.011 C 
ATOM      7  C   UNL     1      30.962 -22.937 -16.667  0.00  0.00    +0.011 C 
ATOM      8  C   UNL     1      30.365 -22.792 -15.415  0.00  0.00    +0.058 C 
ENDBRANCH   1   3
BRANCH   1  10
ATOM      9  N   UNL     1      34.661 -22.821 -17.970  0.00  0.00    -0.245 NA
ATOM     10  C   UNL     1      35.250 -22.847 -16.765  0.00  0.00    +0.090 C 
ATOM     11  C   UNL     1      36.413 -22.200 -16.425  0.00  0.00    +0.018 C 
ATOM     12  C   UNL     1      37.034 -21.451 -17.419  0.00  0.00    +0.003 C 
ATOM     13  C   UNL     1      35.293 -22.084 -18.910  0.00  0.00    +0.099 C 
ATOM     14  C   UNL     1      36.469 -21.386 -18.688  0.00  0.00    +0.021 C 
ENDBRANCH   1  10
BRANCH   1  15
ATOM     15  O   UNL     1      35.163 -23.537 -14.434  0.00  0.00    -0.348 OA
BRANCH  15  16
ATOM     16  C   UNL     1      35.658 -24.783 -13.959  0.00  0.00    +0.120 C 
BRANCH  16  17
ATOM     17  C   UNL     1      37.176 -24.718 -13.908  0.00  0.00    -0.045 C 
BRANCH  17  18
ATOM     18  N   UNL     1      37.763 -25.475 -15.014  0.00  0.00    +0.386 N 
ATOM     19  C   UNL     1      37.001 -26.701 -15.254  0.00  0.00    -0.101 C 
ATOM     20  C   UNL     1      39.162 -25.790 -14.731  0.00  0.00    -0.101 C 
ATOM     21  H   UNL     1      37.724 -24.901 -15.855  0.00  0.00    -0.080 HD
ENDBRANCH  17  18
ENDBRANCH  16  17
ENDBRANCH  15  16
ENDBRANCH   1  15
TORSDOF 6
ENDMDL
MODEL 8
REMARK VINA RESULT:      -7.4      7.324     10.252
REMARK  Name = 2564
REMARK  6 active torsions:
REMARK  status: ('A' for Active; 'I' for Inactive)
REMARK    1  A    between atoms: C_1  and  C_3
REMARK    2  A    between atoms: C_1  and  C_10
REMARK    3  A    between atoms: C_1  and  O_15
REMARK    4  A    between atoms: O_15  and  C_16
REMARK    5  A    between atoms: C_16  and  C_17
REMARK    6  A    between atoms: C_17  and  N_18
REMARK                            x       y       z     vdW  Elec       q    Type
REMARK                         _______ _______ _______ _____ _____    ______ ____
ROOT
ATOM      1  C   UNL     1      32.969  -9.415 -23.064  0.00  0.00    +0.177 C 
ENDROOT
BRANCH   1   3
ATOM      2 CL   UNL     1      31.182  -4.102 -25.211  0.00  0.00    -0.082 Cl
ATOM      3  C   UNL     1      32.518  -8.075 -23.606  0.00  0.00    +0.010 C 
ATOM      4  C   UNL     1      33.470  -7.157 -24.014  0.00  0.00    -0.001 C 
ATOM      5  C   UNL     1      31.164  -7.798 -23.681  0.00  0.00    -0.001 C 
ATOM      6  C   UNL     1      33.055  -5.923 -24.513  0.00  0.00    +0.011 C 
ATOM      7  C   UNL     1      30.749  -6.563 -24.181  0.00  0.00    +0.011 C 
ATOM      8  C   UNL     1      31.694  -5.625 -24.596  0.00  0.00    +0.058 C 
ENDBRANCH   1   3
BRANCH   1  10
ATOM      9  N   UNL     1      32.455  -8.986 -20.737  0.00  0.00    -0.245 NA
ATOM     10  C   UNL     1      32.256  -9.803 -21.783  0.00  0.00    +0.090 C 
ATOM     11  C   UNL     1      31.478 -10.934 -21.782  0.00  0.00    +0.018 C 
ATOM     12  C   UNL     1      30.838 -11.261 -20.591  0.00  0.00    +0.003 C 
ATOM     13  C   UNL     1      31.818  -9.336 -19.597  0.00  0.00    +0.099 C 
ATOM     14  C   UNL     1      31.006 -10.452 -19.473  0.00  0.00    +0.021 C 
ENDBRANCH   1  10
BRANCH   1  15
ATOM     15  O   UNL     1      32.837 -10.415 -24.064  0.00  0.00    -0.348 OA
BRANCH  15  16
ATOM     16  C   UNL     1      34.087 -11.025 -24.359  0.00  0.00    +0.120 C 
BRANCH  16  17
ATOM     17  C   UNL     1      33.850 -12.195 -25.301  0.00  0.00    -0.045 C 
BRANCH  17  18
ATOM     18  N   UNL     1      33.210 -13.305 -24.595  0.00  0.00    +0.386 N 
ATOM     19  C   UNL     1      33.987 -13.672 -23.411  0.00  0.00    -0.101 C 
ATOM     20  C   UNL     1      33.059 -14.456 -25.484  0.00  0.00    -0.101 C 
ATOM     21  H   UNL     1      32.283 -13.006 -24.295  0.00  0.00    -0.080 HD
ENDBRANCH  17  18
ENDBRANCH  16  17
ENDBRANCH  15  16
ENDBRANCH   1  15
TORSDOF 6
ENDMDL
MODEL 9
REMARK VINA RESULT:      -7.4      7.331     10.204
REMARK  Name = 2564
REMARK  6 active torsions:
REMARK  status: ('A' for Active; 'I' for Inactive)
REMARK    1  A    between atoms: C_1  and  C_3
REMARK    2  A    between atoms: C_1  and  C_10
REMARK    3  A    between atoms: C_1  and  O_15
REMARK    4  A    between atoms: O_15  and  C_16
REMARK    5  A    between atoms: C_16  and  C_17
REMARK    6  A    between atoms: C_17  and  N_18
REMARK                            x       y       z     vdW  Elec       q    Type
REMARK                         _______ _______ _______ _____ _____    ______ ____
ROOT
ATOM      1  C   UNL     1      32.965  -9.406 -23.077  0.00  0.00    +0.177 C 
ENDROOT
BRANCH   1   3
ATOM      2 CL   UNL     1      31.168  -4.091 -25.210  0.00  0.00    -0.082 Cl
ATOM      3  C   UNL     1      32.512  -8.065 -23.615  0.00  0.00    +0.010 C 
ATOM      4  C   UNL     1      31.158  -7.788 -23.681  0.00  0.00    -0.001 C 
ATOM      5  C   UNL     1      33.462  -7.148 -24.028  0.00  0.00    -0.001 C 
ATOM      6  C   UNL     1      30.740  -6.553 -24.176  0.00  0.00    +0.011 C 
ATOM      7  C   UNL     1      33.044  -5.912 -24.524  0.00  0.00    +0.011 C 
ATOM      8  C   UNL     1      31.683  -5.615 -24.599  0.00  0.00    +0.058 C 
ENDBRANCH   1   3
BRANCH   1  10
ATOM      9  N   UNL     1      32.461  -8.990 -20.745  0.00  0.00    -0.245 NA
ATOM     10  C   UNL     1      32.255  -9.799 -21.796  0.00  0.00    +0.090 C 
ATOM     11  C   UNL     1      31.473 -10.928 -21.799  0.00  0.00    +0.018 C 
ATOM     12  C   UNL     1      30.836 -11.260 -20.609  0.00  0.00    +0.003 C 
ATOM     13  C   UNL     1      31.826  -9.344 -19.606  0.00  0.00    +0.099 C 
ATOM     14  C   UNL     1      31.010 -10.457 -19.486  0.00  0.00    +0.021 C 
ENDBRANCH   1  10
BRANCH   1  15
ATOM     15  O   UNL     1      32.835 -10.404 -24.080  0.00  0.00    -0.348 OA
BRANCH  15  16
ATOM     16  C   UNL     1      34.086 -11.008 -24.380  0.00  0.00    +0.120 C 
BRANCH  16  17
ATOM     17  C   UNL     1      33.848 -12.192 -25.304  0.00  0.00    -0.045 C 
BRANCH  17  18
ATOM     18  N   UNL     1      33.210 -13.292 -24.580  0.00  0.00    +0.386 N 
ATOM     19  C   UNL     1      33.983 -13.632 -23.386  0.00  0.00    -0.101 C 
ATOM     20  C   UNL     1      33.069 -14.460 -25.448  0.00  0.00    -0.101 C 
ATOM     21  H   UNL     1      32.280 -12.991 -24.290  0.00  0.00    -0.080 HD
ENDBRANCH  17  18
ENDBRANCH  16  17
ENDBRANCH  15  16
ENDBRANCH   1  15
TORSDOF 6
ENDMDL
