MODEL 1
REMARK VINA RESULT:     -10.9      0.000      0.000
REMARK  Name = 1613
REMARK  6 active torsions:
REMARK  status: ('A' for Active; 'I' for Inactive)
REMARK    1  A    between atoms: N_2  and  C_12
REMARK    2  A    between atoms: C_6  and  C_26
REMARK    3  A    between atoms: C_12  and  C_15
REMARK    4  A    between atoms: C_19  and  C_25
REMARK    5  A    between atoms: C_26  and  C_28
REMARK    6  A    between atoms: C_28  and  O_29
REMARK                            x       y       z     vdW  Elec       q    Type
REMARK                         _______ _______ _______ _____ _____    ______ ____
ROOT
ATOM      1  O   UNL     1      33.822 -15.697 -26.591  0.00  0.00    -0.266 OA
ATOM      2  N   UNL     1      33.706 -14.183 -24.835  0.00  0.00    -0.209 N 
ATOM      3  N   UNL     1      33.824 -13.908 -23.505  0.00  0.00    -0.170 NA
ATOM      4  C   UNL     1      34.423 -16.238 -23.106  0.00  0.00    +0.020 A 
ATOM      5  C   UNL     1      34.304 -16.518 -24.464  0.00  0.00    +0.059 A 
ATOM      6  C   UNL     1      34.157 -14.852 -22.684  0.00  0.00    +0.090 A 
ATOM      7  C   UNL     1      33.925 -15.439 -25.393  0.00  0.00    +0.277 A 
ATOM      8  C   UNL     1      34.780 -17.250 -22.211  0.00  0.00    +0.001 C 
ATOM      9  C   UNL     1      34.543 -17.813 -24.937  0.00  0.00    +0.005 C 
ATOM     10  C   UNL     1      35.018 -18.542 -22.683  0.00  0.00    +0.000 C 
ATOM     11  C   UNL     1      34.900 -18.823 -24.043  0.00  0.00    +0.000 C 
ENDROOT
BRANCH   2  12
ATOM     12  C   UNL     1      33.327 -13.045 -25.657  0.00  0.00    +0.196 C 
BRANCH  12  15
ATOM     13  S   UNL     1      34.695 -10.689 -25.265  0.00  0.00    -0.074 S 
ATOM     14  N   UNL     1      32.676 -11.474 -23.865  0.00  0.00    -0.401 NA
ATOM     15  C   UNL     1      33.458 -11.783 -24.858  0.00  0.00    +0.159 C 
ATOM     16  C   UNL     1      33.069 -10.247 -23.349  0.00  0.00    +0.123 C 
ATOM     17  C   UNL     1      34.164  -9.658 -23.989  0.00  0.00    +0.128 C 
ATOM     18  C   UNL     1      32.472  -9.569 -22.266  0.00  0.00    +0.033 C 
ATOM     19  C   UNL     1      32.979  -8.333 -21.856  0.00  0.00    +0.073 C 
ATOM     20  C   UNL     1      34.680  -8.416 -23.583  0.00  0.00    -0.008 C 
ATOM     21  C   UNL     1      34.070  -7.766 -22.508  0.00  0.00    +0.001 C 
BRANCH  19  25
ATOM     22  F   UNL     1      33.245  -7.048 -19.856  0.00  0.00    -0.166 F 
ATOM     23  F   UNL     1      31.522  -6.597 -21.093  0.00  0.00    -0.166 F 
ATOM     24  F   UNL     1      31.577  -8.440 -19.940  0.00  0.00    -0.166 F 
ATOM     25  C   UNL     1      32.345  -7.618 -20.711  0.00  0.00    +0.419 C 
ENDBRANCH  19  25
ENDBRANCH  12  15
ENDBRANCH   2  12
BRANCH   6  26
ATOM     26  C   UNL     1      34.272 -14.494 -21.221  0.00  0.00    +0.157 C 
BRANCH  26  28
ATOM     27  O   UNL     1      32.411 -14.999 -19.744  0.00  0.00    -0.250 OA
ATOM     28  C   UNL     1      32.944 -14.276 -20.572  0.00  0.00    +0.320 C 
BRANCH  28  29
ATOM     29  O   UNL     1      32.391 -13.130 -21.045  0.00  0.00    -0.480 OA
ATOM     30  H   UNL     1      32.915 -12.358 -21.130  0.00  0.00    +0.295 HD
ENDBRANCH  28  29
ENDBRANCH  26  28
ENDBRANCH   6  26
TORSDOF 6
ENDMDL
MODEL 2
REMARK VINA RESULT:     -10.3      2.607      4.161
REMARK  Name = 1613
REMARK  6 active torsions:
REMARK  status: ('A' for Active; 'I' for Inactive)
REMARK    1  A    between atoms: N_2  and  C_12
REMARK    2  A    between atoms: C_6  and  C_26
REMARK    3  A    between atoms: C_12  and  C_15
REMARK    4  A    between atoms: C_19  and  C_25
REMARK    5  A    between atoms: C_26  and  C_28
REMARK    6  A    between atoms: C_28  and  O_29
REMARK                            x       y       z     vdW  Elec       q    Type
REMARK                         _______ _______ _______ _____ _____    ______ ____
ROOT
ATOM      1  O   UNL     1      32.516 -14.669 -19.867  0.00  0.00    -0.266 OA
ATOM      2  N   UNL     1      32.141 -13.069 -21.506  0.00  0.00    -0.209 N 
ATOM      3  N   UNL     1      32.356 -12.601 -22.768  0.00  0.00    -0.170 NA
ATOM      4  C   UNL     1      33.802 -14.515 -23.201  0.00  0.00    +0.020 A 
ATOM      5  C   UNL     1      33.582 -14.994 -21.914  0.00  0.00    +0.059 A 
ATOM      6  C   UNL     1      33.126 -13.260 -23.572  0.00  0.00    +0.090 A 
ATOM      7  C   UNL     1      32.703 -14.238 -21.003  0.00  0.00    +0.277 A 
ATOM      8  C   UNL     1      34.633 -15.220 -24.077  0.00  0.00    +0.001 C 
ATOM      9  C   UNL     1      34.191 -16.182 -21.492  0.00  0.00    +0.005 C 
ATOM     10  C   UNL     1      35.241 -16.404 -23.656  0.00  0.00    +0.000 C 
ATOM     11  C   UNL     1      35.020 -16.884 -22.367  0.00  0.00    +0.000 C 
ENDROOT
BRANCH   2  12
ATOM     12  C   UNL     1      31.261 -12.243 -20.696  0.00  0.00    +0.196 C 
BRANCH  12  15
ATOM     13  S   UNL     1      32.032  -9.776 -19.748  0.00  0.00    -0.074 S 
ATOM     14  N   UNL     1      31.339 -10.272 -22.183  0.00  0.00    -0.401 NA
ATOM     15  C   UNL     1      31.506 -10.797 -21.004  0.00  0.00    +0.159 C 
ATOM     16  C   UNL     1      31.652  -8.922 -22.122  0.00  0.00    +0.123 C 
ATOM     17  C   UNL     1      32.055  -8.462 -20.864  0.00  0.00    +0.128 C 
ATOM     18  C   UNL     1      31.598  -8.005 -23.194  0.00  0.00    +0.033 C 
ATOM     19  C   UNL     1      31.945  -6.668 -22.981  0.00  0.00    +0.073 C 
ATOM     20  C   UNL     1      32.405  -7.120 -20.643  0.00  0.00    -0.008 C 
ATOM     21  C   UNL     1      32.343  -6.233 -21.721  0.00  0.00    +0.001 C 
BRANCH  19  25
ATOM     22  F   UNL     1      30.759  -5.817 -24.877  0.00  0.00    -0.166 F 
ATOM     23  F   UNL     1      31.917  -4.394 -23.721  0.00  0.00    -0.166 F 
ATOM     24  F   UNL     1      32.931  -5.847 -24.982  0.00  0.00    -0.166 F 
ATOM     25  C   UNL     1      31.887  -5.701 -24.116  0.00  0.00    +0.419 C 
ENDBRANCH  19  25
ENDBRANCH  12  15
ENDBRANCH   2  12
BRANCH   6  26
ATOM     26  C   UNL     1      33.331 -12.697 -24.959  0.00  0.00    +0.157 C 
BRANCH  26  28
ATOM     27  O   UNL     1      34.877 -11.080 -25.906  0.00  0.00    -0.250 OA
ATOM     28  C   UNL     1      34.209 -11.488 -24.969  0.00  0.00    +0.320 C 
BRANCH  28  29
ATOM     29  O   UNL     1      34.164 -10.886 -23.753  0.00  0.00    -0.480 OA
ATOM     30  H   UNL     1      34.958 -10.705 -23.290  0.00  0.00    +0.295 HD
ENDBRANCH  28  29
ENDBRANCH  26  28
ENDBRANCH   6  26
TORSDOF 6
ENDMDL
MODEL 3
REMARK VINA RESULT:     -10.3      2.202      3.830
REMARK  Name = 1613
REMARK  6 active torsions:
REMARK  status: ('A' for Active; 'I' for Inactive)
REMARK    1  A    between atoms: N_2  and  C_12
REMARK    2  A    between atoms: C_6  and  C_26
REMARK    3  A    between atoms: C_12  and  C_15
REMARK    4  A    between atoms: C_19  and  C_25
REMARK    5  A    between atoms: C_26  and  C_28
REMARK    6  A    between atoms: C_28  and  O_29
REMARK                            x       y       z     vdW  Elec       q    Type
REMARK                         _______ _______ _______ _____ _____    ______ ____
ROOT
ATOM      1  O   UNL     1      33.406 -14.327 -20.829  0.00  0.00    -0.266 OA
ATOM      2  N   UNL     1      32.453 -13.391 -22.727  0.00  0.00    -0.209 N 
ATOM      3  N   UNL     1      32.266 -13.395 -24.077  0.00  0.00    -0.170 NA
ATOM      4  C   UNL     1      33.692 -15.366 -24.239  0.00  0.00    +0.020 A 
ATOM      5  C   UNL     1      33.882 -15.363 -22.861  0.00  0.00    +0.059 A 
ATOM      6  C   UNL     1      32.835 -14.307 -24.799  0.00  0.00    +0.090 A 
ATOM      7  C   UNL     1      33.231 -14.322 -22.046  0.00  0.00    +0.277 A 
ATOM      8  C   UNL     1      34.303 -16.346 -25.028  0.00  0.00    +0.001 C 
ATOM      9  C   UNL     1      34.684 -16.340 -22.260  0.00  0.00    +0.005 C 
ATOM     10  C   UNL     1      35.103 -17.320 -24.428  0.00  0.00    +0.000 C 
ATOM     11  C   UNL     1      35.293 -17.317 -23.048  0.00  0.00    +0.000 C 
ENDROOT
BRANCH   2  12
ATOM     12  C   UNL     1      31.766 -12.319 -22.024  0.00  0.00    +0.196 C 
BRANCH  12  15
ATOM     13  S   UNL     1      33.785 -10.833 -23.162  0.00  0.00    -0.074 S 
ATOM     14  N   UNL     1      31.411  -9.959 -22.661  0.00  0.00    -0.401 NA
ATOM     15  C   UNL     1      32.192 -10.997 -22.586  0.00  0.00    +0.159 C 
ATOM     16  C   UNL     1      32.114  -8.907 -23.229  0.00  0.00    +0.123 C 
ATOM     17  C   UNL     1      33.439  -9.195 -23.572  0.00  0.00    +0.128 C 
ATOM     18  C   UNL     1      31.615  -7.610 -23.480  0.00  0.00    +0.033 C 
ATOM     19  C   UNL     1      32.446  -6.648 -24.060  0.00  0.00    +0.073 C 
ATOM     20  C   UNL     1      34.279  -8.233 -24.156  0.00  0.00    -0.008 C 
ATOM     21  C   UNL     1      33.760  -6.958 -24.394  0.00  0.00    +0.001 C 
BRANCH  19  25
ATOM     22  F   UNL     1      32.681  -4.554 -25.193  0.00  0.00    -0.166 F 
ATOM     23  F   UNL     1      30.662  -5.274 -24.866  0.00  0.00    -0.166 F 
ATOM     24  F   UNL     1      31.829  -4.523 -23.192  0.00  0.00    -0.166 F 
ATOM     25  C   UNL     1      31.916  -5.278 -24.325  0.00  0.00    +0.419 C 
ENDBRANCH  19  25
ENDBRANCH  12  15
ENDBRANCH   2  12
BRANCH   6  26
ATOM     26  C   UNL     1      32.596 -14.265 -26.290  0.00  0.00    +0.157 C 
BRANCH  26  28
ATOM     27  O   UNL     1      34.142 -13.557 -28.024  0.00  0.00    -0.250 OA
ATOM     28  C   UNL     1      33.519 -13.329 -26.998  0.00  0.00    +0.320 C 
BRANCH  28  29
ATOM     29  O   UNL     1      33.576 -12.152 -26.324  0.00  0.00    -0.480 OA
ATOM     30  H   UNL     1      33.727 -12.148 -25.399  0.00  0.00    +0.295 HD
ENDBRANCH  28  29
ENDBRANCH  26  28
ENDBRANCH   6  26
TORSDOF 6
ENDMDL
MODEL 4
REMARK VINA RESULT:     -10.2      1.799      2.357
REMARK  Name = 1613
REMARK  6 active torsions:
REMARK  status: ('A' for Active; 'I' for Inactive)
REMARK    1  A    between atoms: N_2  and  C_12
REMARK    2  A    between atoms: C_6  and  C_26
REMARK    3  A    between atoms: C_12  and  C_15
REMARK    4  A    between atoms: C_19  and  C_25
REMARK    5  A    between atoms: C_26  and  C_28
REMARK    6  A    between atoms: C_28  and  O_29
REMARK                            x       y       z     vdW  Elec       q    Type
REMARK                         _______ _______ _______ _____ _____    ______ ____
ROOT
ATOM      1  O   UNL     1      34.511 -17.213 -25.826  0.00  0.00    -0.266 OA
ATOM      2  N   UNL     1      33.999 -15.500 -24.346  0.00  0.00    -0.209 N 
ATOM      3  N   UNL     1      33.910 -15.033 -23.069  0.00  0.00    -0.170 NA
ATOM      4  C   UNL     1      34.704 -17.190 -22.255  0.00  0.00    +0.020 A 
ATOM      5  C   UNL     1      34.796 -17.667 -23.558  0.00  0.00    +0.059 A 
ATOM      6  C   UNL     1      34.234 -15.804 -22.081  0.00  0.00    +0.090 A 
ATOM      7  C   UNL     1      34.427 -16.782 -24.678  0.00  0.00    +0.277 A 
ATOM      8  C   UNL     1      35.050 -18.015 -21.181  0.00  0.00    +0.001 C 
ATOM      9  C   UNL     1      35.236 -18.973 -23.799  0.00  0.00    +0.005 C 
ATOM     10  C   UNL     1      35.489 -19.319 -21.421  0.00  0.00    +0.000 C 
ATOM     11  C   UNL     1      35.582 -19.796 -22.727  0.00  0.00    +0.000 C 
ENDROOT
BRANCH   2  12
ATOM     12  C   UNL     1      33.608 -14.544 -25.369  0.00  0.00    +0.196 C 
BRANCH  12  15
ATOM     13  S   UNL     1      32.286 -12.982 -23.528  0.00  0.00    -0.074 S 
ATOM     14  N   UNL     1      34.152 -12.150 -25.101  0.00  0.00    -0.401 NA
ATOM     15  C   UNL     1      33.449 -13.187 -24.753  0.00  0.00    +0.159 C 
ATOM     16  C   UNL     1      33.755 -11.061 -24.339  0.00  0.00    +0.123 C 
ATOM     17  C   UNL     1      32.738 -11.322 -23.415  0.00  0.00    +0.128 C 
ATOM     18  C   UNL     1      34.280  -9.752 -24.417  0.00  0.00    +0.033 C 
ATOM     19  C   UNL     1      33.778  -8.753 -23.580  0.00  0.00    +0.073 C 
ATOM     20  C   UNL     1      32.229 -10.323 -22.571  0.00  0.00    -0.008 C 
ATOM     21  C   UNL     1      32.765  -9.036 -22.669  0.00  0.00    +0.001 C 
BRANCH  19  25
ATOM     22  F   UNL     1      35.535  -7.225 -23.032  0.00  0.00    -0.166 F 
ATOM     23  F   UNL     1      34.553  -6.949 -24.946  0.00  0.00    -0.166 F 
ATOM     24  F   UNL     1      33.509  -6.439 -23.108  0.00  0.00    -0.166 F 
ATOM     25  C   UNL     1      34.334  -7.371 -23.665  0.00  0.00    +0.419 C 
ENDBRANCH  19  25
ENDBRANCH  12  15
ENDBRANCH   2  12
BRANCH   6  26
ATOM     26  C   UNL     1      34.116 -15.237 -20.686  0.00  0.00    +0.157 C 
BRANCH  26  28
ATOM     27  O   UNL     1      32.435 -13.657 -19.925  0.00  0.00    -0.250 OA
ATOM     28  C   UNL     1      32.738 -14.752 -20.373  0.00  0.00    +0.320 C 
BRANCH  28  29
ATOM     29  O   UNL     1      31.838 -15.727 -20.663  0.00  0.00    -0.480 OA
ATOM     30  H   UNL     1      32.074 -16.426 -21.239  0.00  0.00    +0.295 HD
ENDBRANCH  28  29
ENDBRANCH  26  28
ENDBRANCH   6  26
TORSDOF 6
ENDMDL
MODEL 5
REMARK VINA RESULT:     -10.1      4.589      7.914
REMARK  Name = 1613
REMARK  6 active torsions:
REMARK  status: ('A' for Active; 'I' for Inactive)
REMARK    1  A    between atoms: N_2  and  C_12
REMARK    2  A    between atoms: C_6  and  C_26
REMARK    3  A    between atoms: C_12  and  C_15
REMARK    4  A    between atoms: C_19  and  C_25
REMARK    5  A    between atoms: C_26  and  C_28
REMARK    6  A    between atoms: C_28  and  O_29
REMARK                            x       y       z     vdW  Elec       q    Type
REMARK                         _______ _______ _______ _____ _____    ______ ____
ROOT
ATOM      1  O   UNL     1      34.958 -10.865 -25.421  0.00  0.00    -0.266 OA
ATOM      2  N   UNL     1      33.261 -11.936 -24.255  0.00  0.00    -0.209 N 
ATOM      3  N   UNL     1      32.290 -11.911 -23.298  0.00  0.00    -0.170 NA
ATOM      4  C   UNL     1      32.873  -9.596 -22.806  0.00  0.00    +0.020 A 
ATOM      5  C   UNL     1      33.863  -9.620 -23.783  0.00  0.00    +0.059 A 
ATOM      6  C   UNL     1      32.094 -10.831 -22.613  0.00  0.00    +0.090 A 
ATOM      7  C   UNL     1      34.080 -10.853 -24.560  0.00  0.00    +0.277 A 
ATOM      8  C   UNL     1      32.655  -8.434 -22.060  0.00  0.00    +0.001 C 
ATOM      9  C   UNL     1      34.642  -8.482 -24.023  0.00  0.00    +0.005 C 
ATOM     10  C   UNL     1      33.432  -7.299 -22.298  0.00  0.00    +0.000 C 
ATOM     11  C   UNL     1      34.423  -7.323 -23.277  0.00  0.00    +0.000 C 
ENDROOT
BRANCH   2  12
ATOM     12  C   UNL     1      33.387 -13.203 -24.956  0.00  0.00    +0.196 C 
BRANCH  12  15
ATOM     13  S   UNL     1      34.186 -13.827 -22.397  0.00  0.00    -0.074 S 
ATOM     14  N   UNL     1      33.825 -15.541 -24.290  0.00  0.00    -0.401 NA
ATOM     15  C   UNL     1      33.779 -14.276 -23.986  0.00  0.00    +0.159 C 
ATOM     16  C   UNL     1      34.221 -16.258 -23.170  0.00  0.00    +0.123 C 
ATOM     17  C   UNL     1      34.466 -15.488 -22.028  0.00  0.00    +0.128 C 
ATOM     18  C   UNL     1      34.390 -17.657 -23.092  0.00  0.00    +0.033 C 
ATOM     19  C   UNL     1      34.795 -18.241 -21.890  0.00  0.00    +0.073 C 
ATOM     20  C   UNL     1      34.874 -16.068 -20.816  0.00  0.00    -0.008 C 
ATOM     21  C   UNL     1      35.033 -17.455 -20.767  0.00  0.00    +0.001 C 
BRANCH  19  25
ATOM     22  F   UNL     1      33.918 -20.368 -21.234  0.00  0.00    -0.166 F 
ATOM     23  F   UNL     1      35.133 -20.316 -23.029  0.00  0.00    -0.166 F 
ATOM     24  F   UNL     1      36.068 -20.079 -21.081  0.00  0.00    -0.166 F 
ATOM     25  C   UNL     1      34.972 -19.721 -21.811  0.00  0.00    +0.419 C 
ENDBRANCH  19  25
ENDBRANCH  12  15
ENDBRANCH   2  12
BRANCH   6  26
ATOM     26  C   UNL     1      31.007 -10.858 -21.565  0.00  0.00    +0.157 C 
BRANCH  26  28
ATOM     27  O   UNL     1      31.562 -10.509 -19.226  0.00  0.00    -0.250 OA
ATOM     28  C   UNL     1      31.517 -11.230 -20.211  0.00  0.00    +0.320 C 
BRANCH  28  29
ATOM     29  O   UNL     1      31.940 -12.520 -20.225  0.00  0.00    -0.480 OA
ATOM     30  H   UNL     1      31.353 -13.203 -20.483  0.00  0.00    +0.295 HD
ENDBRANCH  28  29
ENDBRANCH  26  28
ENDBRANCH   6  26
TORSDOF 6
ENDMDL
MODEL 6
REMARK VINA RESULT:     -10.0      5.862      9.391
REMARK  Name = 1613
REMARK  6 active torsions:
REMARK  status: ('A' for Active; 'I' for Inactive)
REMARK    1  A    between atoms: N_2  and  C_12
REMARK    2  A    between atoms: C_6  and  C_26
REMARK    3  A    between atoms: C_12  and  C_15
REMARK    4  A    between atoms: C_19  and  C_25
REMARK    5  A    between atoms: C_26  and  C_28
REMARK    6  A    between atoms: C_28  and  O_29
REMARK                            x       y       z     vdW  Elec       q    Type
REMARK                         _______ _______ _______ _____ _____    ______ ____
ROOT
ATOM      1  O   UNL     1      34.954 -16.725 -20.915  0.00  0.00    -0.266 OA
ATOM      2  N   UNL     1      34.619 -16.542 -23.205  0.00  0.00    -0.209 N 
ATOM      3  N   UNL     1      34.046 -15.906 -24.266  0.00  0.00    -0.170 NA
ATOM      4  C   UNL     1      32.989 -14.344 -22.722  0.00  0.00    +0.020 A 
ATOM      5  C   UNL     1      33.574 -14.992 -21.639  0.00  0.00    +0.059 A 
ATOM      6  C   UNL     1      33.284 -14.880 -24.061  0.00  0.00    +0.090 A 
ATOM      7  C   UNL     1      34.442 -16.158 -21.879  0.00  0.00    +0.277 A 
ATOM      8  C   UNL     1      32.163 -13.236 -22.511  0.00  0.00    +0.001 C 
ATOM      9  C   UNL     1      33.339 -14.536 -20.337  0.00  0.00    +0.005 C 
ATOM     10  C   UNL     1      31.928 -12.781 -21.212  0.00  0.00    +0.000 C 
ATOM     11  C   UNL     1      32.515 -13.430 -20.128  0.00  0.00    +0.000 C 
ENDROOT
BRANCH   2  12
ATOM     12  C   UNL     1      35.452 -17.680 -23.559  0.00  0.00    +0.196 C 
BRANCH  12  15
ATOM     13  S   UNL     1      36.983 -18.936 -21.647  0.00  0.00    -0.074 S 
ATOM     14  N   UNL     1      34.448 -19.284 -21.972  0.00  0.00    -0.401 NA
ATOM     15  C   UNL     1      35.493 -18.647 -22.415  0.00  0.00    +0.159 C 
ATOM     16  C   UNL     1      34.832 -20.093 -20.912  0.00  0.00    +0.123 C 
ATOM     17  C   UNL     1      36.190 -20.038 -20.584  0.00  0.00    +0.128 C 
ATOM     18  C   UNL     1      33.988 -20.941 -20.163  0.00  0.00    +0.033 C 
ATOM     19  C   UNL     1      34.519 -21.702 -19.118  0.00  0.00    +0.073 C 
ATOM     20  C   UNL     1      36.731 -20.799 -19.536  0.00  0.00    -0.008 C 
ATOM     21  C   UNL     1      35.874 -21.630 -18.810  0.00  0.00    +0.001 C 
BRANCH  19  25
ATOM     22  F   UNL     1      33.522 -23.858 -18.840  0.00  0.00    -0.166 F 
ATOM     23  F   UNL     1      34.029 -22.769 -17.035  0.00  0.00    -0.166 F 
ATOM     24  F   UNL     1      32.346 -22.126 -18.253  0.00  0.00    -0.166 F 
ATOM     25  C   UNL     1      33.625 -22.597 -18.328  0.00  0.00    +0.419 C 
ENDBRANCH  19  25
ENDBRANCH  12  15
ENDBRANCH   2  12
BRANCH   6  26
ATOM     26  C   UNL     1      32.674 -14.213 -25.272  0.00  0.00    +0.157 C 
BRANCH  26  28
ATOM     27  O   UNL     1      33.787 -14.459 -27.417  0.00  0.00    -0.250 OA
ATOM     28  C   UNL     1      33.040 -14.890 -26.552  0.00  0.00    +0.320 C 
BRANCH  28  29
ATOM     29  O   UNL     1      32.408 -16.089 -26.627  0.00  0.00    -0.480 OA
ATOM     30  H   UNL     1      32.159 -16.436 -27.461  0.00  0.00    +0.295 HD
ENDBRANCH  28  29
ENDBRANCH  26  28
ENDBRANCH   6  26
TORSDOF 6
ENDMDL
MODEL 7
REMARK VINA RESULT:     -10.0     10.509     13.766
REMARK  Name = 1613
REMARK  6 active torsions:
REMARK  status: ('A' for Active; 'I' for Inactive)
REMARK    1  A    between atoms: N_2  and  C_12
REMARK    2  A    between atoms: C_6  and  C_26
REMARK    3  A    between atoms: C_12  and  C_15
REMARK    4  A    between atoms: C_19  and  C_25
REMARK    5  A    between atoms: C_26  and  C_28
REMARK    6  A    between atoms: C_28  and  O_29
REMARK                            x       y       z     vdW  Elec       q    Type
REMARK                         _______ _______ _______ _____ _____    ______ ____
ROOT
ATOM      1  O   UNL     1      32.381 -21.376 -20.049  0.00  0.00    -0.266 OA
ATOM      2  N   UNL     1      33.967 -22.249 -18.596  0.00  0.00    -0.209 N 
ATOM      3  N   UNL     1      35.251 -22.296 -18.141  0.00  0.00    -0.170 NA
ATOM      4  C   UNL     1      35.867 -20.613 -19.795  0.00  0.00    +0.020 A 
ATOM      5  C   UNL     1      34.556 -20.565 -20.258  0.00  0.00    +0.059 A 
ATOM      6  C   UNL     1      36.150 -21.541 -18.687  0.00  0.00    +0.090 A 
ATOM      7  C   UNL     1      33.537 -21.426 -19.632  0.00  0.00    +0.277 A 
ATOM      8  C   UNL     1      36.846 -19.803 -20.378  0.00  0.00    +0.001 C 
ATOM      9  C   UNL     1      34.214 -19.705 -21.308  0.00  0.00    +0.005 C 
ATOM     10  C   UNL     1      36.504 -18.946 -21.425  0.00  0.00    +0.000 C 
ATOM     11  C   UNL     1      35.191 -18.897 -21.889  0.00  0.00    +0.000 C 
ENDROOT
BRANCH   2  12
ATOM     12  C   UNL     1      33.048 -23.142 -17.907  0.00  0.00    +0.196 C 
BRANCH  12  15
ATOM     13  S   UNL     1      32.689 -23.286 -15.182  0.00  0.00    -0.074 S 
ATOM     14  N   UNL     1      34.812 -24.047 -16.434  0.00  0.00    -0.401 NA
ATOM     15  C   UNL     1      33.627 -23.530 -16.580  0.00  0.00    +0.159 C 
ATOM     16  C   UNL     1      35.033 -24.287 -15.085  0.00  0.00    +0.123 C 
ATOM     17  C   UNL     1      33.978 -23.934 -14.238  0.00  0.00    +0.128 C 
ATOM     18  C   UNL     1      36.201 -24.843 -14.519  0.00  0.00    +0.033 C 
ATOM     19  C   UNL     1      36.280 -25.027 -13.136  0.00  0.00    +0.073 C 
ATOM     20  C   UNL     1      34.051 -24.117 -12.848  0.00  0.00    -0.008 C 
ATOM     21  C   UNL     1      35.218 -24.669 -12.313  0.00  0.00    +0.001 C 
BRANCH  19  25
ATOM     22  F   UNL     1      38.506 -25.846 -13.451  0.00  0.00    -0.166 F 
ATOM     23  F   UNL     1      38.088 -24.826 -11.583  0.00  0.00    -0.166 F 
ATOM     24  F   UNL     1      37.285 -26.816 -11.935  0.00  0.00    -0.166 F 
ATOM     25  C   UNL     1      37.516 -25.615 -12.540  0.00  0.00    +0.419 C 
ENDBRANCH  19  25
ENDBRANCH  12  15
ENDBRANCH   2  12
BRANCH   6  26
ATOM     26  C   UNL     1      37.558 -21.633 -18.145  0.00  0.00    +0.157 C 
BRANCH  26  28
ATOM     27  O   UNL     1      38.371 -22.828 -16.193  0.00  0.00    -0.250 OA
ATOM     28  C   UNL     1      37.600 -22.032 -16.706  0.00  0.00    +0.320 C 
BRANCH  28  29
ATOM     29  O   UNL     1      36.631 -21.369 -16.024  0.00  0.00    -0.480 OA
ATOM     30  H   UNL     1      36.860 -20.823 -15.298  0.00  0.00    +0.295 HD
ENDBRANCH  28  29
ENDBRANCH  26  28
ENDBRANCH   6  26
TORSDOF 6
ENDMDL
MODEL 8
REMARK VINA RESULT:      -9.9      6.304      9.928
REMARK  Name = 1613
REMARK  6 active torsions:
REMARK  status: ('A' for Active; 'I' for Inactive)
REMARK    1  A    between atoms: N_2  and  C_12
REMARK    2  A    between atoms: C_6  and  C_26
REMARK    3  A    between atoms: C_12  and  C_15
REMARK    4  A    between atoms: C_19  and  C_25
REMARK    5  A    between atoms: C_26  and  C_28
REMARK    6  A    between atoms: C_28  and  O_29
REMARK                            x       y       z     vdW  Elec       q    Type
REMARK                         _______ _______ _______ _____ _____    ______ ____
ROOT
ATOM      1  O   UNL     1      35.273 -16.789 -20.192  0.00  0.00    -0.266 OA
ATOM      2  N   UNL     1      35.452 -17.065 -22.490  0.00  0.00    -0.209 N 
ATOM      3  N   UNL     1      35.096 -16.695 -23.753  0.00  0.00    -0.170 NA
ATOM      4  C   UNL     1      33.630 -14.990 -22.812  0.00  0.00    +0.020 A 
ATOM      5  C   UNL     1      33.994 -15.365 -21.523  0.00  0.00    +0.059 A 
ATOM      6  C   UNL     1      34.250 -15.731 -23.924  0.00  0.00    +0.090 A 
ATOM      7  C   UNL     1      34.959 -16.463 -21.336  0.00  0.00    +0.277 A 
ATOM      8  C   UNL     1      32.716 -13.951 -23.007  0.00  0.00    +0.001 C 
ATOM      9  C   UNL     1      33.446 -14.704 -20.418  0.00  0.00    +0.005 C 
ATOM     10  C   UNL     1      32.169 -13.291 -21.905  0.00  0.00    +0.000 C 
ATOM     11  C   UNL     1      32.534 -13.667 -20.613  0.00  0.00    +0.000 C 
ENDROOT
BRANCH   2  12
ATOM     12  C   UNL     1      36.407 -18.159 -22.426  0.00  0.00    +0.196 C 
BRANCH  12  15
ATOM     13  S   UNL     1      34.403 -19.838 -21.563  0.00  0.00    -0.074 S 
ATOM     14  N   UNL     1      36.686 -19.543 -20.399  0.00  0.00    -0.401 NA
ATOM     15  C   UNL     1      35.955 -19.159 -21.405  0.00  0.00    +0.159 C 
ATOM     16  C   UNL     1      35.973 -20.471 -19.654  0.00  0.00    +0.123 C 
ATOM     17  C   UNL     1      34.694 -20.764 -20.138  0.00  0.00    +0.128 C 
ATOM     18  C   UNL     1      36.421 -21.123 -18.485  0.00  0.00    +0.033 C 
ATOM     19  C   UNL     1      35.586 -22.039 -17.839  0.00  0.00    +0.073 C 
ATOM     20  C   UNL     1      33.850 -21.684 -19.495  0.00  0.00    -0.008 C 
ATOM     21  C   UNL     1      34.318 -22.315 -18.339  0.00  0.00    +0.001 C 
BRANCH  19  25
ATOM     22  F   UNL     1      35.520 -23.967 -16.424  0.00  0.00    -0.166 F 
ATOM     23  F   UNL     1      37.414 -22.922 -16.574  0.00  0.00    -0.166 F 
ATOM     24  F   UNL     1      35.768 -22.029 -15.469  0.00  0.00    -0.166 F 
ATOM     25  C   UNL     1      36.063 -22.727 -16.604  0.00  0.00    +0.419 C 
ENDBRANCH  19  25
ENDBRANCH  12  15
ENDBRANCH   2  12
BRANCH   6  26
ATOM     26  C   UNL     1      33.890 -15.363 -25.344  0.00  0.00    +0.157 C 
BRANCH  26  28
ATOM     27  O   UNL     1      32.265 -16.363 -26.848  0.00  0.00    -0.250 OA
ATOM     28  C   UNL     1      33.203 -16.472 -26.073  0.00  0.00    +0.320 C 
BRANCH  28  29
ATOM     29  O   UNL     1      33.780 -17.656 -25.745  0.00  0.00    -0.480 OA
ATOM     30  H   UNL     1      34.704 -17.700 -25.593  0.00  0.00    +0.295 HD
ENDBRANCH  28  29
ENDBRANCH  26  28
ENDBRANCH   6  26
TORSDOF 6
ENDMDL
MODEL 9
REMARK VINA RESULT:      -9.8      2.415      3.968
REMARK  Name = 1613
REMARK  6 active torsions:
REMARK  status: ('A' for Active; 'I' for Inactive)
REMARK    1  A    between atoms: N_2  and  C_12
REMARK    2  A    between atoms: C_6  and  C_26
REMARK    3  A    between atoms: C_12  and  C_15
REMARK    4  A    between atoms: C_19  and  C_25
REMARK    5  A    between atoms: C_26  and  C_28
REMARK    6  A    between atoms: C_28  and  O_29
REMARK                            x       y       z     vdW  Elec       q    Type
REMARK                         _______ _______ _______ _____ _____    ______ ____
ROOT
ATOM      1  O   UNL     1      33.685 -15.476 -20.890  0.00  0.00    -0.266 OA
ATOM      2  N   UNL     1      32.690 -14.120 -22.490  0.00  0.00    -0.209 N 
ATOM      3  N   UNL     1      32.434 -13.833 -23.797  0.00  0.00    -0.170 NA
ATOM      4  C   UNL     1      33.734 -15.788 -24.453  0.00  0.00    +0.020 A 
ATOM      5  C   UNL     1      33.995 -16.082 -23.119  0.00  0.00    +0.059 A 
ATOM      6  C   UNL     1      32.910 -14.597 -24.726  0.00  0.00    +0.090 A 
ATOM      7  C   UNL     1      33.448 -15.208 -22.067  0.00  0.00    +0.277 A 
ATOM      8  C   UNL     1      34.245 -16.607 -25.464  0.00  0.00    +0.001 C 
ATOM      9  C   UNL     1      34.770 -17.199 -22.785  0.00  0.00    +0.005 C 
ATOM     10  C   UNL     1      35.018 -17.720 -25.130  0.00  0.00    +0.000 C 
ATOM     11  C   UNL     1      35.280 -18.016 -23.794  0.00  0.00    +0.000 C 
ENDROOT
BRANCH   2  12
ATOM     12  C   UNL     1      32.103 -13.190 -21.539  0.00  0.00    +0.196 C 
BRANCH  12  15
ATOM     13  S   UNL     1      30.770 -10.824 -21.992  0.00  0.00    -0.074 S 
ATOM     14  N   UNL     1      33.217 -11.292 -22.660  0.00  0.00    -0.401 NA
ATOM     15  C   UNL     1      32.160 -11.800 -22.097  0.00  0.00    +0.159 C 
ATOM     16  C   UNL     1      32.932  -9.995 -23.063  0.00  0.00    +0.123 C 
ATOM     17  C   UNL     1      31.634  -9.558 -22.781  0.00  0.00    +0.128 C 
ATOM     18  C   UNL     1      33.819  -9.110 -23.712  0.00  0.00    +0.033 C 
ATOM     19  C   UNL     1      33.388  -7.826 -24.059  0.00  0.00    +0.073 C 
ATOM     20  C   UNL     1      31.194  -8.270 -23.126  0.00  0.00    -0.008 C 
ATOM     21  C   UNL     1      32.092  -7.414 -23.768  0.00  0.00    +0.001 C 
BRANCH  19  25
ATOM     22  F   UNL     1      34.873  -7.407 -25.887  0.00  0.00    -0.166 F 
ATOM     23  F   UNL     1      33.748  -5.716 -25.126  0.00  0.00    -0.166 F 
ATOM     24  F   UNL     1      35.386  -6.543 -23.959  0.00  0.00    -0.166 F 
ATOM     25  C   UNL     1      34.328  -6.893 -24.745  0.00  0.00    +0.419 C 
ENDBRANCH  19  25
ENDBRANCH  12  15
ENDBRANCH   2  12
BRANCH   6  26
ATOM     26  C   UNL     1      32.597 -14.233 -26.158  0.00  0.00    +0.157 C 
BRANCH  26  28
ATOM     27  O   UNL     1      34.099 -13.250 -27.795  0.00  0.00    -0.250 OA
ATOM     28  C   UNL     1      33.533 -13.209 -26.713  0.00  0.00    +0.320 C 
BRANCH  28  29
ATOM     29  O   UNL     1      33.675 -12.195 -25.822  0.00  0.00    -0.480 OA
ATOM     30  H   UNL     1      33.233 -11.381 -25.965  0.00  0.00    +0.295 HD
ENDBRANCH  28  29
ENDBRANCH  26  28
ENDBRANCH   6  26
TORSDOF 6
ENDMDL
