MODEL 1
REMARK VINA RESULT:      -6.6      0.000      0.000
REMARK  Name = 8153
REMARK  10 active torsions:
REMARK  status: ('A' for Active; 'I' for Inactive)
REMARK    1  A    between atoms: C_1  and  C_2
REMARK    2  A    between atoms: C_1  and  C_9
REMARK    3  A    between atoms: C_3  and  C_4
REMARK    4  A    between atoms: C_4  and  N_5
REMARK    5  A    between atoms: C_9  and  C_10
REMARK    6  A    between atoms: C_10  and  C_11
REMARK    7  A    between atoms: C_11  and  C_12
REMARK    8  A    between atoms: C_12  and  C_13
REMARK    9  A    between atoms: C_13  and  C_14
REMARK   10  A    between atoms: C_14  and  C_15
REMARK                            x       y       z     vdW  Elec       q    Type
REMARK                         _______ _______ _______ _____ _____    ______ ____
ROOT
ATOM      1  C   UNL     1      33.603 -22.438 -18.635  0.00  0.00    +0.026 C 
ENDROOT
BRANCH   1   2
ATOM      2  C   UNL     1      33.516 -23.221 -17.322  0.00  0.00    -0.033 C 
ATOM      3  C   UNL     1      32.198 -23.085 -16.549  0.00  0.00    -0.053 C 
BRANCH   3   4
ATOM      4  C   UNL     1      32.088 -23.911 -15.274  0.00  0.00    -0.047 C 
BRANCH   4   5
ATOM      5  N   UNL     1      30.674 -24.032 -14.849  0.00  0.00    +0.388 N 
ATOM      6  C   UNL     1      30.579 -24.479 -13.383  0.00  0.00    -0.095 C 
ATOM      7  C   UNL     1      29.945 -22.688 -14.985  0.00  0.00    -0.095 C 
ATOM      8  C   UNL     1      29.931 -25.064 -15.710  0.00  0.00    -0.095 C 
ENDBRANCH   4   5
ENDBRANCH   3   4
ENDBRANCH   1   2
BRANCH   1   9
ATOM      9  C   UNL     1      35.040 -22.140 -19.071  0.00  0.00    +0.005 C 
BRANCH   9  10
ATOM     10  C   UNL     1      35.094 -20.919 -19.994  0.00  0.00    +0.000 C 
BRANCH  10  11
ATOM     11  C   UNL     1      33.712 -20.378 -20.370  0.00  0.00    +0.000 C 
BRANCH  11  12
ATOM     12  C   UNL     1      33.767 -19.108 -21.221  0.00  0.00    +0.000 C 
BRANCH  12  13
ATOM     13  C   UNL     1      35.179 -18.518 -21.245  0.00  0.00    +0.000 C 
BRANCH  13  14
ATOM     14  C   UNL     1      35.675 -18.320 -22.679  0.00  0.00    +0.000 C 
BRANCH  14  15
ATOM     15  C   UNL     1      34.812 -19.093 -23.677  0.00  0.00    +0.000 C 
ATOM     16  C   UNL     1      34.506 -18.258 -24.910  0.00  0.00    +0.000 C 
ENDBRANCH  14  15
ENDBRANCH  13  14
ENDBRANCH  12  13
ENDBRANCH  11  12
ENDBRANCH  10  11
ENDBRANCH   9  10
ENDBRANCH   1   9
TORSDOF 10
ENDMDL
MODEL 2
REMARK VINA RESULT:      -6.5      3.343      4.153
REMARK  Name = 8153
REMARK  10 active torsions:
REMARK  status: ('A' for Active; 'I' for Inactive)
REMARK    1  A    between atoms: C_1  and  C_2
REMARK    2  A    between atoms: C_1  and  C_9
REMARK    3  A    between atoms: C_3  and  C_4
REMARK    4  A    between atoms: C_4  and  N_5
REMARK    5  A    between atoms: C_9  and  C_10
REMARK    6  A    between atoms: C_10  and  C_11
REMARK    7  A    between atoms: C_11  and  C_12
REMARK    8  A    between atoms: C_12  and  C_13
REMARK    9  A    between atoms: C_13  and  C_14
REMARK   10  A    between atoms: C_14  and  C_15
REMARK                            x       y       z     vdW  Elec       q    Type
REMARK                         _______ _______ _______ _____ _____    ______ ____
ROOT
ATOM      1  C   UNL     1      36.569 -21.708 -18.005  0.00  0.00    +0.026 C 
ENDROOT
BRANCH   1   2
ATOM      2  C   UNL     1      37.225 -22.100 -16.678  0.00  0.00    -0.033 C 
ATOM      3  C   UNL     1      36.342 -22.891 -15.705  0.00  0.00    -0.053 C 
BRANCH   3   4
ATOM      4  C   UNL     1      37.012 -23.333 -14.410  0.00  0.00    -0.047 C 
BRANCH   4   5
ATOM      5  N   UNL     1      36.880 -24.797 -14.225  0.00  0.00    +0.388 N 
ATOM      6  C   UNL     1      35.744 -25.358 -15.095  0.00  0.00    -0.095 C 
ATOM      7  C   UNL     1      38.178 -25.518 -14.616  0.00  0.00    -0.095 C 
ATOM      8  C   UNL     1      36.569 -25.138 -12.760  0.00  0.00    -0.095 C 
ENDBRANCH   4   5
ENDBRANCH   3   4
ENDBRANCH   1   2
BRANCH   1   9
ATOM      9  C   UNL     1      35.144 -22.245 -18.161  0.00  0.00    +0.005 C 
BRANCH   9  10
ATOM     10  C   UNL     1      34.602 -21.971 -19.567  0.00  0.00    +0.000 C 
BRANCH  10  11
ATOM     11  C   UNL     1      33.282 -21.196 -19.571  0.00  0.00    +0.000 C 
BRANCH  11  12
ATOM     12  C   UNL     1      33.239 -20.072 -20.608  0.00  0.00    +0.000 C 
BRANCH  12  13
ATOM     13  C   UNL     1      34.643 -19.734 -21.116  0.00  0.00    +0.000 C 
BRANCH  13  14
ATOM     14  C   UNL     1      34.602 -18.619 -22.162  0.00  0.00    +0.000 C 
BRANCH  14  15
ATOM     15  C   UNL     1      34.872 -19.162 -23.565  0.00  0.00    +0.000 C 
ATOM     16  C   UNL     1      34.751 -18.070 -24.616  0.00  0.00    +0.000 C 
ENDBRANCH  14  15
ENDBRANCH  13  14
ENDBRANCH  12  13
ENDBRANCH  11  12
ENDBRANCH  10  11
ENDBRANCH   9  10
ENDBRANCH   1   9
TORSDOF 10
ENDMDL
MODEL 3
REMARK VINA RESULT:      -6.4      7.272     11.211
REMARK  Name = 8153
REMARK  10 active torsions:
REMARK  status: ('A' for Active; 'I' for Inactive)
REMARK    1  A    between atoms: C_1  and  C_2
REMARK    2  A    between atoms: C_1  and  C_9
REMARK    3  A    between atoms: C_3  and  C_4
REMARK    4  A    between atoms: C_4  and  N_5
REMARK    5  A    between atoms: C_9  and  C_10
REMARK    6  A    between atoms: C_10  and  C_11
REMARK    7  A    between atoms: C_11  and  C_12
REMARK    8  A    between atoms: C_12  and  C_13
REMARK    9  A    between atoms: C_13  and  C_14
REMARK   10  A    between atoms: C_14  and  C_15
REMARK                            x       y       z     vdW  Elec       q    Type
REMARK                         _______ _______ _______ _____ _____    ______ ____
ROOT
ATOM      1  C   UNL     1      32.479 -14.006 -21.697  0.00  0.00    +0.026 C 
ENDROOT
BRANCH   1   2
ATOM      2  C   UNL     1      31.905 -12.642 -21.304  0.00  0.00    -0.033 C 
ATOM      3  C   UNL     1      32.056 -11.528 -22.347  0.00  0.00    -0.053 C 
BRANCH   3   4
ATOM      4  C   UNL     1      31.432 -10.187 -21.982  0.00  0.00    -0.047 C 
BRANCH   4   5
ATOM      5  N   UNL     1      32.198  -9.072 -22.584  0.00  0.00    +0.388 N 
ATOM      6  C   UNL     1      31.285  -8.181 -23.441  0.00  0.00    -0.095 C 
ATOM      7  C   UNL     1      32.834  -8.194 -21.497  0.00  0.00    -0.095 C 
ATOM      8  C   UNL     1      33.323  -9.604 -23.484  0.00  0.00    -0.095 C 
ENDBRANCH   4   5
ENDBRANCH   3   4
ENDBRANCH   1   2
BRANCH   1   9
ATOM      9  C   UNL     1      32.905 -14.856 -20.497  0.00  0.00    +0.005 C 
BRANCH   9  10
ATOM     10  C   UNL     1      34.273 -15.502 -20.737  0.00  0.00    +0.000 C 
BRANCH  10  11
ATOM     11  C   UNL     1      34.584 -15.737 -22.218  0.00  0.00    +0.000 C 
BRANCH  11  12
ATOM     12  C   UNL     1      35.060 -17.159 -22.521  0.00  0.00    +0.000 C 
BRANCH  12  13
ATOM     13  C   UNL     1      35.044 -18.029 -21.262  0.00  0.00    +0.000 C 
BRANCH  13  14
ATOM     14  C   UNL     1      34.445 -19.407 -21.545  0.00  0.00    +0.000 C 
BRANCH  14  15
ATOM     15  C   UNL     1      33.150 -19.622 -20.761  0.00  0.00    +0.000 C 
ATOM     16  C   UNL     1      33.254 -20.823 -19.834  0.00  0.00    +0.000 C 
ENDBRANCH  14  15
ENDBRANCH  13  14
ENDBRANCH  12  13
ENDBRANCH  11  12
ENDBRANCH  10  11
ENDBRANCH   9  10
ENDBRANCH   1   9
TORSDOF 10
ENDMDL
MODEL 4
REMARK VINA RESULT:      -6.4      2.688      3.679
REMARK  Name = 8153
REMARK  10 active torsions:
REMARK  status: ('A' for Active; 'I' for Inactive)
REMARK    1  A    between atoms: C_1  and  C_2
REMARK    2  A    between atoms: C_1  and  C_9
REMARK    3  A    between atoms: C_3  and  C_4
REMARK    4  A    between atoms: C_4  and  N_5
REMARK    5  A    between atoms: C_9  and  C_10
REMARK    6  A    between atoms: C_10  and  C_11
REMARK    7  A    between atoms: C_11  and  C_12
REMARK    8  A    between atoms: C_12  and  C_13
REMARK    9  A    between atoms: C_13  and  C_14
REMARK   10  A    between atoms: C_14  and  C_15
REMARK                            x       y       z     vdW  Elec       q    Type
REMARK                         _______ _______ _______ _____ _____    ______ ____
ROOT
ATOM      1  C   UNL     1      33.335 -22.517 -18.338  0.00  0.00    +0.026 C 
ENDROOT
BRANCH   1   2
ATOM      2  C   UNL     1      33.393 -23.338 -17.046  0.00  0.00    -0.033 C 
ATOM      3  C   UNL     1      34.692 -23.219 -16.239  0.00  0.00    -0.053 C 
BRANCH   3   4
ATOM      4  C   UNL     1      34.729 -23.987 -14.924  0.00  0.00    -0.047 C 
BRANCH   4   5
ATOM      5  N   UNL     1      36.113 -24.072 -14.406  0.00  0.00    +0.388 N 
ATOM      6  C   UNL     1      37.087 -23.310 -15.317  0.00  0.00    -0.095 C 
ATOM      7  C   UNL     1      36.209 -23.467 -12.998  0.00  0.00    -0.095 C 
ATOM      8  C   UNL     1      36.580 -25.533 -14.328  0.00  0.00    -0.095 C 
ENDBRANCH   4   5
ENDBRANCH   3   4
ENDBRANCH   1   2
BRANCH   1   9
ATOM      9  C   UNL     1      34.709 -22.269 -18.964  0.00  0.00    +0.005 C 
BRANCH   9  10
ATOM     10  C   UNL     1      34.685 -21.040 -19.878  0.00  0.00    +0.000 C 
BRANCH  10  11
ATOM     11  C   UNL     1      33.271 -20.551 -20.204  0.00  0.00    +0.000 C 
BRANCH  11  12
ATOM     12  C   UNL     1      33.248 -19.288 -21.067  0.00  0.00    +0.000 C 
BRANCH  12  13
ATOM     13  C   UNL     1      34.370 -19.308 -22.108  0.00  0.00    +0.000 C 
BRANCH  13  14
ATOM     14  C   UNL     1      34.968 -17.915 -22.309  0.00  0.00    +0.000 C 
BRANCH  14  15
ATOM     15  C   UNL     1      35.051 -17.150 -20.988  0.00  0.00    +0.000 C 
ATOM     16  C   UNL     1      34.572 -15.715 -21.145  0.00  0.00    +0.000 C 
ENDBRANCH  14  15
ENDBRANCH  13  14
ENDBRANCH  12  13
ENDBRANCH  11  12
ENDBRANCH  10  11
ENDBRANCH   9  10
ENDBRANCH   1   9
TORSDOF 10
ENDMDL
MODEL 5
REMARK VINA RESULT:      -6.4      2.668      3.484
REMARK  Name = 8153
REMARK  10 active torsions:
REMARK  status: ('A' for Active; 'I' for Inactive)
REMARK    1  A    between atoms: C_1  and  C_2
REMARK    2  A    between atoms: C_1  and  C_9
REMARK    3  A    between atoms: C_3  and  C_4
REMARK    4  A    between atoms: C_4  and  N_5
REMARK    5  A    between atoms: C_9  and  C_10
REMARK    6  A    between atoms: C_10  and  C_11
REMARK    7  A    between atoms: C_11  and  C_12
REMARK    8  A    between atoms: C_12  and  C_13
REMARK    9  A    between atoms: C_13  and  C_14
REMARK   10  A    between atoms: C_14  and  C_15
REMARK                            x       y       z     vdW  Elec       q    Type
REMARK                         _______ _______ _______ _____ _____    ______ ____
ROOT
ATOM      1  C   UNL     1      33.923 -22.793 -19.158  0.00  0.00    +0.026 C 
ENDROOT
BRANCH   1   2
ATOM      2  C   UNL     1      33.752 -22.942 -17.643  0.00  0.00    -0.033 C 
ATOM      3  C   UNL     1      35.040 -22.851 -16.815  0.00  0.00    -0.053 C 
BRANCH   3   4
ATOM      4  C   UNL     1      34.864 -22.939 -15.304  0.00  0.00    -0.047 C 
BRANCH   4   5
ATOM      5  N   UNL     1      35.974 -23.704 -14.691  0.00  0.00    +0.388 N 
ATOM      6  C   UNL     1      35.830 -25.206 -14.981  0.00  0.00    -0.095 C 
ATOM      7  C   UNL     1      37.329 -23.241 -15.245  0.00  0.00    -0.095 C 
ATOM      8  C   UNL     1      35.994 -23.514 -13.167  0.00  0.00    -0.095 C 
ENDBRANCH   4   5
ENDBRANCH   3   4
ENDBRANCH   1   2
BRANCH   1   9
ATOM      9  C   UNL     1      34.354 -21.388 -19.587  0.00  0.00    +0.005 C 
BRANCH   9  10
ATOM     10  C   UNL     1      33.166 -20.588 -20.128  0.00  0.00    +0.000 C 
BRANCH  10  11
ATOM     11  C   UNL     1      33.574 -19.460 -21.081  0.00  0.00    +0.000 C 
BRANCH  11  12
ATOM     12  C   UNL     1      35.052 -19.078 -20.973  0.00  0.00    +0.000 C 
BRANCH  12  13
ATOM     13  C   UNL     1      35.646 -18.774 -22.350  0.00  0.00    +0.000 C 
BRANCH  13  14
ATOM     14  C   UNL     1      34.673 -19.143 -23.471  0.00  0.00    +0.000 C 
BRANCH  14  15
ATOM     15  C   UNL     1      34.682 -18.094 -24.583  0.00  0.00    +0.000 C 
ATOM     16  C   UNL     1      34.761 -16.685 -24.018  0.00  0.00    +0.000 C 
ENDBRANCH  14  15
ENDBRANCH  13  14
ENDBRANCH  12  13
ENDBRANCH  11  12
ENDBRANCH  10  11
ENDBRANCH   9  10
ENDBRANCH   1   9
TORSDOF 10
ENDMDL
MODEL 6
REMARK VINA RESULT:      -6.3      1.418      1.988
REMARK  Name = 8153
REMARK  10 active torsions:
REMARK  status: ('A' for Active; 'I' for Inactive)
REMARK    1  A    between atoms: C_1  and  C_2
REMARK    2  A    between atoms: C_1  and  C_9
REMARK    3  A    between atoms: C_3  and  C_4
REMARK    4  A    between atoms: C_4  and  N_5
REMARK    5  A    between atoms: C_9  and  C_10
REMARK    6  A    between atoms: C_10  and  C_11
REMARK    7  A    between atoms: C_11  and  C_12
REMARK    8  A    between atoms: C_12  and  C_13
REMARK    9  A    between atoms: C_13  and  C_14
REMARK   10  A    between atoms: C_14  and  C_15
REMARK                            x       y       z     vdW  Elec       q    Type
REMARK                         _______ _______ _______ _____ _____    ______ ____
ROOT
ATOM      1  C   UNL     1      33.762 -22.884 -18.902  0.00  0.00    +0.026 C 
ENDROOT
BRANCH   1   2
ATOM      2  C   UNL     1      33.673 -22.987 -17.376  0.00  0.00    -0.033 C 
ATOM      3  C   UNL     1      32.288 -23.321 -16.809  0.00  0.00    -0.053 C 
BRANCH   3   4
ATOM      4  C   UNL     1      32.211 -23.482 -15.296  0.00  0.00    -0.047 C 
BRANCH   4   5
ATOM      5  N   UNL     1      30.825 -23.785 -14.871  0.00  0.00    +0.388 N 
ATOM      6  C   UNL     1      30.783 -24.199 -13.392  0.00  0.00    -0.095 C 
ATOM      7  C   UNL     1      29.919 -22.558 -15.047  0.00  0.00    -0.095 C 
ATOM      8  C   UNL     1      30.236 -24.933 -15.703  0.00  0.00    -0.095 C 
ENDBRANCH   4   5
ENDBRANCH   3   4
ENDBRANCH   1   2
BRANCH   1   9
ATOM      9  C   UNL     1      34.274 -21.527 -19.391  0.00  0.00    +0.005 C 
BRANCH   9  10
ATOM     10  C   UNL     1      33.144 -20.705 -20.017  0.00  0.00    +0.000 C 
BRANCH  10  11
ATOM     11  C   UNL     1      33.642 -19.603 -20.958  0.00  0.00    +0.000 C 
BRANCH  11  12
ATOM     12  C   UNL     1      35.166 -19.474 -20.990  0.00  0.00    +0.000 C 
BRANCH  12  13
ATOM     13  C   UNL     1      35.593 -18.027 -21.248  0.00  0.00    +0.000 C 
BRANCH  13  14
ATOM     14  C   UNL     1      34.383 -17.095 -21.325  0.00  0.00    +0.000 C 
BRANCH  14  15
ATOM     15  C   UNL     1      34.644 -15.783 -20.584  0.00  0.00    +0.000 C 
ATOM     16  C   UNL     1      33.719 -14.678 -21.066  0.00  0.00    +0.000 C 
ENDBRANCH  14  15
ENDBRANCH  13  14
ENDBRANCH  12  13
ENDBRANCH  11  12
ENDBRANCH  10  11
ENDBRANCH   9  10
ENDBRANCH   1   9
TORSDOF 10
ENDMDL
MODEL 7
REMARK VINA RESULT:      -6.2      7.325     11.475
REMARK  Name = 8153
REMARK  10 active torsions:
REMARK  status: ('A' for Active; 'I' for Inactive)
REMARK    1  A    between atoms: C_1  and  C_2
REMARK    2  A    between atoms: C_1  and  C_9
REMARK    3  A    between atoms: C_3  and  C_4
REMARK    4  A    between atoms: C_4  and  N_5
REMARK    5  A    between atoms: C_9  and  C_10
REMARK    6  A    between atoms: C_10  and  C_11
REMARK    7  A    between atoms: C_11  and  C_12
REMARK    8  A    between atoms: C_12  and  C_13
REMARK    9  A    between atoms: C_13  and  C_14
REMARK   10  A    between atoms: C_14  and  C_15
REMARK                            x       y       z     vdW  Elec       q    Type
REMARK                         _______ _______ _______ _____ _____    ______ ____
ROOT
ATOM      1  C   UNL     1      33.171 -13.931 -23.351  0.00  0.00    +0.026 C 
ENDROOT
BRANCH   1   2
ATOM      2  C   UNL     1      33.507 -12.524 -23.855  0.00  0.00    -0.033 C 
ATOM      3  C   UNL     1      32.827 -11.369 -23.111  0.00  0.00    -0.053 C 
BRANCH   3   4
ATOM      4  C   UNL     1      33.206  -9.967 -23.572  0.00  0.00    -0.047 C 
BRANCH   4   5
ATOM      5  N   UNL     1      32.509  -8.942 -22.762  0.00  0.00    +0.388 N 
ATOM      6  C   UNL     1      33.469  -7.810 -22.366  0.00  0.00    -0.095 C 
ATOM      7  C   UNL     1      31.343  -8.324 -23.547  0.00  0.00    -0.095 C 
ATOM      8  C   UNL     1      31.941  -9.557 -21.474  0.00  0.00    -0.095 C 
ENDBRANCH   4   5
ENDBRANCH   3   4
ENDBRANCH   1   2
BRANCH   1   9
ATOM      9  C   UNL     1      32.484 -13.939 -21.983  0.00  0.00    +0.005 C 
BRANCH   9  10
ATOM     10  C   UNL     1      32.840 -15.202 -21.194  0.00  0.00    +0.000 C 
BRANCH  10  11
ATOM     11  C   UNL     1      34.330 -15.310 -20.856  0.00  0.00    +0.000 C 
BRANCH  11  12
ATOM     12  C   UNL     1      34.869 -16.740 -20.931  0.00  0.00    +0.000 C 
BRANCH  12  13
ATOM     13  C   UNL     1      34.757 -17.300 -22.350  0.00  0.00    +0.000 C 
BRANCH  13  14
ATOM     14  C   UNL     1      34.559 -18.817 -22.336  0.00  0.00    +0.000 C 
BRANCH  14  15
ATOM     15  C   UNL     1      34.338 -19.335 -20.915  0.00  0.00    +0.000 C 
ATOM     16  C   UNL     1      32.962 -19.964 -20.760  0.00  0.00    +0.000 C 
ENDBRANCH  14  15
ENDBRANCH  13  14
ENDBRANCH  12  13
ENDBRANCH  11  12
ENDBRANCH  10  11
ENDBRANCH   9  10
ENDBRANCH   1   9
TORSDOF 10
ENDMDL
MODEL 8
REMARK VINA RESULT:      -6.2      8.089     11.880
REMARK  Name = 8153
REMARK  10 active torsions:
REMARK  status: ('A' for Active; 'I' for Inactive)
REMARK    1  A    between atoms: C_1  and  C_2
REMARK    2  A    between atoms: C_1  and  C_9
REMARK    3  A    between atoms: C_3  and  C_4
REMARK    4  A    between atoms: C_4  and  N_5
REMARK    5  A    between atoms: C_9  and  C_10
REMARK    6  A    between atoms: C_10  and  C_11
REMARK    7  A    between atoms: C_11  and  C_12
REMARK    8  A    between atoms: C_12  and  C_13
REMARK    9  A    between atoms: C_13  and  C_14
REMARK   10  A    between atoms: C_14  and  C_15
REMARK                            x       y       z     vdW  Elec       q    Type
REMARK                         _______ _______ _______ _____ _____    ______ ____
ROOT
ATOM      1  C   UNL     1      31.853 -12.733 -21.333  0.00  0.00    +0.026 C 
ENDROOT
BRANCH   1   2
ATOM      2  C   UNL     1      32.001 -11.564 -22.312  0.00  0.00    -0.033 C 
ATOM      3  C   UNL     1      31.467 -10.212 -21.822  0.00  0.00    -0.053 C 
BRANCH   3   4
ATOM      4  C   UNL     1      31.668  -9.036 -22.769  0.00  0.00    -0.047 C 
BRANCH   4   5
ATOM      5  N   UNL     1      32.314  -7.903 -22.068  0.00  0.00    +0.388 N 
ATOM      6  C   UNL     1      33.714  -7.631 -22.639  0.00  0.00    -0.095 C 
ATOM      7  C   UNL     1      31.482  -6.621 -22.217  0.00  0.00    -0.095 C 
ATOM      8  C   UNL     1      32.463  -8.201 -20.568  0.00  0.00    -0.095 C 
ENDBRANCH   4   5
ENDBRANCH   3   4
ENDBRANCH   1   2
BRANCH   1   9
ATOM      9  C   UNL     1      32.621 -13.986 -21.763  0.00  0.00    +0.005 C 
BRANCH   9  10
ATOM     10  C   UNL     1      32.984 -14.852 -20.553  0.00  0.00    +0.000 C 
BRANCH  10  11
ATOM     11  C   UNL     1      34.434 -15.345 -20.569  0.00  0.00    +0.000 C 
BRANCH  11  12
ATOM     12  C   UNL     1      34.708 -16.391 -21.651  0.00  0.00    +0.000 C 
BRANCH  12  13
ATOM     13  C   UNL     1      35.230 -17.694 -21.041  0.00  0.00    +0.000 C 
BRANCH  13  14
ATOM     14  C   UNL     1      34.524 -18.911 -21.640  0.00  0.00    +0.000 C 
BRANCH  14  15
ATOM     15  C   UNL     1      34.411 -20.046 -20.622  0.00  0.00    +0.000 C 
ATOM     16  C   UNL     1      32.960 -20.339 -20.274  0.00  0.00    +0.000 C 
ENDBRANCH  14  15
ENDBRANCH  13  14
ENDBRANCH  12  13
ENDBRANCH  11  12
ENDBRANCH  10  11
ENDBRANCH   9  10
ENDBRANCH   1   9
TORSDOF 10
ENDMDL
MODEL 9
REMARK VINA RESULT:      -6.2      2.763      8.362
REMARK  Name = 8153
REMARK  10 active torsions:
REMARK  status: ('A' for Active; 'I' for Inactive)
REMARK    1  A    between atoms: C_1  and  C_2
REMARK    2  A    between atoms: C_1  and  C_9
REMARK    3  A    between atoms: C_3  and  C_4
REMARK    4  A    between atoms: C_4  and  N_5
REMARK    5  A    between atoms: C_9  and  C_10
REMARK    6  A    between atoms: C_10  and  C_11
REMARK    7  A    between atoms: C_11  and  C_12
REMARK    8  A    between atoms: C_12  and  C_13
REMARK    9  A    between atoms: C_13  and  C_14
REMARK   10  A    between atoms: C_14  and  C_15
REMARK                            x       y       z     vdW  Elec       q    Type
REMARK                         _______ _______ _______ _____ _____    ______ ____
ROOT
ATOM      1  C   UNL     1      34.303 -22.371 -19.138  0.00  0.00    +0.026 C 
ENDROOT
BRANCH   1   2
ATOM      2  C   UNL     1      33.727 -21.019 -19.571  0.00  0.00    -0.033 C 
ATOM      3  C   UNL     1      34.473 -20.308 -20.707  0.00  0.00    -0.053 C 
BRANCH   3   4
ATOM      4  C   UNL     1      33.866 -18.993 -21.178  0.00  0.00    -0.047 C 
BRANCH   4   5
ATOM      5  N   UNL     1      34.923 -18.066 -21.645  0.00  0.00    +0.388 N 
ATOM      6  C   UNL     1      34.798 -16.700 -20.953  0.00  0.00    -0.095 C 
ATOM      7  C   UNL     1      36.318 -18.628 -21.337  0.00  0.00    -0.095 C 
ATOM      8  C   UNL     1      34.824 -17.842 -23.161  0.00  0.00    -0.095 C 
ENDBRANCH   4   5
ENDBRANCH   3   4
ENDBRANCH   1   2
BRANCH   1   9
ATOM      9  C   UNL     1      33.454 -23.085 -18.083  0.00  0.00    +0.005 C 
BRANCH   9  10
ATOM     10  C   UNL     1      34.165 -23.110 -16.728  0.00  0.00    +0.000 C 
BRANCH  10  11
ATOM     11  C   UNL     1      33.225 -23.391 -15.552  0.00  0.00    +0.000 C 
BRANCH  11  12
ATOM     12  C   UNL     1      31.744 -23.251 -15.910  0.00  0.00    +0.000 C 
BRANCH  12  13
ATOM     13  C   UNL     1      30.931 -22.743 -14.717  0.00  0.00    +0.000 C 
BRANCH  13  14
ATOM     14  C   UNL     1      29.448 -22.612 -15.069  0.00  0.00    +0.000 C 
BRANCH  14  15
ATOM     15  C   UNL     1      28.897 -23.916 -15.648  0.00  0.00    +0.000 C 
ATOM     16  C   UNL     1      28.198 -23.681 -16.978  0.00  0.00    +0.000 C 
ENDBRANCH  14  15
ENDBRANCH  13  14
ENDBRANCH  12  13
ENDBRANCH  11  12
ENDBRANCH  10  11
ENDBRANCH   9  10
ENDBRANCH   1   9
TORSDOF 10
ENDMDL
