MODEL 1
REMARK VINA RESULT:      -4.9      0.000      0.000
REMARK  Name = 9084
REMARK  2 active torsions:
REMARK  status: ('A' for Active; 'I' for Inactive)
REMARK    1  A    between atoms: C_1  and  C_4
REMARK    2  A    between atoms: C_1  and  C_7
REMARK                            x       y       z     vdW  Elec       q    Type
REMARK                         _______ _______ _______ _____ _____    ______ ____
ROOT
ATOM      1  C   UNL     1      27.890 -22.442 -15.813  0.00  0.00    +0.228 C 
ENDROOT
BRANCH   1   4
ATOM      2  O   UNL     1      25.569 -22.040 -15.751  0.00  0.00    -0.245 OA
ATOM      3  O   UNL     1      26.780 -21.280 -17.537  0.00  0.00    -0.245 OA
ATOM      4  C   UNL     1      26.620 -21.866 -16.430  0.00  0.00    +0.376 C 
ENDBRANCH   1   4
BRANCH   1   7
ATOM      5  O   UNL     1      27.838 -24.202 -17.380  0.00  0.00    -0.245 OA
ATOM      6  O   UNL     1      29.775 -23.016 -17.106  0.00  0.00    -0.245 OA
ATOM      7  C   UNL     1      28.567 -23.303 -16.874  0.00  0.00    +0.376 C 
ENDBRANCH   1   7
TORSDOF 2
ENDMDL
MODEL 2
REMARK VINA RESULT:      -4.8     10.923     12.528
REMARK  Name = 9084
REMARK  2 active torsions:
REMARK  status: ('A' for Active; 'I' for Inactive)
REMARK    1  A    between atoms: C_1  and  C_4
REMARK    2  A    between atoms: C_1  and  C_7
REMARK                            x       y       z     vdW  Elec       q    Type
REMARK                         _______ _______ _______ _____ _____    ______ ____
ROOT
ATOM      1  C   UNL     1      39.394 -25.538 -13.886  0.00  0.00    +0.228 C 
ENDROOT
BRANCH   1   4
ATOM      2  O   UNL     1      37.941 -27.248 -14.605  0.00  0.00    -0.245 OA
ATOM      3  O   UNL     1      37.383 -25.069 -15.021  0.00  0.00    -0.245 OA
ATOM      4  C   UNL     1      38.114 -25.997 -14.575  0.00  0.00    +0.376 C 
ENDBRANCH   1   4
BRANCH   1   7
ATOM      5  O   UNL     1      41.363 -26.831 -13.937  0.00  0.00    -0.245 OA
ATOM      6  O   UNL     1      40.605 -25.885 -15.877  0.00  0.00    -0.245 OA
ATOM      7  C   UNL     1      40.568 -26.148 -14.643  0.00  0.00    +0.376 C 
ENDBRANCH   1   7
TORSDOF 2
ENDMDL
MODEL 3
REMARK VINA RESULT:      -4.8      9.794     11.218
REMARK  Name = 9084
REMARK  2 active torsions:
REMARK  status: ('A' for Active; 'I' for Inactive)
REMARK    1  A    between atoms: C_1  and  C_4
REMARK    2  A    between atoms: C_1  and  C_7
REMARK                            x       y       z     vdW  Elec       q    Type
REMARK                         _______ _______ _______ _____ _____    ______ ____
ROOT
ATOM      1  C   UNL     1      36.627 -23.373 -11.957  0.00  0.00    +0.228 C 
ENDROOT
BRANCH   1   4
ATOM      2  O   UNL     1      38.148 -25.128 -12.357  0.00  0.00    -0.245 OA
ATOM      3  O   UNL     1      38.948 -23.105 -11.651  0.00  0.00    -0.245 OA
ATOM      4  C   UNL     1      38.049 -23.924 -11.988  0.00  0.00    +0.376 C 
ENDBRANCH   1   4
BRANCH   1   7
ATOM      5  O   UNL     1      34.891 -24.903 -11.512  0.00  0.00    -0.245 OA
ATOM      6  O   UNL     1      36.180 -24.151  -9.778  0.00  0.00    -0.245 OA
ATOM      7  C   UNL     1      35.823 -24.230 -10.987  0.00  0.00    +0.376 C 
ENDBRANCH   1   7
TORSDOF 2
ENDMDL
MODEL 4
REMARK VINA RESULT:      -4.8      9.788     10.951
REMARK  Name = 9084
REMARK  2 active torsions:
REMARK  status: ('A' for Active; 'I' for Inactive)
REMARK    1  A    between atoms: C_1  and  C_4
REMARK    2  A    between atoms: C_1  and  C_7
REMARK                            x       y       z     vdW  Elec       q    Type
REMARK                         _______ _______ _______ _____ _____    ______ ____
ROOT
ATOM      1  C   UNL     1      36.616 -23.427 -12.040  0.00  0.00    +0.228 C 
ENDROOT
BRANCH   1   4
ATOM      2  O   UNL     1      36.221 -24.108  -9.819  0.00  0.00    -0.245 OA
ATOM      3  O   UNL     1      34.867 -24.904 -11.482  0.00  0.00    -0.245 OA
ATOM      4  C   UNL     1      35.824 -24.229 -11.013  0.00  0.00    +0.376 C 
ENDBRANCH   1   4
BRANCH   1   7
ATOM      5  O   UNL     1      38.188 -25.151 -12.369  0.00  0.00    -0.245 OA
ATOM      6  O   UNL     1      38.918 -23.105 -11.650  0.00  0.00    -0.245 OA
ATOM      7  C   UNL     1      38.050 -23.944 -12.022  0.00  0.00    +0.376 C 
ENDBRANCH   1   7
TORSDOF 2
ENDMDL
MODEL 5
REMARK VINA RESULT:      -4.7     10.752     12.654
REMARK  Name = 9084
REMARK  2 active torsions:
REMARK  status: ('A' for Active; 'I' for Inactive)
REMARK    1  A    between atoms: C_1  and  C_4
REMARK    2  A    between atoms: C_1  and  C_7
REMARK                            x       y       z     vdW  Elec       q    Type
REMARK                         _______ _______ _______ _____ _____    ______ ____
ROOT
ATOM      1  C   UNL     1      39.181 -25.270 -14.258  0.00  0.00    +0.228 C 
ENDROOT
BRANCH   1   4
ATOM      2  O   UNL     1      40.642 -25.999 -15.957  0.00  0.00    -0.245 OA
ATOM      3  O   UNL     1      41.078 -26.587 -13.789  0.00  0.00    -0.245 OA
ATOM      4  C   UNL     1      40.422 -26.031 -14.713  0.00  0.00    +0.376 C 
ENDBRANCH   1   4
BRANCH   1   7
ATOM      5  O   UNL     1      37.079 -25.293 -15.323  0.00  0.00    -0.245 OA
ATOM      6  O   UNL     1      37.985 -27.270 -14.609  0.00  0.00    -0.245 OA
ATOM      7  C   UNL     1      37.963 -26.019 -14.785  0.00  0.00    +0.376 C 
ENDBRANCH   1   7
TORSDOF 2
ENDMDL
MODEL 6
REMARK VINA RESULT:      -4.7      1.071      3.110
REMARK  Name = 9084
REMARK  2 active torsions:
REMARK  status: ('A' for Active; 'I' for Inactive)
REMARK    1  A    between atoms: C_1  and  C_4
REMARK    2  A    between atoms: C_1  and  C_7
REMARK                            x       y       z     vdW  Elec       q    Type
REMARK                         _______ _______ _______ _____ _____    ______ ____
ROOT
ATOM      1  C   UNL     1      28.407 -22.498 -16.385  0.00  0.00    +0.228 C 
ENDROOT
BRANCH   1   4
ATOM      2  O   UNL     1      27.759 -24.447 -17.540  0.00  0.00    -0.245 OA
ATOM      3  O   UNL     1      28.841 -24.652 -15.535  0.00  0.00    -0.245 OA
ATOM      4  C   UNL     1      28.325 -24.016 -16.496  0.00  0.00    +0.376 C 
ENDBRANCH   1   4
BRANCH   1   7
ATOM      5  O   UNL     1      26.191 -22.259 -15.620  0.00  0.00    -0.245 OA
ATOM      6  O   UNL     1      26.801 -21.260 -17.586  0.00  0.00    -0.245 OA
ATOM      7  C   UNL     1      26.994 -21.948 -16.545  0.00  0.00    +0.376 C 
ENDBRANCH   1   7
TORSDOF 2
ENDMDL
MODEL 7
REMARK VINA RESULT:      -4.6     11.749     12.622
REMARK  Name = 9084
REMARK  2 active torsions:
REMARK  status: ('A' for Active; 'I' for Inactive)
REMARK    1  A    between atoms: C_1  and  C_4
REMARK    2  A    between atoms: C_1  and  C_7
REMARK                            x       y       z     vdW  Elec       q    Type
REMARK                         _______ _______ _______ _____ _____    ______ ____
ROOT
ATOM      1  C   UNL     1      38.413 -24.764 -13.918  0.00  0.00    +0.228 C 
ENDROOT
BRANCH   1   4
ATOM      2  O   UNL     1      40.756 -24.845 -14.155  0.00  0.00    -0.245 OA
ATOM      3  O   UNL     1      39.526 -26.715 -14.629  0.00  0.00    -0.245 OA
ATOM      4  C   UNL     1      39.691 -25.515 -14.273  0.00  0.00    +0.376 C 
ENDBRANCH   1   4
BRANCH   1   7
ATOM      5  O   UNL     1      38.693 -23.700 -11.834  0.00  0.00    -0.245 OA
ATOM      6  O   UNL     1      37.814 -25.811 -11.894  0.00  0.00    -0.245 OA
ATOM      7  C   UNL     1      38.291 -24.756 -12.398  0.00  0.00    +0.376 C 
ENDBRANCH   1   7
TORSDOF 2
ENDMDL
MODEL 8
REMARK VINA RESULT:      -4.5      1.328      3.391
REMARK  Name = 9084
REMARK  2 active torsions:
REMARK  status: ('A' for Active; 'I' for Inactive)
REMARK    1  A    between atoms: C_1  and  C_4
REMARK    2  A    between atoms: C_1  and  C_7
REMARK                            x       y       z     vdW  Elec       q    Type
REMARK                         _______ _______ _______ _____ _____    ______ ____
ROOT
ATOM      1  C   UNL     1      28.863 -22.750 -15.738  0.00  0.00    +0.228 C 
ENDROOT
BRANCH   1   4
ATOM      2  O   UNL     1      30.759 -22.447 -17.104  0.00  0.00    -0.245 OA
ATOM      3  O   UNL     1      30.656 -24.280 -15.738  0.00  0.00    -0.245 OA
ATOM      4  C   UNL     1      30.226 -23.206 -16.246  0.00  0.00    +0.376 C 
ENDBRANCH   1   4
BRANCH   1   7
ATOM      5  O   UNL     1      27.731 -23.849 -17.489  0.00  0.00    -0.245 OA
ATOM      6  O   UNL     1      27.432 -21.598 -17.214  0.00  0.00    -0.245 OA
ATOM      7  C   UNL     1      27.911 -22.731 -16.929  0.00  0.00    +0.376 C 
ENDBRANCH   1   7
TORSDOF 2
ENDMDL
MODEL 9
REMARK VINA RESULT:      -4.5      1.320      2.122
REMARK  Name = 9084
REMARK  2 active torsions:
REMARK  status: ('A' for Active; 'I' for Inactive)
REMARK    1  A    between atoms: C_1  and  C_4
REMARK    2  A    between atoms: C_1  and  C_7
REMARK                            x       y       z     vdW  Elec       q    Type
REMARK                         _______ _______ _______ _____ _____    ______ ____
ROOT
ATOM      1  C   UNL     1      28.792 -22.842 -15.731  0.00  0.00    +0.228 C 
ENDROOT
BRANCH   1   4
ATOM      2  O   UNL     1      27.444 -21.581 -17.197  0.00  0.00    -0.245 OA
ATOM      3  O   UNL     1      27.688 -23.826 -17.566  0.00  0.00    -0.245 OA
ATOM      4  C   UNL     1      27.881 -22.741 -16.950  0.00  0.00    +0.376 C 
ENDBRANCH   1   4
BRANCH   1   7
ATOM      5  O   UNL     1      30.636 -24.309 -15.711  0.00  0.00    -0.245 OA
ATOM      6  O   UNL     1      30.693 -22.472 -17.073  0.00  0.00    -0.245 OA
ATOM      7  C   UNL     1      30.176 -23.250 -16.224  0.00  0.00    +0.376 C 
ENDBRANCH   1   7
TORSDOF 2
ENDMDL
