MODEL 1
REMARK VINA RESULT:      -8.5      0.000      0.000
REMARK  Name = 6918612
REMARK  7 active torsions:
REMARK  status: ('A' for Active; 'I' for Inactive)
REMARK    1  A    between atoms: O_1  and  C_9
REMARK    2  A    between atoms: O_1  and  C_15
REMARK    3  A    between atoms: C_5  and  O_12
REMARK    4  A    between atoms: C_15  and  C_16
REMARK    5  A    between atoms: C_16  and  C_17
REMARK    6  A    between atoms: C_16  and  C_23
REMARK    7  A    between atoms: C_23  and  O_24
REMARK                            x       y       z     vdW  Elec       q    Type
REMARK                         _______ _______ _______ _____ _____    ______ ____
ROOT
ATOM      1  O   UNL     1      34.077 -23.313 -14.710  0.00  0.00    -0.452 OA
ENDROOT
BRANCH   1   9
ATOM      2  N   UNL     1      37.586 -24.704 -13.764  0.00  0.00    +0.390 N 
ATOM      3  C   UNL     1      36.311 -25.431 -13.694  0.00  0.00    -0.027 C 
ATOM      4  C   UNL     1      37.187 -23.294 -13.748  0.00  0.00    -0.052 C 
ATOM      5  C   UNL     1      35.670 -24.714 -12.494  0.00  0.00    +0.090 C 
ATOM      6  C   UNL     1      36.267 -23.298 -12.519  0.00  0.00    +0.006 C 
ATOM      7  C   UNL     1      35.476 -25.254 -14.980  0.00  0.00    +0.025 C 
ATOM      8  C   UNL     1      36.442 -22.879 -15.034  0.00  0.00    +0.023 C 
ATOM      9  C   UNL     1      35.249 -23.787 -15.374  0.00  0.00    +0.165 C 
ATOM     10  C   UNL     1      38.489 -25.100 -14.828  0.00  0.00    -0.100 C 
ATOM     11  H   UNL     1      38.191 -24.931 -12.975  0.00  0.00    -0.080 HD
BRANCH   5  12
ATOM     12  O   UNL     1      36.055 -25.375 -11.291  0.00  0.00    -0.387 OA
ATOM     13  H   UNL     1      35.413 -25.174 -10.592  0.00  0.00    +0.210 HD
ENDBRANCH   5  12
ENDBRANCH   1   9
BRANCH   1  15
ATOM     14  O   UNL     1      32.808 -23.344 -16.633  0.00  0.00    -0.250 OA
ATOM     15  C   UNL     1      32.910 -23.423 -15.415  0.00  0.00    +0.323 C 
BRANCH  15  16
ATOM     16  C   UNL     1      31.750 -23.655 -14.451  0.00  0.00    +0.150 C 
BRANCH  16  17
ATOM     17  C   UNL     1      30.413 -23.555 -15.170  0.00  0.00    -0.010 C 
ATOM     18  C   UNL     1      29.951 -24.648 -15.876  0.00  0.00    -0.004 C 
ATOM     19  C   UNL     1      29.700 -22.375 -15.094  0.00  0.00    -0.004 C 
ATOM     20  C   UNL     1      28.725 -24.557 -16.534  0.00  0.00    -0.000 C 
ATOM     21  C   UNL     1      28.474 -22.284 -15.753  0.00  0.00    -0.000 C 
ATOM     22  C   UNL     1      27.985 -23.375 -16.473  0.00  0.00    -0.000 C 
ENDBRANCH  16  17
BRANCH  16  23
ATOM     23  C   UNL     1      31.921 -24.996 -13.722  0.00  0.00    +0.153 C 
BRANCH  23  24
ATOM     24  O   UNL     1      30.875 -25.156 -12.768  0.00  0.00    -0.381 OA
ATOM     25  H   UNL     1      31.066 -24.615 -11.986  0.00  0.00    +0.210 HD
ENDBRANCH  23  24
ENDBRANCH  16  23
ENDBRANCH  15  16
ENDBRANCH   1  15
TORSDOF 7
ENDMDL
MODEL 2
REMARK VINA RESULT:      -8.5      1.669      2.724
REMARK  Name = 6918612
REMARK  7 active torsions:
REMARK  status: ('A' for Active; 'I' for Inactive)
REMARK    1  A    between atoms: O_1  and  C_9
REMARK    2  A    between atoms: O_1  and  C_15
REMARK    3  A    between atoms: C_5  and  O_12
REMARK    4  A    between atoms: C_15  and  C_16
REMARK    5  A    between atoms: C_16  and  C_17
REMARK    6  A    between atoms: C_16  and  C_23
REMARK    7  A    between atoms: C_23  and  O_24
REMARK                            x       y       z     vdW  Elec       q    Type
REMARK                         _______ _______ _______ _____ _____    ______ ____
ROOT
ATOM      1  O   UNL     1      34.411 -24.579 -13.925  0.00  0.00    -0.452 OA
ENDROOT
BRANCH   1   9
ATOM      2  N   UNL     1      38.156 -24.729 -12.875  0.00  0.00    +0.390 N 
ATOM      3  C   UNL     1      37.624 -24.196 -14.136  0.00  0.00    -0.027 C 
ATOM      4  C   UNL     1      37.090 -25.612 -12.391  0.00  0.00    -0.052 C 
ATOM      5  C   UNL     1      37.197 -25.509 -14.814  0.00  0.00    +0.090 C 
ATOM      6  C   UNL     1      36.860 -26.456 -13.652  0.00  0.00    +0.006 C 
ATOM      7  C   UNL     1      36.422 -23.255 -13.903  0.00  0.00    +0.025 C 
ATOM      8  C   UNL     1      35.826 -24.832 -11.971  0.00  0.00    +0.023 C 
ATOM      9  C   UNL     1      35.303 -23.878 -13.056  0.00  0.00    +0.165 C 
ATOM     10  C   UNL     1      38.653 -23.750 -11.928  0.00  0.00    -0.100 C 
ATOM     11  H   UNL     1      39.027 -25.239 -13.021  0.00  0.00    -0.080 HD
BRANCH   5  12
ATOM     12  O   UNL     1      38.294 -26.032 -15.558  0.00  0.00    -0.387 OA
ATOM     13  H   UNL     1      38.050 -26.093 -16.494  0.00  0.00    +0.210 HD
ENDBRANCH   5  12
ENDBRANCH   1   9
BRANCH   1  15
ATOM     14  O   UNL     1      32.511 -23.562 -13.112  0.00  0.00    -0.250 OA
ATOM     15  C   UNL     1      33.152 -24.055 -14.031  0.00  0.00    +0.323 C 
BRANCH  15  16
ATOM     16  C   UNL     1      32.664 -24.183 -15.472  0.00  0.00    +0.150 C 
BRANCH  16  17
ATOM     17  C   UNL     1      31.158 -23.989 -15.558  0.00  0.00    -0.010 C 
ATOM     18  C   UNL     1      30.328 -24.957 -15.029  0.00  0.00    -0.004 C 
ATOM     19  C   UNL     1      30.664 -22.849 -16.161  0.00  0.00    -0.004 C 
ATOM     20  C   UNL     1      28.947 -24.779 -15.107  0.00  0.00    -0.000 C 
ATOM     21  C   UNL     1      29.284 -22.671 -16.240  0.00  0.00    -0.000 C 
ATOM     22  C   UNL     1      28.424 -23.636 -15.713  0.00  0.00    -0.000 C 
ENDBRANCH  16  17
BRANCH  16  23
ATOM     23  C   UNL     1      33.430 -23.213 -16.383  0.00  0.00    +0.153 C 
BRANCH  23  24
ATOM     24  O   UNL     1      34.619 -23.840 -16.854  0.00  0.00    -0.381 OA
ATOM     25  H   UNL     1      34.415 -24.744 -17.141  0.00  0.00    +0.210 HD
ENDBRANCH  23  24
ENDBRANCH  16  23
ENDBRANCH  15  16
ENDBRANCH   1  15
TORSDOF 7
ENDMDL
MODEL 3
REMARK VINA RESULT:      -8.3      1.477      1.643
REMARK  Name = 6918612
REMARK  7 active torsions:
REMARK  status: ('A' for Active; 'I' for Inactive)
REMARK    1  A    between atoms: O_1  and  C_9
REMARK    2  A    between atoms: O_1  and  C_15
REMARK    3  A    between atoms: C_5  and  O_12
REMARK    4  A    between atoms: C_15  and  C_16
REMARK    5  A    between atoms: C_16  and  C_17
REMARK    6  A    between atoms: C_16  and  C_23
REMARK    7  A    between atoms: C_23  and  O_24
REMARK                            x       y       z     vdW  Elec       q    Type
REMARK                         _______ _______ _______ _____ _____    ______ ____
ROOT
ATOM      1  O   UNL     1      34.995 -24.709 -14.834  0.00  0.00    -0.452 OA
ENDROOT
BRANCH   1   9
ATOM      2  N   UNL     1      38.714 -25.372 -13.901  0.00  0.00    +0.390 N 
ATOM      3  C   UNL     1      37.634 -26.368 -13.945  0.00  0.00    -0.027 C 
ATOM      4  C   UNL     1      38.008 -24.095 -13.766  0.00  0.00    -0.052 C 
ATOM      5  C   UNL     1      36.833 -25.936 -12.706  0.00  0.00    +0.090 C 
ATOM      6  C   UNL     1      37.096 -24.427 -12.576  0.00  0.00    +0.006 C 
ATOM      7  C   UNL     1      36.797 -26.253 -15.238  0.00  0.00    +0.025 C 
ATOM      8  C   UNL     1      37.205 -23.730 -15.033  0.00  0.00    +0.023 C 
ATOM      9  C   UNL     1      36.252 -24.842 -15.499  0.00  0.00    +0.165 C 
ATOM     10  C   UNL     1      39.696 -25.449 -14.966  0.00  0.00    -0.100 C 
ATOM     11  H   UNL     1      39.344 -25.537 -13.117  0.00  0.00    -0.080 HD
BRANCH   5  12
ATOM     12  O   UNL     1      37.340 -26.612 -11.559  0.00  0.00    -0.387 OA
ATOM     13  H   UNL     1      36.959 -26.220 -10.757  0.00  0.00    +0.210 HD
ENDBRANCH   5  12
ENDBRANCH   1   9
BRANCH   1  15
ATOM     14  O   UNL     1      34.067 -23.703 -16.688  0.00  0.00    -0.250 OA
ATOM     15  C   UNL     1      34.051 -23.969 -15.493  0.00  0.00    +0.323 C 
BRANCH  15  16
ATOM     16  C   UNL     1      32.975 -23.518 -14.509  0.00  0.00    +0.150 C 
BRANCH  16  17
ATOM     17  C   UNL     1      31.582 -23.772 -15.067  0.00  0.00    -0.010 C 
ATOM     18  C   UNL     1      30.912 -24.920 -14.693  0.00  0.00    -0.004 C 
ATOM     19  C   UNL     1      31.029 -22.847 -15.929  0.00  0.00    -0.004 C 
ATOM     20  C   UNL     1      29.635 -25.152 -15.204  0.00  0.00    -0.000 C 
ATOM     21  C   UNL     1      29.753 -23.080 -16.440  0.00  0.00    -0.000 C 
ATOM     22  C   UNL     1      29.055 -24.232 -16.078  0.00  0.00    -0.000 C 
ENDBRANCH  16  17
BRANCH  16  23
ATOM     23  C   UNL     1      33.187 -24.188 -13.143  0.00  0.00    +0.153 C 
BRANCH  23  24
ATOM     24  O   UNL     1      33.998 -23.352 -12.324  0.00  0.00    -0.381 OA
ATOM     25  H   UNL     1      34.173 -23.797 -11.481  0.00  0.00    +0.210 HD
ENDBRANCH  23  24
ENDBRANCH  16  23
ENDBRANCH  15  16
ENDBRANCH   1  15
TORSDOF 7
ENDMDL
MODEL 4
REMARK VINA RESULT:      -8.3     14.480     16.231
REMARK  Name = 6918612
REMARK  7 active torsions:
REMARK  status: ('A' for Active; 'I' for Inactive)
REMARK    1  A    between atoms: O_1  and  C_9
REMARK    2  A    between atoms: O_1  and  C_15
REMARK    3  A    between atoms: C_5  and  O_12
REMARK    4  A    between atoms: C_15  and  C_16
REMARK    5  A    between atoms: C_16  and  C_17
REMARK    6  A    between atoms: C_16  and  C_23
REMARK    7  A    between atoms: C_23  and  O_24
REMARK                            x       y       z     vdW  Elec       q    Type
REMARK                         _______ _______ _______ _____ _____    ______ ____
ROOT
ATOM      1  O   UNL     1      33.033 -10.542 -22.845  0.00  0.00    -0.452 OA
ENDROOT
BRANCH   1   9
ATOM      2  N   UNL     1      32.421  -6.707 -22.609  0.00  0.00    +0.390 N 
ATOM      3  C   UNL     1      33.653  -7.418 -22.241  0.00  0.00    -0.027 C 
ATOM      4  C   UNL     1      31.389  -7.747 -22.565  0.00  0.00    -0.052 C 
ATOM      5  C   UNL     1      33.173  -8.123 -20.962  0.00  0.00    +0.090 C 
ATOM      6  C   UNL     1      31.664  -8.326 -21.170  0.00  0.00    +0.006 C 
ATOM      7  C   UNL     1      34.080  -8.428 -23.327  0.00  0.00    +0.025 C 
ATOM      8  C   UNL     1      31.567  -8.799 -23.680  0.00  0.00    +0.023 C 
ATOM      9  C   UNL     1      32.974  -9.417 -23.723  0.00  0.00    +0.165 C 
ATOM     10  C   UNL     1      32.479  -5.916 -23.824  0.00  0.00    -0.100 C 
ATOM     11  H   UNL     1      32.217  -5.948 -21.958  0.00  0.00    -0.080 HD
BRANCH   5  12
ATOM     12  O   UNL     1      33.393  -7.269 -19.843  0.00  0.00    -0.387 OA
ATOM     13  H   UNL     1      32.951  -7.637 -19.063  0.00  0.00    +0.210 HD
ENDBRANCH   5  12
ENDBRANCH   1   9
BRANCH   1  15
ATOM     14  O   UNL     1      33.825 -11.987 -24.455  0.00  0.00    -0.250 OA
ATOM     15  C   UNL     1      33.161 -11.762 -23.451  0.00  0.00    +0.323 C 
BRANCH  15  16
ATOM     16  C   UNL     1      32.344 -12.801 -22.688  0.00  0.00    +0.150 C 
BRANCH  16  17
ATOM     17  C   UNL     1      33.201 -13.999 -22.308  0.00  0.00    -0.010 C 
ATOM     18  C   UNL     1      33.677 -14.824 -23.308  0.00  0.00    -0.004 C 
ATOM     19  C   UNL     1      33.478 -14.227 -20.975  0.00  0.00    -0.004 C 
ATOM     20  C   UNL     1      34.464 -15.921 -22.960  0.00  0.00    -0.000 C 
ATOM     21  C   UNL     1      34.264 -15.325 -20.628  0.00  0.00    -0.000 C 
ATOM     22  C   UNL     1      34.758 -16.173 -21.620  0.00  0.00    -0.000 C 
ENDBRANCH  16  17
BRANCH  16  23
ATOM     23  C   UNL     1      31.668 -12.158 -21.468  0.00  0.00    +0.153 C 
BRANCH  23  24
ATOM     24  O   UNL     1      30.431 -11.573 -21.863  0.00  0.00    -0.381 OA
ATOM     25  H   UNL     1      30.301 -11.704 -22.815  0.00  0.00    +0.210 HD
ENDBRANCH  23  24
ENDBRANCH  16  23
ENDBRANCH  15  16
ENDBRANCH   1  15
TORSDOF 7
ENDMDL
MODEL 5
REMARK VINA RESULT:      -8.2     15.681     17.511
REMARK  Name = 6918612
REMARK  7 active torsions:
REMARK  status: ('A' for Active; 'I' for Inactive)
REMARK    1  A    between atoms: O_1  and  C_9
REMARK    2  A    between atoms: O_1  and  C_15
REMARK    3  A    between atoms: C_5  and  O_12
REMARK    4  A    between atoms: C_15  and  C_16
REMARK    5  A    between atoms: C_16  and  C_17
REMARK    6  A    between atoms: C_16  and  C_23
REMARK    7  A    between atoms: C_23  and  O_24
REMARK                            x       y       z     vdW  Elec       q    Type
REMARK                         _______ _______ _______ _____ _____    ______ ____
ROOT
ATOM      1  O   UNL     1      32.454  -9.981 -23.643  0.00  0.00    -0.452 OA
ENDROOT
BRANCH   1   9
ATOM      2  N   UNL     1      32.289  -6.292 -22.416  0.00  0.00    +0.390 N 
ATOM      3  C   UNL     1      31.871  -6.794 -23.732  0.00  0.00    -0.027 C 
ATOM      4  C   UNL     1      33.209  -7.322 -21.925  0.00  0.00    -0.052 C 
ATOM      5  C   UNL     1      33.248  -7.101 -24.342  0.00  0.00    +0.090 C 
ATOM      6  C   UNL     1      34.143  -7.435 -23.138  0.00  0.00    +0.006 C 
ATOM      7  C   UNL     1      30.999  -8.063 -23.614  0.00  0.00    +0.025 C 
ATOM      8  C   UNL     1      32.492  -8.652 -21.614  0.00  0.00    +0.023 C 
ATOM      9  C   UNL     1      31.643  -9.181 -22.782  0.00  0.00    +0.165 C 
ATOM     10  C   UNL     1      31.222  -5.906 -21.512  0.00  0.00    -0.100 C 
ATOM     11  H   UNL     1      32.747  -5.384 -22.489  0.00  0.00    -0.080 HD
BRANCH   5  12
ATOM     12  O   UNL     1      33.742  -5.937 -24.999  0.00  0.00    -0.387 OA
ATOM     13  H   UNL     1      34.539  -5.622 -24.545  0.00  0.00    +0.210 HD
ENDBRANCH   5  12
ENDBRANCH   1   9
BRANCH   1  15
ATOM     14  O   UNL     1      31.889 -11.910 -22.516  0.00  0.00    -0.250 OA
ATOM     15  C   UNL     1      32.643 -11.277 -23.245  0.00  0.00    +0.323 C 
BRANCH  15  16
ATOM     16  C   UNL     1      33.941 -11.812 -23.843  0.00  0.00    +0.150 C 
BRANCH  16  17
ATOM     17  C   UNL     1      33.739 -13.200 -24.432  0.00  0.00    -0.010 C 
ATOM     18  C   UNL     1      34.070 -14.304 -23.671  0.00  0.00    -0.004 C 
ATOM     19  C   UNL     1      33.230 -13.316 -25.711  0.00  0.00    -0.004 C 
ATOM     20  C   UNL     1      33.884 -15.576 -24.211  0.00  0.00    -0.000 C 
ATOM     21  C   UNL     1      33.046 -14.588 -26.250  0.00  0.00    -0.000 C 
ATOM     22  C   UNL     1      33.372 -15.719 -25.501  0.00  0.00    -0.000 C 
ENDBRANCH  16  17
BRANCH  16  23
ATOM     23  C   UNL     1      34.505 -10.819 -24.869  0.00  0.00    +0.153 C 
BRANCH  23  24
ATOM     24  O   UNL     1      35.581 -10.092 -24.285  0.00  0.00    -0.381 OA
ATOM     25  H   UNL     1      35.229  -9.333 -23.794  0.00  0.00    +0.210 HD
ENDBRANCH  23  24
ENDBRANCH  16  23
ENDBRANCH  15  16
ENDBRANCH   1  15
TORSDOF 7
ENDMDL
MODEL 6
REMARK VINA RESULT:      -8.1      1.769      2.740
REMARK  Name = 6918612
REMARK  7 active torsions:
REMARK  status: ('A' for Active; 'I' for Inactive)
REMARK    1  A    between atoms: O_1  and  C_9
REMARK    2  A    between atoms: O_1  and  C_15
REMARK    3  A    between atoms: C_5  and  O_12
REMARK    4  A    between atoms: C_15  and  C_16
REMARK    5  A    between atoms: C_16  and  C_17
REMARK    6  A    between atoms: C_16  and  C_23
REMARK    7  A    between atoms: C_23  and  O_24
REMARK                            x       y       z     vdW  Elec       q    Type
REMARK                         _______ _______ _______ _____ _____    ______ ____
ROOT
ATOM      1  O   UNL     1      35.175 -24.313 -15.208  0.00  0.00    -0.452 OA
ENDROOT
BRANCH   1   9
ATOM      2  N   UNL     1      38.215 -25.004 -12.878  0.00  0.00    +0.390 N 
ATOM      3  C   UNL     1      37.029 -25.855 -13.040  0.00  0.00    -0.027 C 
ATOM      4  C   UNL     1      37.767 -23.687 -13.340  0.00  0.00    -0.052 C 
ATOM      5  C   UNL     1      35.984 -24.983 -12.325  0.00  0.00    +0.090 C 
ATOM      6  C   UNL     1      36.485 -23.542 -12.509  0.00  0.00    +0.006 C 
ATOM      7  C   UNL     1      36.673 -26.071 -14.527  0.00  0.00    +0.025 C 
ATOM      8  C   UNL     1      37.485 -23.661 -14.858  0.00  0.00    +0.023 C 
ATOM      9  C   UNL     1      36.525 -24.767 -15.324  0.00  0.00    +0.165 C 
ATOM     10  C   UNL     1      39.444 -25.503 -13.466  0.00  0.00    -0.100 C 
ATOM     11  H   UNL     1      38.526 -24.974 -11.907  0.00  0.00    -0.080 HD
BRANCH   5  12
ATOM     12  O   UNL     1      35.967 -25.312 -10.938  0.00  0.00    -0.387 OA
ATOM     13  H   UNL     1      35.568 -24.583 -10.438  0.00  0.00    +0.210 HD
ENDBRANCH   5  12
ENDBRANCH   1   9
BRANCH   1  15
ATOM     14  O   UNL     1      35.442 -22.131 -15.897  0.00  0.00    -0.250 OA
ATOM     15  C   UNL     1      34.856 -23.205 -15.945  0.00  0.00    +0.323 C 
BRANCH  15  16
ATOM     16  C   UNL     1      33.653 -23.510 -16.832  0.00  0.00    +0.150 C 
BRANCH  16  17
ATOM     17  C   UNL     1      32.349 -23.286 -16.081  0.00  0.00    -0.010 C 
ATOM     18  C   UNL     1      31.211 -22.968 -16.796  0.00  0.00    -0.004 C 
ATOM     19  C   UNL     1      32.340 -23.410 -14.706  0.00  0.00    -0.004 C 
ATOM     20  C   UNL     1      30.016 -22.764 -16.108  0.00  0.00    -0.000 C 
ATOM     21  C   UNL     1      31.145 -23.205 -14.018  0.00  0.00    -0.000 C 
ATOM     22  C   UNL     1      29.982 -22.883 -14.718  0.00  0.00    -0.000 C 
ENDBRANCH  16  17
BRANCH  16  23
ATOM     23  C   UNL     1      33.726 -22.692 -18.130  0.00  0.00    +0.153 C 
BRANCH  23  24
ATOM     24  O   UNL     1      35.067 -22.675 -18.607  0.00  0.00    -0.381 OA
ATOM     25  H   UNL     1      35.659 -23.014 -17.918  0.00  0.00    +0.210 HD
ENDBRANCH  23  24
ENDBRANCH  16  23
ENDBRANCH  15  16
ENDBRANCH   1  15
TORSDOF 7
ENDMDL
MODEL 7
REMARK VINA RESULT:      -7.9     10.174     12.214
REMARK  Name = 6918612
REMARK  7 active torsions:
REMARK  status: ('A' for Active; 'I' for Inactive)
REMARK    1  A    between atoms: O_1  and  C_9
REMARK    2  A    between atoms: O_1  and  C_15
REMARK    3  A    between atoms: C_5  and  O_12
REMARK    4  A    between atoms: C_15  and  C_16
REMARK    5  A    between atoms: C_16  and  C_17
REMARK    6  A    between atoms: C_16  and  C_23
REMARK    7  A    between atoms: C_23  and  O_24
REMARK                            x       y       z     vdW  Elec       q    Type
REMARK                         _______ _______ _______ _____ _____    ______ ____
ROOT
ATOM      1  O   UNL     1      34.376 -16.086 -22.157  0.00  0.00    -0.452 OA
ENDROOT
BRANCH   1   9
ATOM      2  N   UNL     1      32.746 -12.753 -23.331  0.00  0.00    +0.390 N 
ATOM      3  C   UNL     1      32.135 -14.088 -23.382  0.00  0.00    -0.027 C 
ATOM      4  C   UNL     1      34.183 -13.027 -23.254  0.00  0.00    -0.052 C 
ATOM      5  C   UNL     1      32.971 -14.711 -24.513  0.00  0.00    +0.090 C 
ATOM      6  C   UNL     1      34.327 -13.993 -24.439  0.00  0.00    +0.006 C 
ATOM      7  C   UNL     1      32.310 -14.853 -22.053  0.00  0.00    +0.025 C 
ATOM      8  C   UNL     1      34.587 -13.681 -21.916  0.00  0.00    +0.023 C 
ATOM      9  C   UNL     1      33.766 -14.935 -21.572  0.00  0.00    +0.165 C 
ATOM     10  C   UNL     1      32.215 -11.847 -22.330  0.00  0.00    -0.100 C 
ATOM     11  H   UNL     1      32.512 -12.202 -24.156  0.00  0.00    -0.080 HD
BRANCH   5  12
ATOM     12  O   UNL     1      32.348 -14.435 -25.765  0.00  0.00    -0.387 OA
ATOM     13  H   UNL     1      31.989 -15.256 -26.136  0.00  0.00    +0.210 HD
ENDBRANCH   5  12
ENDBRANCH   1   9
BRANCH   1  15
ATOM     14  O   UNL     1      35.346 -16.641 -20.142  0.00  0.00    -0.250 OA
ATOM     15  C   UNL     1      35.016 -16.925 -21.287  0.00  0.00    +0.323 C 
BRANCH  15  16
ATOM     16  C   UNL     1      35.263 -18.271 -21.962  0.00  0.00    +0.150 C 
BRANCH  16  17
ATOM     17  C   UNL     1      34.749 -19.417 -21.103  0.00  0.00    -0.010 C 
ATOM     18  C   UNL     1      35.660 -20.272 -20.514  0.00  0.00    -0.004 C 
ATOM     19  C   UNL     1      33.387 -19.568 -20.935  0.00  0.00    -0.004 C 
ATOM     20  C   UNL     1      35.189 -21.321 -19.725  0.00  0.00    -0.000 C 
ATOM     21  C   UNL     1      32.917 -20.617 -20.147  0.00  0.00    -0.000 C 
ATOM     22  C   UNL     1      33.817 -21.494 -19.541  0.00  0.00    -0.000 C 
ENDBRANCH  16  17
BRANCH  16  23
ATOM     23  C   UNL     1      34.653 -18.281 -23.372  0.00  0.00    +0.153 C 
BRANCH  23  24
ATOM     24  O   UNL     1      35.476 -17.521 -24.251  0.00  0.00    -0.381 OA
ATOM     25  H   UNL     1      34.990 -16.736 -24.550  0.00  0.00    +0.210 HD
ENDBRANCH  23  24
ENDBRANCH  16  23
ENDBRANCH  15  16
ENDBRANCH   1  15
TORSDOF 7
ENDMDL
MODEL 8
REMARK VINA RESULT:      -7.8      3.847      5.354
REMARK  Name = 6918612
REMARK  7 active torsions:
REMARK  status: ('A' for Active; 'I' for Inactive)
REMARK    1  A    between atoms: O_1  and  C_9
REMARK    2  A    between atoms: O_1  and  C_15
REMARK    3  A    between atoms: C_5  and  O_12
REMARK    4  A    between atoms: C_15  and  C_16
REMARK    5  A    between atoms: C_16  and  C_17
REMARK    6  A    between atoms: C_16  and  C_23
REMARK    7  A    between atoms: C_23  and  O_24
REMARK                            x       y       z     vdW  Elec       q    Type
REMARK                         _______ _______ _______ _____ _____    ______ ____
ROOT
ATOM      1  O   UNL     1      35.307 -23.246 -16.824  0.00  0.00    -0.452 OA
ENDROOT
BRANCH   1   9
ATOM      2  N   UNL     1      36.256 -24.430 -13.241  0.00  0.00    +0.390 N 
ATOM      3  C   UNL     1      36.856 -23.309 -13.977  0.00  0.00    -0.027 C 
ATOM      4  C   UNL     1      35.659 -25.260 -14.291  0.00  0.00    -0.052 C 
ATOM      5  C   UNL     1      37.652 -24.090 -15.035  0.00  0.00    +0.090 C 
ATOM      6  C   UNL     1      36.866 -25.396 -15.231  0.00  0.00    +0.006 C 
ATOM      7  C   UNL     1      35.784 -22.402 -14.620  0.00  0.00    +0.025 C 
ATOM      8  C   UNL     1      34.461 -24.570 -14.977  0.00  0.00    +0.023 C 
ATOM      9  C   UNL     1      34.779 -23.160 -15.500  0.00  0.00    +0.165 C 
ATOM     10  C   UNL     1      35.384 -24.074 -12.137  0.00  0.00    -0.100 C 
ATOM     11  H   UNL     1      36.955 -24.945 -12.707  0.00  0.00    -0.080 HD
BRANCH   5  12
ATOM     12  O   UNL     1      38.950 -24.383 -14.524  0.00  0.00    -0.387 OA
ATOM     13  H   UNL     1      38.954 -25.274 -14.141  0.00  0.00    +0.210 HD
ENDBRANCH   5  12
ENDBRANCH   1   9
BRANCH   1  15
ATOM     14  O   UNL     1      33.319 -22.576 -17.776  0.00  0.00    -0.250 OA
ATOM     15  C   UNL     1      34.538 -22.684 -17.807  0.00  0.00    +0.323 C 
BRANCH  15  16
ATOM     16  C   UNL     1      35.432 -22.219 -18.953  0.00  0.00    +0.150 C 
BRANCH  16  17
ATOM     17  C   UNL     1      34.764 -21.110 -19.752  0.00  0.00    -0.010 C 
ATOM     18  C   UNL     1      33.385 -21.030 -19.761  0.00  0.00    -0.004 C 
ATOM     19  C   UNL     1      35.555 -20.215 -20.444  0.00  0.00    -0.004 C 
ATOM     20  C   UNL     1      32.773 -20.012 -20.492  0.00  0.00    -0.000 C 
ATOM     21  C   UNL     1      34.942 -19.198 -21.176  0.00  0.00    -0.000 C 
ATOM     22  C   UNL     1      33.551 -19.096 -21.200  0.00  0.00    -0.000 C 
ENDBRANCH  16  17
BRANCH  16  23
ATOM     23  C   UNL     1      36.811 -21.804 -18.421  0.00  0.00    +0.153 C 
BRANCH  23  24
ATOM     24  O   UNL     1      36.650 -20.850 -17.375  0.00  0.00    -0.381 OA
ATOM     25  H   UNL     1      35.738 -20.522 -17.376  0.00  0.00    +0.210 HD
ENDBRANCH  23  24
ENDBRANCH  16  23
ENDBRANCH  15  16
ENDBRANCH   1  15
TORSDOF 7
ENDMDL
MODEL 9
REMARK VINA RESULT:      -7.8      1.536      2.524
REMARK  Name = 6918612
REMARK  7 active torsions:
REMARK  status: ('A' for Active; 'I' for Inactive)
REMARK    1  A    between atoms: O_1  and  C_9
REMARK    2  A    between atoms: O_1  and  C_15
REMARK    3  A    between atoms: C_5  and  O_12
REMARK    4  A    between atoms: C_15  and  C_16
REMARK    5  A    between atoms: C_16  and  C_17
REMARK    6  A    between atoms: C_16  and  C_23
REMARK    7  A    between atoms: C_23  and  O_24
REMARK                            x       y       z     vdW  Elec       q    Type
REMARK                         _______ _______ _______ _____ _____    ______ ____
ROOT
ATOM      1  O   UNL     1      34.343 -23.391 -14.709  0.00  0.00    -0.452 OA
ENDROOT
BRANCH   1   9
ATOM      2  N   UNL     1      37.378 -25.104 -12.979  0.00  0.00    +0.390 N 
ATOM      3  C   UNL     1      36.394 -24.221 -12.340  0.00  0.00    -0.027 C 
ATOM      4  C   UNL     1      37.274 -24.773 -14.403  0.00  0.00    -0.052 C 
ATOM      5  C   UNL     1      36.811 -22.877 -12.960  0.00  0.00    +0.090 C 
ATOM      6  C   UNL     1      37.412 -23.246 -14.325  0.00  0.00    +0.006 C 
ATOM      7  C   UNL     1      34.946 -24.602 -12.718  0.00  0.00    +0.025 C 
ATOM      8  C   UNL     1      35.923 -25.207 -15.010  0.00  0.00    +0.023 C 
ATOM      9  C   UNL     1      34.703 -24.688 -14.231  0.00  0.00    +0.165 C 
ATOM     10  C   UNL     1      37.284 -26.513 -12.643  0.00  0.00    -0.100 C 
ATOM     11  H   UNL     1      38.319 -24.938 -12.623  0.00  0.00    -0.080 HD
BRANCH   5  12
ATOM     12  O   UNL     1      37.809 -22.271 -12.142  0.00  0.00    -0.387 OA
ATOM     13  H   UNL     1      38.264 -22.956 -11.628  0.00  0.00    +0.210 HD
ENDBRANCH   5  12
ENDBRANCH   1   9
BRANCH   1  15
ATOM     14  O   UNL     1      32.371 -22.514 -13.901  0.00  0.00    -0.250 OA
ATOM     15  C   UNL     1      33.001 -23.127 -14.754  0.00  0.00    +0.323 C 
BRANCH  15  16
ATOM     16  C   UNL     1      32.405 -23.720 -16.027  0.00  0.00    +0.150 C 
BRANCH  16  17
ATOM     17  C   UNL     1      30.884 -23.705 -15.978  0.00  0.00    -0.010 C 
ATOM     18  C   UNL     1      30.206 -22.660 -16.573  0.00  0.00    -0.004 C 
ATOM     19  C   UNL     1      30.226 -24.738 -15.340  0.00  0.00    -0.004 C 
ATOM     20  C   UNL     1      28.813 -22.647 -16.529  0.00  0.00    -0.000 C 
ATOM     21  C   UNL     1      28.833 -24.725 -15.295  0.00  0.00    -0.000 C 
ATOM     22  C   UNL     1      28.125 -23.680 -15.890  0.00  0.00    -0.000 C 
ENDBRANCH  16  17
BRANCH  16  23
ATOM     23  C   UNL     1      32.955 -22.994 -17.263  0.00  0.00    +0.153 C 
BRANCH  23  24
ATOM     24  O   UNL     1      34.312 -23.372 -17.473  0.00  0.00    -0.381 OA
ATOM     25  H   UNL     1      34.655 -23.798 -16.672  0.00  0.00    +0.210 HD
ENDBRANCH  23  24
ENDBRANCH  16  23
ENDBRANCH  15  16
ENDBRANCH   1  15
TORSDOF 7
ENDMDL
