MODEL 1
REMARK VINA RESULT:     -10.6      0.000      0.000
REMARK  Name = 9832687
REMARK  5 active torsions:
REMARK  status: ('A' for Active; 'I' for Inactive)
REMARK    1  A    between atoms: C_4  and  C_10
REMARK    2  A    between atoms: C_5  and  C_20
REMARK    3  A    between atoms: C_11  and  S_16
REMARK    4  A    between atoms: C_25  and  O_26
REMARK    5  A    between atoms: O_26  and  C_27
REMARK                            x       y       z     vdW  Elec       q    Type
REMARK                         _______ _______ _______ _____ _____    ______ ____
ROOT
ATOM      1  N   UNL     1      35.534 -24.662 -12.497  0.00  0.00    -0.123 N 
ATOM      2  N   UNL     1      34.184 -24.712 -12.527  0.00  0.00    -0.163 NA
ATOM      3  N   UNL     1      36.220 -25.137 -11.419  0.00  0.00    -0.125 NA
ATOM      4  C   UNL     1      35.005 -23.773 -14.444  0.00  0.00    +0.103 C 
ATOM      5  C   UNL     1      33.875 -24.172 -13.708  0.00  0.00    +0.087 C 
ATOM      6  C   UNL     1      36.069 -24.101 -13.638  0.00  0.00    +0.078 C 
ATOM      7  C   UNL     1      37.473 -23.994 -13.723  0.00  0.00    +0.016 C 
ATOM      8  C   UNL     1      38.224 -24.435 -12.706  0.00  0.00    +0.021 C 
ATOM      9  C   UNL     1      37.505 -25.015 -11.545  0.00  0.00    +0.106 C 
ENDROOT
BRANCH   4  10
ATOM     10  C   UNL     1      35.125 -23.160 -15.735  0.00  0.00    -0.011 C 
ATOM     11  C   UNL     1      35.360 -21.966 -18.247  0.00  0.00    +0.106 C 
ATOM     12  C   UNL     1      36.265 -22.419 -16.054  0.00  0.00    -0.002 C 
ATOM     13  C   UNL     1      34.104 -23.303 -16.675  0.00  0.00    -0.002 C 
ATOM     14  C   UNL     1      36.382 -21.823 -17.310  0.00  0.00    +0.018 C 
ATOM     15  C   UNL     1      34.220 -22.706 -17.930  0.00  0.00    +0.018 C 
BRANCH  11  16
ATOM     16  S   UNL     1      35.507 -21.220 -19.819  0.00  0.00    +0.010 S 
ATOM     17  O   UNL     1      36.403 -20.080 -19.692  0.00  0.00    -0.169 OA
ATOM     18  O   UNL     1      35.788 -22.254 -20.807  0.00  0.00    -0.169 OA
ATOM     19  C   UNL     1      33.877 -20.600 -20.168  0.00  0.00    +0.182 C 
ENDBRANCH  11  16
ENDBRANCH   4  10
BRANCH   5  20
ATOM     20  C   UNL     1      32.494 -24.053 -14.103  0.00  0.00    +0.016 C 
ATOM     21  C   UNL     1      31.940 -22.794 -14.318  0.00  0.00    +0.004 C 
ATOM     22  C   UNL     1      31.720 -25.199 -14.266  0.00  0.00    +0.004 C 
ATOM     23  C   UNL     1      30.605 -22.680 -14.700  0.00  0.00    +0.037 C 
ATOM     24  C   UNL     1      30.383 -25.085 -14.648  0.00  0.00    +0.037 C 
ATOM     25  C   UNL     1      29.825 -23.825 -14.865  0.00  0.00    +0.139 C 
BRANCH  25  26
ATOM     26  O   UNL     1      28.521 -23.713 -15.238  0.00  0.00    -0.475 OA
BRANCH  26  27
ATOM     27  C   UNL     1      28.139 -22.515 -15.912  0.00  0.00    +0.206 C 
ATOM     28  C   UNL     1      27.807 -22.845 -17.353  0.00  0.00    +0.051 C 
ENDBRANCH  26  27
ENDBRANCH  25  26
ENDBRANCH   5  20
TORSDOF 5
ENDMDL
MODEL 2
REMARK VINA RESULT:     -10.0      2.384      5.902
REMARK  Name = 9832687
REMARK  5 active torsions:
REMARK  status: ('A' for Active; 'I' for Inactive)
REMARK    1  A    between atoms: C_4  and  C_10
REMARK    2  A    between atoms: C_5  and  C_20
REMARK    3  A    between atoms: C_11  and  S_16
REMARK    4  A    between atoms: C_25  and  O_26
REMARK    5  A    between atoms: O_26  and  C_27
REMARK                            x       y       z     vdW  Elec       q    Type
REMARK                         _______ _______ _______ _____ _____    ______ ____
ROOT
ATOM      1  N   UNL     1      32.028 -24.444 -13.859  0.00  0.00    -0.123 N 
ATOM      2  N   UNL     1      33.167 -24.996 -13.387  0.00  0.00    -0.163 NA
ATOM      3  N   UNL     1      30.840 -24.658 -13.226  0.00  0.00    -0.125 NA
ATOM      4  C   UNL     1      33.581 -23.758 -15.265  0.00  0.00    +0.103 C 
ATOM      5  C   UNL     1      34.100 -24.575 -14.245  0.00  0.00    +0.087 C 
ATOM      6  C   UNL     1      32.236 -23.689 -14.995  0.00  0.00    +0.078 C 
ATOM      7  C   UNL     1      31.117 -23.060 -15.582  0.00  0.00    +0.016 C 
ATOM      8  C   UNL     1      29.912 -23.220 -15.024  0.00  0.00    +0.021 C 
ATOM      9  C   UNL     1      29.844 -24.061 -13.804  0.00  0.00    +0.106 C 
ENDROOT
BRANCH   4  10
ATOM     10  C   UNL     1      34.220 -23.107 -16.371  0.00  0.00    -0.011 C 
ATOM     11  C   UNL     1      35.465 -21.840 -18.526  0.00  0.00    +0.106 C 
ATOM     12  C   UNL     1      33.581 -23.045 -17.611  0.00  0.00    -0.002 C 
ATOM     13  C   UNL     1      35.483 -22.535 -16.212  0.00  0.00    -0.002 C 
ATOM     14  C   UNL     1      34.203 -22.411 -18.687  0.00  0.00    +0.018 C 
ATOM     15  C   UNL     1      36.105 -21.902 -17.288  0.00  0.00    +0.018 C 
BRANCH  11  16
ATOM     16  S   UNL     1      36.242 -21.046 -19.873  0.00  0.00    +0.010 S 
ATOM     17  O   UNL     1      37.084 -19.984 -19.342  0.00  0.00    -0.169 OA
ATOM     18  O   UNL     1      36.820 -22.059 -20.747  0.00  0.00    -0.169 OA
ATOM     19  C   UNL     1      34.906 -20.289 -20.770  0.00  0.00    +0.182 C 
ENDBRANCH  11  16
ENDBRANCH   4  10
BRANCH   5  20
ATOM     20  C   UNL     1      35.474 -24.970 -14.060  0.00  0.00    +0.016 C 
ATOM     21  C   UNL     1      36.222 -24.414 -13.026  0.00  0.00    +0.004 C 
ATOM     22  C   UNL     1      36.046 -25.907 -14.917  0.00  0.00    +0.004 C 
ATOM     23  C   UNL     1      37.550 -24.797 -12.847  0.00  0.00    +0.037 C 
ATOM     24  C   UNL     1      37.375 -26.290 -14.738  0.00  0.00    +0.037 C 
ATOM     25  C   UNL     1      38.128 -25.734 -13.704  0.00  0.00    +0.139 C 
BRANCH  25  26
ATOM     26  O   UNL     1      39.425 -26.109 -13.529  0.00  0.00    -0.475 OA
BRANCH  26  27
ATOM     27  C   UNL     1      40.248 -26.160 -14.693  0.00  0.00    +0.206 C 
ATOM     28  C   UNL     1      40.547 -24.746 -15.147  0.00  0.00    +0.051 C 
ENDBRANCH  26  27
ENDBRANCH  25  26
ENDBRANCH   5  20
TORSDOF 5
ENDMDL
MODEL 3
REMARK VINA RESULT:      -8.0      4.032      5.752
REMARK  Name = 9832687
REMARK  5 active torsions:
REMARK  status: ('A' for Active; 'I' for Inactive)
REMARK    1  A    between atoms: C_4  and  C_10
REMARK    2  A    between atoms: C_5  and  C_20
REMARK    3  A    between atoms: C_11  and  S_16
REMARK    4  A    between atoms: C_25  and  O_26
REMARK    5  A    between atoms: O_26  and  C_27
REMARK                            x       y       z     vdW  Elec       q    Type
REMARK                         _______ _______ _______ _____ _____    ______ ____
ROOT
ATOM      1  N   UNL     1      34.251 -21.652 -19.047  0.00  0.00    -0.123 N 
ATOM      2  N   UNL     1      33.078 -21.980 -18.463  0.00  0.00    -0.163 NA
ATOM      3  N   UNL     1      34.271 -21.020 -20.254  0.00  0.00    -0.125 NA
ATOM      4  C   UNL     1      34.842 -22.627 -17.160  0.00  0.00    +0.103 C 
ATOM      5  C   UNL     1      33.447 -22.569 -17.323  0.00  0.00    +0.087 C 
ATOM      6  C   UNL     1      35.342 -22.027 -18.290  0.00  0.00    +0.078 C 
ATOM      7  C   UNL     1      36.627 -21.737 -18.798  0.00  0.00    +0.016 C 
ATOM      8  C   UNL     1      36.736 -21.118 -19.979  0.00  0.00    +0.021 C 
ATOM      9  C   UNL     1      35.473 -20.777 -20.677  0.00  0.00    +0.106 C 
ENDROOT
BRANCH   4  10
ATOM     10  C   UNL     1      35.649 -23.164 -16.103  0.00  0.00    -0.011 C 
ATOM     11  C   UNL     1      37.219 -24.211 -14.045  0.00  0.00    +0.106 C 
ATOM     12  C   UNL     1      35.697 -24.544 -15.892  0.00  0.00    -0.002 C 
ATOM     13  C   UNL     1      36.388 -22.310 -15.283  0.00  0.00    -0.002 C 
ATOM     14  C   UNL     1      36.482 -25.066 -14.864  0.00  0.00    +0.018 C 
ATOM     15  C   UNL     1      37.172 -22.833 -14.254  0.00  0.00    +0.018 C 
BRANCH  11  16
ATOM     16  S   UNL     1      38.202 -24.866 -12.760  0.00  0.00    +0.010 S 
ATOM     17  O   UNL     1      38.663 -23.757 -11.938  0.00  0.00    -0.169 OA
ATOM     18  O   UNL     1      37.490 -25.977 -12.140  0.00  0.00    -0.169 OA
ATOM     19  C   UNL     1      39.615 -25.556 -13.591  0.00  0.00    +0.182 C 
ENDBRANCH  11  16
ENDBRANCH   4  10
BRANCH   5  20
ATOM     20  C   UNL     1      32.443 -23.063 -16.414  0.00  0.00    +0.016 C 
ATOM     21  C   UNL     1      31.094 -22.868 -16.698  0.00  0.00    +0.004 C 
ATOM     22  C   UNL     1      32.828 -23.733 -15.256  0.00  0.00    +0.004 C 
ATOM     23  C   UNL     1      30.124 -23.346 -15.818  0.00  0.00    +0.037 C 
ATOM     24  C   UNL     1      31.858 -24.212 -14.376  0.00  0.00    +0.037 C 
ATOM     25  C   UNL     1      30.505 -24.018 -14.656  0.00  0.00    +0.139 C 
BRANCH  25  26
ATOM     26  O   UNL     1      29.558 -24.486 -13.798  0.00  0.00    -0.475 OA
BRANCH  26  27
ATOM     27  C   UNL     1      28.664 -25.479 -14.298  0.00  0.00    +0.206 C 
ATOM     28  C   UNL     1      29.359 -26.262 -15.393  0.00  0.00    +0.051 C 
ENDBRANCH  26  27
ENDBRANCH  25  26
ENDBRANCH   5  20
TORSDOF 5
ENDMDL
MODEL 4
REMARK VINA RESULT:      -8.0      3.845      7.508
REMARK  Name = 9832687
REMARK  5 active torsions:
REMARK  status: ('A' for Active; 'I' for Inactive)
REMARK    1  A    between atoms: C_4  and  C_10
REMARK    2  A    between atoms: C_5  and  C_20
REMARK    3  A    between atoms: C_11  and  S_16
REMARK    4  A    between atoms: C_25  and  O_26
REMARK    5  A    between atoms: O_26  and  C_27
REMARK                            x       y       z     vdW  Elec       q    Type
REMARK                         _______ _______ _______ _____ _____    ______ ____
ROOT
ATOM      1  N   UNL     1      35.918 -21.252 -19.024  0.00  0.00    -0.123 N 
ATOM      2  N   UNL     1      36.821 -21.614 -18.086  0.00  0.00    -0.163 NA
ATOM      3  N   UNL     1      36.310 -20.562 -20.132  0.00  0.00    -0.125 NA
ATOM      4  C   UNL     1      34.723 -22.316 -17.507  0.00  0.00    +0.103 C 
ATOM      5  C   UNL     1      36.088 -22.257 -17.174  0.00  0.00    +0.087 C 
ATOM      6  C   UNL     1      34.637 -21.658 -18.710  0.00  0.00    +0.078 C 
ATOM      7  C   UNL     1      33.604 -21.336 -19.616  0.00  0.00    +0.016 C 
ATOM      8  C   UNL     1      33.902 -20.658 -20.730  0.00  0.00    +0.021 C 
ATOM      9  C   UNL     1      35.325 -20.290 -20.932  0.00  0.00    +0.106 C 
ENDROOT
BRANCH   4  10
ATOM     10  C   UNL     1      33.607 -22.900 -16.821  0.00  0.00    -0.011 C 
ATOM     11  C   UNL     1      31.434 -24.035 -15.486  0.00  0.00    +0.106 C 
ATOM     12  C   UNL     1      32.305 -22.634 -17.250  0.00  0.00    -0.002 C 
ATOM     13  C   UNL     1      33.820 -23.735 -15.723  0.00  0.00    -0.002 C 
ATOM     14  C   UNL     1      31.220 -23.202 -16.583  0.00  0.00    +0.018 C 
ATOM     15  C   UNL     1      32.734 -24.302 -15.056  0.00  0.00    +0.018 C 
BRANCH  11  16
ATOM     16  S   UNL     1      30.075 -24.746 -14.652  0.00  0.00    +0.010 S 
ATOM     17  O   UNL     1      30.029 -26.160 -14.995  0.00  0.00    -0.169 OA
ATOM     18  O   UNL     1      30.116 -24.343 -13.253  0.00  0.00    -0.169 OA
ATOM     19  C   UNL     1      28.652 -23.961 -15.376  0.00  0.00    +0.182 C 
ENDBRANCH  11  16
ENDBRANCH   4  10
BRANCH   5  20
ATOM     20  C   UNL     1      36.722 -22.801 -15.999  0.00  0.00    +0.016 C 
ATOM     21  C   UNL     1      37.896 -23.538 -16.124  0.00  0.00    +0.004 C 
ATOM     22  C   UNL     1      36.155 -22.586 -14.745  0.00  0.00    +0.004 C 
ATOM     23  C   UNL     1      38.509 -24.063 -14.987  0.00  0.00    +0.037 C 
ATOM     24  C   UNL     1      36.768 -23.112 -13.608  0.00  0.00    +0.037 C 
ATOM     25  C   UNL     1      37.945 -23.852 -13.728  0.00  0.00    +0.139 C 
BRANCH  25  26
ATOM     26  O   UNL     1      38.543 -24.364 -12.619  0.00  0.00    -0.475 OA
BRANCH  26  27
ATOM     27  C   UNL     1      38.604 -25.786 -12.512  0.00  0.00    +0.206 C 
ATOM     28  C   UNL     1      37.194 -26.339 -12.505  0.00  0.00    +0.051 C 
ENDBRANCH  26  27
ENDBRANCH  25  26
ENDBRANCH   5  20
TORSDOF 5
ENDMDL
MODEL 5
REMARK VINA RESULT:      -7.8      3.816      7.089
REMARK  Name = 9832687
REMARK  5 active torsions:
REMARK  status: ('A' for Active; 'I' for Inactive)
REMARK    1  A    between atoms: C_4  and  C_10
REMARK    2  A    between atoms: C_5  and  C_20
REMARK    3  A    between atoms: C_11  and  S_16
REMARK    4  A    between atoms: C_25  and  O_26
REMARK    5  A    between atoms: O_26  and  C_27
REMARK                            x       y       z     vdW  Elec       q    Type
REMARK                         _______ _______ _______ _____ _____    ______ ____
ROOT
ATOM      1  N   UNL     1      35.926 -21.655 -18.660  0.00  0.00    -0.123 N 
ATOM      2  N   UNL     1      36.505 -22.252 -17.595  0.00  0.00    -0.163 NA
ATOM      3  N   UNL     1      36.687 -21.028 -19.600  0.00  0.00    -0.125 NA
ATOM      4  C   UNL     1      34.231 -22.480 -17.516  0.00  0.00    +0.103 C 
ATOM      5  C   UNL     1      35.472 -22.747 -16.910  0.00  0.00    +0.087 C 
ATOM      6  C   UNL     1      34.551 -21.770 -18.648  0.00  0.00    +0.078 C 
ATOM      7  C   UNL     1      33.832 -21.185 -19.713  0.00  0.00    +0.016 C 
ATOM      8  C   UNL     1      34.503 -20.547 -20.679  0.00  0.00    +0.021 C 
ATOM      9  C   UNL     1      35.981 -20.506 -20.556  0.00  0.00    +0.106 C 
ENDROOT
BRANCH   4  10
ATOM     10  C   UNL     1      32.894 -22.821 -17.125  0.00  0.00    -0.011 C 
ATOM     11  C   UNL     1      30.292 -23.487 -16.362  0.00  0.00    +0.106 C 
ATOM     12  C   UNL     1      32.678 -23.810 -16.163  0.00  0.00    -0.002 C 
ATOM     13  C   UNL     1      31.807 -22.166 -17.704  0.00  0.00    -0.002 C 
ATOM     14  C   UNL     1      31.378 -24.142 -15.782  0.00  0.00    +0.018 C 
ATOM     15  C   UNL     1      30.507 -22.499 -17.324  0.00  0.00    +0.018 C 
BRANCH  11  16
ATOM     16  S   UNL     1      28.666 -23.902 -15.885  0.00  0.00    +0.010 S 
ATOM     17  O   UNL     1      28.077 -22.738 -15.238  0.00  0.00    -0.169 OA
ATOM     18  O   UNL     1      27.985 -24.522 -17.015  0.00  0.00    -0.169 OA
ATOM     19  C   UNL     1      28.876 -25.166 -14.650  0.00  0.00    +0.182 C 
ENDBRANCH  11  16
ENDBRANCH   4  10
BRANCH   5  20
ATOM     20  C   UNL     1      35.704 -23.469 -15.685  0.00  0.00    +0.016 C 
ATOM     21  C   UNL     1      35.825 -22.776 -14.484  0.00  0.00    +0.004 C 
ATOM     22  C   UNL     1      35.806 -24.858 -15.709  0.00  0.00    +0.004 C 
ATOM     23  C   UNL     1      36.049 -23.475 -13.299  0.00  0.00    +0.037 C 
ATOM     24  C   UNL     1      36.030 -25.558 -14.523  0.00  0.00    +0.037 C 
ATOM     25  C   UNL     1      36.153 -24.866 -13.318  0.00  0.00    +0.139 C 
BRANCH  25  26
ATOM     26  O   UNL     1      36.371 -25.549 -12.161  0.00  0.00    -0.475 OA
BRANCH  26  27
ATOM     27  C   UNL     1      37.565 -26.325 -12.081  0.00  0.00    +0.206 C 
ATOM     28  C   UNL     1      38.715 -25.519 -12.650  0.00  0.00    +0.051 C 
ENDBRANCH  26  27
ENDBRANCH  25  26
ENDBRANCH   5  20
TORSDOF 5
ENDMDL
