MODEL 1
REMARK VINA RESULT:      -9.3      0.000      0.000
REMARK  Name = 12000797
REMARK  2 active torsions:
REMARK  status: ('A' for Active; 'I' for Inactive)
REMARK    1  A    between atoms: N_2  and  C_7
REMARK    2  A    between atoms: N_3  and  C_19
REMARK                            x       y       z     vdW  Elec       q    Type
REMARK                         _______ _______ _______ _____ _____    ______ ____
ROOT
ATOM      1  O   UNL     1      31.495 -11.675 -22.673  0.00  0.00    -0.253 OA
ATOM      2  N   UNL     1      33.473 -10.629 -23.285  0.00  0.00    -0.292 N 
ATOM      3  N   UNL     1      33.378 -12.921 -23.217  0.00  0.00    -0.290 N 
ATOM      4  C   UNL     1      32.672 -11.736 -23.026  0.00  0.00    +0.301 C 
ATOM      5  H   UNL     1      34.406 -10.775 -23.562  0.00  0.00    +0.151 HD
ATOM      6  H   UNL     1      34.318 -12.866 -23.500  0.00  0.00    +0.151 HD
ENDROOT
BRANCH   2   7
ATOM      7  C   UNL     1      32.990  -9.270 -23.164  0.00  0.00    +0.058 C 
ATOM      8  C   UNL     1      33.656  -6.828 -23.154  0.00  0.00    +0.002 C 
ATOM      9  C   UNL     1      31.449  -7.522 -24.152  0.00  0.00    +0.002 C 
ATOM     10  C   UNL     1      31.792  -7.628 -21.657  0.00  0.00    +0.002 C 
ATOM     11  C   UNL     1      34.164  -8.274 -23.286  0.00  0.00    +0.018 C 
ATOM     12  C   UNL     1      31.966  -8.966 -24.280  0.00  0.00    +0.018 C 
ATOM     13  C   UNL     1      32.308  -9.071 -21.793  0.00  0.00    +0.018 C 
ATOM     14  C   UNL     1      32.634  -6.548 -24.268  0.00  0.00    +0.000 C 
ATOM     15  C   UNL     1      32.976  -6.653 -21.785  0.00  0.00    +0.000 C 
ATOM     16  C   UNL     1      30.779  -7.344 -22.779  0.00  0.00    +0.000 C 
ENDBRANCH   2   7
BRANCH   3  19
ATOM     17  O   UNL     1      35.414 -17.654 -20.564  0.00  0.00    -0.275 OA
ATOM     18  N   UNL     1      34.876 -16.087 -22.194  0.00  0.00    -0.279 N 
ATOM     19  C   UNL     1      32.794 -14.229 -23.019  0.00  0.00    +0.076 C 
ATOM     20  C   UNL     1      33.401 -15.253 -23.986  0.00  0.00    +0.041 C 
ATOM     21  C   UNL     1      32.941 -14.692 -21.564  0.00  0.00    +0.041 C 
ATOM     22  C   UNL     1      34.825 -15.649 -23.593  0.00  0.00    +0.095 C 
ATOM     23  C   UNL     1      34.372 -15.110 -21.227  0.00  0.00    +0.095 C 
ATOM     24  C   UNL     1      35.383 -17.307 -21.749  0.00  0.00    +0.226 C 
ATOM     25  C   UNL     1      35.919 -18.242 -22.803  0.00  0.00    +0.095 C 
ENDBRANCH   3  19
TORSDOF 2
ENDMDL
MODEL 2
REMARK VINA RESULT:      -9.3      0.015      1.572
REMARK  Name = 12000797
REMARK  2 active torsions:
REMARK  status: ('A' for Active; 'I' for Inactive)
REMARK    1  A    between atoms: N_2  and  C_7
REMARK    2  A    between atoms: N_3  and  C_19
REMARK                            x       y       z     vdW  Elec       q    Type
REMARK                         _______ _______ _______ _____ _____    ______ ____
ROOT
ATOM      1  O   UNL     1      31.505 -11.684 -22.682  0.00  0.00    -0.253 OA
ATOM      2  N   UNL     1      33.485 -10.633 -23.281  0.00  0.00    -0.292 N 
ATOM      3  N   UNL     1      33.391 -12.926 -23.221  0.00  0.00    -0.290 N 
ATOM      4  C   UNL     1      32.684 -11.742 -23.029  0.00  0.00    +0.301 C 
ATOM      5  H   UNL     1      34.420 -10.778 -23.553  0.00  0.00    +0.151 HD
ATOM      6  H   UNL     1      34.333 -12.870 -23.500  0.00  0.00    +0.151 HD
ENDROOT
BRANCH   2   7
ATOM      7  C   UNL     1      33.002  -9.276 -23.157  0.00  0.00    +0.058 C 
ATOM      8  C   UNL     1      31.462  -7.527 -24.147  0.00  0.00    +0.002 C 
ATOM      9  C   UNL     1      31.804  -7.630 -21.652  0.00  0.00    +0.002 C 
ATOM     10  C   UNL     1      33.671  -6.835 -23.148  0.00  0.00    +0.002 C 
ATOM     11  C   UNL     1      31.976  -8.971 -24.272  0.00  0.00    +0.018 C 
ATOM     12  C   UNL     1      32.317  -9.074 -21.787  0.00  0.00    +0.018 C 
ATOM     13  C   UNL     1      34.177  -8.282 -23.278  0.00  0.00    +0.018 C 
ATOM     14  C   UNL     1      30.792  -7.346 -22.774  0.00  0.00    +0.000 C 
ATOM     15  C   UNL     1      32.649  -6.555 -24.264  0.00  0.00    +0.000 C 
ATOM     16  C   UNL     1      32.990  -6.658 -21.781  0.00  0.00    +0.000 C 
ENDBRANCH   2   7
BRANCH   3  19
ATOM     17  O   UNL     1      35.410 -17.662 -20.562  0.00  0.00    -0.275 OA
ATOM     18  N   UNL     1      34.884 -16.093 -22.192  0.00  0.00    -0.279 N 
ATOM     19  C   UNL     1      32.808 -14.235 -23.031  0.00  0.00    +0.076 C 
ATOM     20  C   UNL     1      33.423 -15.257 -23.995  0.00  0.00    +0.041 C 
ATOM     21  C   UNL     1      32.942 -14.701 -21.576  0.00  0.00    +0.041 C 
ATOM     22  C   UNL     1      34.844 -15.651 -23.591  0.00  0.00    +0.095 C 
ATOM     23  C   UNL     1      34.371 -15.118 -21.228  0.00  0.00    +0.095 C 
ATOM     24  C   UNL     1      35.389 -17.313 -21.745  0.00  0.00    +0.226 C 
ATOM     25  C   UNL     1      35.935 -18.245 -22.798  0.00  0.00    +0.095 C 
ENDBRANCH   3  19
TORSDOF 2
ENDMDL
MODEL 3
REMARK VINA RESULT:      -9.3      0.011      1.573
REMARK  Name = 12000797
REMARK  2 active torsions:
REMARK  status: ('A' for Active; 'I' for Inactive)
REMARK    1  A    between atoms: N_2  and  C_7
REMARK    2  A    between atoms: N_3  and  C_19
REMARK                            x       y       z     vdW  Elec       q    Type
REMARK                         _______ _______ _______ _____ _____    ______ ____
ROOT
ATOM      1  O   UNL     1      31.501 -11.674 -22.682  0.00  0.00    -0.253 OA
ATOM      2  N   UNL     1      33.484 -10.626 -23.276  0.00  0.00    -0.292 N 
ATOM      3  N   UNL     1      33.388 -12.919 -23.213  0.00  0.00    -0.290 N 
ATOM      4  C   UNL     1      32.680 -11.734 -23.025  0.00  0.00    +0.301 C 
ATOM      5  H   UNL     1      34.419 -10.772 -23.545  0.00  0.00    +0.151 HD
ATOM      6  H   UNL     1      34.331 -12.863 -23.489  0.00  0.00    +0.151 HD
ENDROOT
BRANCH   2   7
ATOM      7  C   UNL     1      33.001  -9.268 -23.156  0.00  0.00    +0.058 C 
ATOM      8  C   UNL     1      31.796  -7.622 -21.657  0.00  0.00    +0.002 C 
ATOM      9  C   UNL     1      33.663  -6.825 -23.150  0.00  0.00    +0.002 C 
ATOM     10  C   UNL     1      31.459  -7.526 -24.154  0.00  0.00    +0.002 C 
ATOM     11  C   UNL     1      32.314  -9.064 -21.787  0.00  0.00    +0.018 C 
ATOM     12  C   UNL     1      34.174  -8.271 -23.274  0.00  0.00    +0.018 C 
ATOM     13  C   UNL     1      31.978  -8.970 -24.274  0.00  0.00    +0.018 C 
ATOM     14  C   UNL     1      32.977  -6.646 -21.785  0.00  0.00    +0.000 C 
ATOM     15  C   UNL     1      30.784  -7.345 -22.783  0.00  0.00    +0.000 C 
ATOM     16  C   UNL     1      32.643  -6.552 -24.269  0.00  0.00    +0.000 C 
ENDBRANCH   2   7
BRANCH   3  19
ATOM     17  O   UNL     1      35.403 -17.659 -20.557  0.00  0.00    -0.275 OA
ATOM     18  N   UNL     1      34.877 -16.088 -22.187  0.00  0.00    -0.279 N 
ATOM     19  C   UNL     1      32.803 -14.227 -23.023  0.00  0.00    +0.076 C 
ATOM     20  C   UNL     1      33.416 -15.249 -23.988  0.00  0.00    +0.041 C 
ATOM     21  C   UNL     1      32.938 -14.694 -21.569  0.00  0.00    +0.041 C 
ATOM     22  C   UNL     1      34.837 -15.646 -23.586  0.00  0.00    +0.095 C 
ATOM     23  C   UNL     1      34.367 -15.113 -21.222  0.00  0.00    +0.095 C 
ATOM     24  C   UNL     1      35.381 -17.309 -21.741  0.00  0.00    +0.226 C 
ATOM     25  C   UNL     1      35.925 -18.242 -22.794  0.00  0.00    +0.095 C 
ENDBRANCH   3  19
TORSDOF 2
ENDMDL
MODEL 4
REMARK VINA RESULT:      -8.9     13.958     16.488
REMARK  Name = 12000797
REMARK  2 active torsions:
REMARK  status: ('A' for Active; 'I' for Inactive)
REMARK    1  A    between atoms: N_2  and  C_7
REMARK    2  A    between atoms: N_3  and  C_19
REMARK                            x       y       z     vdW  Elec       q    Type
REMARK                         _______ _______ _______ _____ _____    ______ ____
ROOT
ATOM      1  O   UNL     1      33.077 -24.991 -13.060  0.00  0.00    -0.253 OA
ATOM      2  N   UNL     1      34.427 -23.558 -14.286  0.00  0.00    -0.292 N 
ATOM      3  N   UNL     1      32.153 -23.240 -14.273  0.00  0.00    -0.290 N 
ATOM      4  C   UNL     1      33.207 -24.020 -13.803  0.00  0.00    +0.301 C 
ATOM      5  H   UNL     1      34.433 -22.771 -14.878  0.00  0.00    +0.151 HD
ATOM      6  H   UNL     1      32.360 -22.481 -14.865  0.00  0.00    +0.151 HD
ENDROOT
BRANCH   2   7
ATOM      7  C   UNL     1      35.687 -24.185 -13.953  0.00  0.00    +0.058 C 
ATOM      8  C   UNL     1      38.196 -23.864 -13.840  0.00  0.00    +0.002 C 
ATOM      9  C   UNL     1      37.034 -25.287 -12.114  0.00  0.00    +0.002 C 
ATOM     10  C   UNL     1      37.244 -26.107 -14.488  0.00  0.00    +0.002 C 
ATOM     11  C   UNL     1      36.853 -23.200 -14.189  0.00  0.00    +0.018 C 
ATOM     12  C   UNL     1      35.695 -24.616 -12.470  0.00  0.00    +0.018 C 
ATOM     13  C   UNL     1      35.905 -25.434 -14.836  0.00  0.00    +0.018 C 
ATOM     14  C   UNL     1      38.180 -24.291 -12.363  0.00  0.00    +0.000 C 
ATOM     15  C   UNL     1      38.389 -25.108 -14.725  0.00  0.00    +0.000 C 
ATOM     16  C   UNL     1      37.233 -26.522 -13.008  0.00  0.00    +0.000 C 
ENDBRANCH   2   7
BRANCH   3  19
ATOM     17  O   UNL     1      27.603 -24.672 -17.562  0.00  0.00    -0.275 OA
ATOM     18  N   UNL     1      29.166 -23.445 -16.358  0.00  0.00    -0.279 N 
ATOM     19  C   UNL     1      30.771 -23.490 -13.932  0.00  0.00    +0.076 C 
ATOM     20  C   UNL     1      29.888 -22.292 -14.301  0.00  0.00    +0.041 C 
ATOM     21  C   UNL     1      30.257 -24.776 -14.590  0.00  0.00    +0.041 C 
ATOM     22  C   UNL     1      29.666 -22.179 -15.810  0.00  0.00    +0.095 C 
ATOM     23  C   UNL     1      30.016 -24.606 -16.091  0.00  0.00    +0.095 C 
ATOM     24  C   UNL     1      28.003 -23.594 -17.112  0.00  0.00    +0.226 C 
ATOM     25  C   UNL     1      27.203 -22.343 -17.377  0.00  0.00    +0.095 C 
ENDBRANCH   3  19
TORSDOF 2
ENDMDL
MODEL 5
REMARK VINA RESULT:      -8.6      0.939      1.849
REMARK  Name = 12000797
REMARK  2 active torsions:
REMARK  status: ('A' for Active; 'I' for Inactive)
REMARK    1  A    between atoms: N_2  and  C_7
REMARK    2  A    between atoms: N_3  and  C_19
REMARK                            x       y       z     vdW  Elec       q    Type
REMARK                         _______ _______ _______ _____ _____    ______ ____
ROOT
ATOM      1  O   UNL     1      30.922 -10.943 -22.466  0.00  0.00    -0.253 OA
ATOM      2  N   UNL     1      32.992  -9.900 -22.548  0.00  0.00    -0.292 N 
ATOM      3  N   UNL     1      32.875 -12.158 -22.152  0.00  0.00    -0.290 N 
ATOM      4  C   UNL     1      32.148 -10.995 -22.396  0.00  0.00    +0.301 C 
ATOM      5  H   UNL     1      33.964 -10.038 -22.473  0.00  0.00    +0.151 HD
ATOM      6  H   UNL     1      33.857 -12.098 -22.113  0.00  0.00    +0.151 HD
ENDROOT
BRANCH   2   7
ATOM      7  C   UNL     1      32.500  -8.565 -22.811  0.00  0.00    +0.058 C 
ATOM      8  C   UNL     1      31.225  -6.600 -21.850  0.00  0.00    +0.002 C 
ATOM      9  C   UNL     1      33.153  -6.197 -23.423  0.00  0.00    +0.002 C 
ATOM     10  C   UNL     1      30.998  -7.171 -24.295  0.00  0.00    +0.002 C 
ATOM     11  C   UNL     1      31.754  -8.018 -21.574  0.00  0.00    +0.018 C 
ATOM     12  C   UNL     1      33.674  -7.618 -23.139  0.00  0.00    +0.018 C 
ATOM     13  C   UNL     1      31.527  -8.587 -24.009  0.00  0.00    +0.018 C 
ATOM     14  C   UNL     1      32.409  -5.675 -22.182  0.00  0.00    +0.000 C 
ATOM     15  C   UNL     1      30.264  -6.644 -23.050  0.00  0.00    +0.000 C 
ATOM     16  C   UNL     1      32.183  -6.243 -24.615  0.00  0.00    +0.000 C 
ENDBRANCH   2   7
BRANCH   3  19
ATOM     17  O   UNL     1      35.144 -17.314 -20.790  0.00  0.00    -0.275 OA
ATOM     18  N   UNL     1      34.313 -15.508 -21.994  0.00  0.00    -0.279 N 
ATOM     19  C   UNL     1      32.257 -13.449 -21.954  0.00  0.00    +0.076 C 
ATOM     20  C   UNL     1      32.476 -14.357 -23.170  0.00  0.00    +0.041 C 
ATOM     21  C   UNL     1      32.762 -14.120 -20.670  0.00  0.00    +0.041 C 
ATOM     22  C   UNL     1      33.912 -14.875 -23.256  0.00  0.00    +0.095 C 
ATOM     23  C   UNL     1      34.188 -14.653 -20.813  0.00  0.00    +0.095 C 
ATOM     24  C   UNL     1      34.814 -16.803 -21.864  0.00  0.00    +0.226 C 
ATOM     25  C   UNL     1      34.949 -17.606 -23.133  0.00  0.00    +0.095 C 
ENDBRANCH   3  19
TORSDOF 2
ENDMDL
MODEL 6
REMARK VINA RESULT:      -8.1     14.081     15.901
REMARK  Name = 12000797
REMARK  2 active torsions:
REMARK  status: ('A' for Active; 'I' for Inactive)
REMARK    1  A    between atoms: N_2  and  C_7
REMARK    2  A    between atoms: N_3  and  C_19
REMARK                            x       y       z     vdW  Elec       q    Type
REMARK                         _______ _______ _______ _____ _____    ______ ____
ROOT
ATOM      1  O   UNL     1      34.713 -22.778 -14.766  0.00  0.00    -0.253 OA
ATOM      2  N   UNL     1      33.537 -24.445 -13.662  0.00  0.00    -0.292 N 
ATOM      3  N   UNL     1      35.768 -24.145 -13.214  0.00  0.00    -0.290 N 
ATOM      4  C   UNL     1      34.676 -23.703 -13.956  0.00  0.00    +0.301 C 
ATOM      5  H   UNL     1      33.603 -25.170 -12.998  0.00  0.00    +0.151 HD
ATOM      6  H   UNL     1      35.638 -24.895 -12.590  0.00  0.00    +0.151 HD
ENDROOT
BRANCH   2   7
ATOM      7  C   UNL     1      32.258 -24.197 -14.291  0.00  0.00    +0.058 C 
ATOM      8  C   UNL     1      30.297 -22.603 -14.439  0.00  0.00    +0.002 C 
ATOM      9  C   UNL     1      31.066 -23.840 -16.496  0.00  0.00    +0.002 C 
ATOM     10  C   UNL     1      29.914 -25.087 -14.632  0.00  0.00    +0.002 C 
ATOM     11  C   UNL     1      31.658 -22.869 -13.775  0.00  0.00    +0.018 C 
ATOM     12  C   UNL     1      32.426 -24.101 -15.823  0.00  0.00    +0.018 C 
ATOM     13  C   UNL     1      31.277 -25.344 -13.967  0.00  0.00    +0.018 C 
ATOM     14  C   UNL     1      30.485 -22.519 -15.963  0.00  0.00    +0.000 C 
ATOM     15  C   UNL     1      29.338 -23.760 -14.109  0.00  0.00    +0.000 C 
ATOM     16  C   UNL     1      30.104 -24.991 -16.155  0.00  0.00    +0.000 C 
ENDBRANCH   2   7
BRANCH   3  19
ATOM     17  O   UNL     1      40.551 -25.924 -15.961  0.00  0.00    -0.275 OA
ATOM     18  N   UNL     1      38.948 -25.551 -14.320  0.00  0.00    -0.279 N 
ATOM     19  C   UNL     1      37.084 -23.556 -13.317  0.00  0.00    +0.076 C 
ATOM     20  C   UNL     1      38.081 -24.272 -12.398  0.00  0.00    +0.041 C 
ATOM     21  C   UNL     1      37.581 -23.547 -14.767  0.00  0.00    +0.041 C 
ATOM     22  C   UNL     1      38.477 -25.649 -12.934  0.00  0.00    +0.095 C 
ATOM     23  C   UNL     1      37.998 -24.937 -15.248  0.00  0.00    +0.095 C 
ATOM     24  C   UNL     1      40.176 -26.018 -14.789  0.00  0.00    +0.226 C 
ATOM     25  C   UNL     1      41.082 -26.674 -13.777  0.00  0.00    +0.095 C 
ENDBRANCH   3  19
TORSDOF 2
ENDMDL
MODEL 7
REMARK VINA RESULT:      -8.1     14.087     15.965
REMARK  Name = 12000797
REMARK  2 active torsions:
REMARK  status: ('A' for Active; 'I' for Inactive)
REMARK    1  A    between atoms: N_2  and  C_7
REMARK    2  A    between atoms: N_3  and  C_19
REMARK                            x       y       z     vdW  Elec       q    Type
REMARK                         _______ _______ _______ _____ _____    ______ ____
ROOT
ATOM      1  O   UNL     1      34.721 -22.785 -14.760  0.00  0.00    -0.253 OA
ATOM      2  N   UNL     1      33.543 -24.444 -13.644  0.00  0.00    -0.292 N 
ATOM      3  N   UNL     1      35.775 -24.141 -13.197  0.00  0.00    -0.290 N 
ATOM      4  C   UNL     1      34.683 -23.704 -13.943  0.00  0.00    +0.301 C 
ATOM      5  H   UNL     1      33.609 -25.163 -12.976  0.00  0.00    +0.151 HD
ATOM      6  H   UNL     1      35.644 -24.886 -12.568  0.00  0.00    +0.151 HD
ENDROOT
BRANCH   2   7
ATOM      7  C   UNL     1      32.265 -24.199 -14.275  0.00  0.00    +0.058 C 
ATOM      8  C   UNL     1      29.922 -25.092 -14.626  0.00  0.00    +0.002 C 
ATOM      9  C   UNL     1      30.303 -22.607 -14.436  0.00  0.00    +0.002 C 
ATOM     10  C   UNL     1      31.085 -23.849 -16.487  0.00  0.00    +0.002 C 
ATOM     11  C   UNL     1      31.282 -25.346 -13.954  0.00  0.00    +0.018 C 
ATOM     12  C   UNL     1      31.662 -22.872 -13.764  0.00  0.00    +0.018 C 
ATOM     13  C   UNL     1      32.440 -24.109 -15.807  0.00  0.00    +0.018 C 
ATOM     14  C   UNL     1      29.343 -23.764 -14.109  0.00  0.00    +0.000 C 
ATOM     15  C   UNL     1      30.121 -25.000 -16.149  0.00  0.00    +0.000 C 
ATOM     16  C   UNL     1      30.500 -22.528 -15.960  0.00  0.00    +0.000 C 
ENDBRANCH   2   7
BRANCH   3  19
ATOM     17  O   UNL     1      40.546 -25.920 -15.963  0.00  0.00    -0.275 OA
ATOM     18  N   UNL     1      38.950 -25.549 -14.315  0.00  0.00    -0.279 N 
ATOM     19  C   UNL     1      37.091 -23.553 -13.303  0.00  0.00    +0.076 C 
ATOM     20  C   UNL     1      38.090 -24.272 -12.389  0.00  0.00    +0.041 C 
ATOM     21  C   UNL     1      37.583 -23.543 -14.756  0.00  0.00    +0.041 C 
ATOM     22  C   UNL     1      38.483 -25.648 -12.928  0.00  0.00    +0.095 C 
ATOM     23  C   UNL     1      37.997 -24.933 -15.240  0.00  0.00    +0.095 C 
ATOM     24  C   UNL     1      40.175 -26.016 -14.789  0.00  0.00    +0.226 C 
ATOM     25  C   UNL     1      41.084 -26.674 -13.782  0.00  0.00    +0.095 C 
ENDBRANCH   3  19
TORSDOF 2
ENDMDL
MODEL 8
REMARK VINA RESULT:      -7.5      4.677      7.624
REMARK  Name = 12000797
REMARK  2 active torsions:
REMARK  status: ('A' for Active; 'I' for Inactive)
REMARK    1  A    between atoms: N_2  and  C_7
REMARK    2  A    between atoms: N_3  and  C_19
REMARK                            x       y       z     vdW  Elec       q    Type
REMARK                         _______ _______ _______ _____ _____    ______ ____
ROOT
ATOM      1  O   UNL     1      31.391  -4.605 -25.354  0.00  0.00    -0.253 OA
ATOM      2  N   UNL     1      33.531  -5.319 -25.896  0.00  0.00    -0.292 N 
ATOM      3  N   UNL     1      32.434  -6.272 -24.119  0.00  0.00    -0.290 N 
ATOM      4  C   UNL     1      32.361  -5.331 -25.143  0.00  0.00    +0.301 C 
ATOM      5  H   UNL     1      34.257  -5.937 -25.651  0.00  0.00    +0.151 HD
ATOM      6  H   UNL     1      33.256  -6.807 -24.031  0.00  0.00    +0.151 HD
ENDROOT
BRANCH   2   7
ATOM      7  C   UNL     1      33.725  -4.434 -27.024  0.00  0.00    +0.058 C 
ATOM      8  C   UNL     1      33.016  -3.920 -29.400  0.00  0.00    +0.002 C 
ATOM      9  C   UNL     1      33.591  -2.037 -27.826  0.00  0.00    +0.002 C 
ATOM     10  C   UNL     1      35.409  -3.552 -28.695  0.00  0.00    +0.002 C 
ATOM     11  C   UNL     1      32.811  -4.856 -28.196  0.00  0.00    +0.018 C 
ATOM     12  C   UNL     1      33.383  -2.981 -26.629  0.00  0.00    +0.018 C 
ATOM     13  C   UNL     1      35.194  -4.490 -27.494  0.00  0.00    +0.018 C 
ATOM     14  C   UNL     1      32.678  -2.479 -28.983  0.00  0.00    +0.000 C 
ATOM     15  C   UNL     1      34.487  -3.987 -29.847  0.00  0.00    +0.000 C 
ATOM     16  C   UNL     1      35.058  -2.113 -28.281  0.00  0.00    +0.000 C 
ENDBRANCH   2   7
BRANCH   3  19
ATOM     17  O   UNL     1      32.237  -9.361 -19.220  0.00  0.00    -0.275 OA
ATOM     18  N   UNL     1      32.066  -8.734 -21.451  0.00  0.00    -0.279 N 
ATOM     19  C   UNL     1      31.360  -6.502 -23.180  0.00  0.00    +0.076 C 
ATOM     20  C   UNL     1      30.755  -7.899 -23.367  0.00  0.00    +0.041 C 
ATOM     21  C   UNL     1      31.828  -6.295 -21.734  0.00  0.00    +0.041 C 
ATOM     22  C   UNL     1      31.673  -9.003 -22.839  0.00  0.00    +0.095 C 
ATOM     23  C   UNL     1      32.713  -7.438 -21.238  0.00  0.00    +0.095 C 
ATOM     24  C   UNL     1      31.898  -9.611 -20.380  0.00  0.00    +0.226 C 
ATOM     25  C   UNL     1      31.259 -10.941 -20.690  0.00  0.00    +0.095 C 
ENDBRANCH   3  19
TORSDOF 2
ENDMDL
MODEL 9
REMARK VINA RESULT:      -7.4      2.300      8.686
REMARK  Name = 12000797
REMARK  2 active torsions:
REMARK  status: ('A' for Active; 'I' for Inactive)
REMARK    1  A    between atoms: N_2  and  C_7
REMARK    2  A    between atoms: N_3  and  C_19
REMARK                            x       y       z     vdW  Elec       q    Type
REMARK                         _______ _______ _______ _____ _____    ______ ____
ROOT
ATOM      1  O   UNL     1      31.900 -15.142 -21.818  0.00  0.00    -0.253 OA
ATOM      2  N   UNL     1      34.082 -15.101 -21.032  0.00  0.00    -0.292 N 
ATOM      3  N   UNL     1      32.733 -13.268 -20.730  0.00  0.00    -0.290 N 
ATOM      4  C   UNL     1      32.819 -14.559 -21.246  0.00  0.00    +0.301 C 
ATOM      5  H   UNL     1      34.757 -14.557 -20.565  0.00  0.00    +0.151 HD
ATOM      6  H   UNL     1      33.525 -12.886 -20.289  0.00  0.00    +0.151 HD
ENDROOT
BRANCH   2   7
ATOM      7  C   UNL     1      34.445 -16.431 -21.467  0.00  0.00    +0.058 C 
ATOM      8  C   UNL     1      35.973 -18.405 -21.045  0.00  0.00    +0.002 C 
ATOM      9  C   UNL     1      33.610 -18.794 -21.832  0.00  0.00    +0.002 C 
ATOM     10  C   UNL     1      35.316 -17.807 -23.405  0.00  0.00    +0.002 C 
ATOM     11  C   UNL     1      35.581 -16.991 -20.584  0.00  0.00    +0.018 C 
ATOM     12  C   UNL     1      33.228 -17.377 -21.366  0.00  0.00    +0.018 C 
ATOM     13  C   UNL     1      34.927 -16.395 -22.934  0.00  0.00    +0.018 C 
ATOM     14  C   UNL     1      34.747 -19.328 -20.944  0.00  0.00    +0.000 C 
ATOM     15  C   UNL     1      36.444 -18.346 -22.509  0.00  0.00    +0.000 C 
ATOM     16  C   UNL     1      34.093 -18.733 -23.291  0.00  0.00    +0.000 C 
ENDBRANCH   2   7
BRANCH   3  19
ATOM     17  O   UNL     1      31.913  -7.794 -22.445  0.00  0.00    -0.275 OA
ATOM     18  N   UNL     1      32.282  -9.668 -21.122  0.00  0.00    -0.279 N 
ATOM     19  C   UNL     1      31.535 -12.463 -20.810  0.00  0.00    +0.076 C 
ATOM     20  C   UNL     1      31.463 -11.467 -19.646  0.00  0.00    +0.041 C 
ATOM     21  C   UNL     1      31.436 -11.741 -22.159  0.00  0.00    +0.041 C 
ATOM     22  C   UNL     1      32.449 -10.309 -19.813  0.00  0.00    +0.095 C 
ATOM     23  C   UNL     1      32.414 -10.571 -22.267  0.00  0.00    +0.095 C 
ATOM     24  C   UNL     1      32.051  -8.310 -21.331  0.00  0.00    +0.226 C 
ATOM     25  C   UNL     1      31.967  -7.440 -20.102  0.00  0.00    +0.095 C 
ENDBRANCH   3  19
TORSDOF 2
ENDMDL
