MODEL 1
REMARK VINA RESULT:      -7.6      0.000      0.000
REMARK  Name = 65028
REMARK  9 active torsions:
REMARK  status: ('A' for Active; 'I' for Inactive)
REMARK    1  A    between atoms: C_1  and  N_8
REMARK    2  A    between atoms: C_2  and  N_12
REMARK    3  A    between atoms: C_3  and  O_21
REMARK    4  A    between atoms: C_6  and  C_17
REMARK    5  A    between atoms: C_17  and  O_18
REMARK    6  A    between atoms: O_18  and  C_19
REMARK    7  A    between atoms: O_21  and  C_22
REMARK    8  A    between atoms: C_22  and  C_23
REMARK    9  A    between atoms: C_22  and  C_25
REMARK                            x       y       z     vdW  Elec       q    Type
REMARK                         _______ _______ _______ _____ _____    ______ ____
ROOT
ATOM      1  C   UNL     1      33.331 -23.733 -15.797  0.00  0.00    +0.083 C 
ATOM      2  C   UNL     1      33.747 -23.933 -14.328  0.00  0.00    -0.040 C 
ATOM      3  C   UNL     1      34.371 -22.885 -16.557  0.00  0.00    +0.153 C 
ATOM      4  C   UNL     1      35.127 -24.608 -14.237  0.00  0.00    +0.013 C 
ATOM      5  C   UNL     1      35.796 -23.218 -16.212  0.00  0.00    +0.006 C 
ATOM      6  C   UNL     1      36.125 -24.002 -15.176  0.00  0.00    +0.049 C 
ENDROOT
BRANCH   1   8
ATOM      7  O   UNL     1      30.743 -25.046 -15.823  0.00  0.00    -0.275 OA
ATOM      8  N   UNL     1      32.028 -23.107 -15.888  0.00  0.00    -0.305 N 
ATOM      9  C   UNL     1      30.846 -23.824 -15.893  0.00  0.00    +0.223 C 
ATOM     10  C   UNL     1      29.640 -22.926 -15.970  0.00  0.00    +0.095 C 
ATOM     11  H   UNL     1      31.983 -22.125 -15.949  0.00  0.00    +0.149 HD
ENDBRANCH   1   8
BRANCH   2  12
ATOM     12  N   UNL     1      32.770 -24.753 -13.606  0.00  0.00    +0.383 N 
ATOM     13  H   UNL     1      31.950 -24.188 -13.384  0.00  0.00    -0.089 HD
ATOM     14  H   UNL     1      33.189 -25.100 -12.743  0.00  0.00    -0.089 HD
ATOM     15  H   UNL     1      32.491 -25.542 -14.190  0.00  0.00    -0.089 HD
ENDBRANCH   2  12
BRANCH   6  17
ATOM     16  O   UNL     1      38.445 -23.574 -15.407  0.00  0.00    -0.245 OA
ATOM     17  C   UNL     1      37.548 -24.261 -14.942  0.00  0.00    +0.337 C 
BRANCH  17  18
ATOM     18  O   UNL     1      37.667 -25.354 -14.149  0.00  0.00    -0.446 OA
BRANCH  18  19
ATOM     19  C   UNL     1      38.646 -25.255 -13.109  0.00  0.00    +0.209 C 
ATOM     20  C   UNL     1      38.105 -24.371 -12.006  0.00  0.00    +0.051 C 
ENDBRANCH  18  19
ENDBRANCH  17  18
ENDBRANCH   6  17
BRANCH   3  21
ATOM     21  O   UNL     1      34.172 -23.092 -17.956  0.00  0.00    -0.353 OA
BRANCH  21  22
ATOM     22  C   UNL     1      34.318 -21.883 -18.683  0.00  0.00    +0.116 C 
BRANCH  22  23
ATOM     23  C   UNL     1      32.976 -21.548 -19.344  0.00  0.00    +0.030 C 
ATOM     24  C   UNL     1      33.067 -20.328 -20.252  0.00  0.00    +0.003 C 
ENDBRANCH  22  23
BRANCH  22  25
ATOM     25  C   UNL     1      35.418 -22.040 -19.740  0.00  0.00    +0.030 C 
ATOM     26  C   UNL     1      36.603 -21.112 -19.504  0.00  0.00    +0.003 C 
ENDBRANCH  22  25
ENDBRANCH  21  22
ENDBRANCH   3  21
TORSDOF 9
ENDMDL
MODEL 2
REMARK VINA RESULT:      -7.6      1.796      5.480
REMARK  Name = 65028
REMARK  9 active torsions:
REMARK  status: ('A' for Active; 'I' for Inactive)
REMARK    1  A    between atoms: C_1  and  N_8
REMARK    2  A    between atoms: C_2  and  N_12
REMARK    3  A    between atoms: C_3  and  O_21
REMARK    4  A    between atoms: C_6  and  C_17
REMARK    5  A    between atoms: C_17  and  O_18
REMARK    6  A    between atoms: O_18  and  C_19
REMARK    7  A    between atoms: O_21  and  C_22
REMARK    8  A    between atoms: C_22  and  C_23
REMARK    9  A    between atoms: C_22  and  C_25
REMARK                            x       y       z     vdW  Elec       q    Type
REMARK                         _______ _______ _______ _____ _____    ______ ____
ROOT
ATOM      1  C   UNL     1      34.639 -23.262 -15.469  0.00  0.00    +0.083 C 
ATOM      2  C   UNL     1      33.682 -23.923 -14.460  0.00  0.00    -0.040 C 
ATOM      3  C   UNL     1      34.083 -23.358 -16.905  0.00  0.00    +0.153 C 
ATOM      4  C   UNL     1      32.291 -23.270 -14.516  0.00  0.00    +0.013 C 
ATOM      5  C   UNL     1      32.600 -23.121 -16.998  0.00  0.00    +0.006 C 
ATOM      6  C   UNL     1      31.807 -23.072 -15.920  0.00  0.00    +0.049 C 
ENDROOT
BRANCH   1   8
ATOM      7  O   UNL     1      37.207 -21.915 -15.595  0.00  0.00    -0.275 OA
ATOM      8  N   UNL     1      35.954 -23.868 -15.414  0.00  0.00    -0.305 N 
ATOM      9  C   UNL     1      37.124 -23.135 -15.482  0.00  0.00    +0.223 C 
ATOM     10  C   UNL     1      38.346 -24.008 -15.374  0.00  0.00    +0.095 C 
ATOM     11  H   UNL     1      36.017 -24.847 -15.322  0.00  0.00    +0.149 HD
ENDBRANCH   1   8
BRANCH   2  12
ATOM     12  N   UNL     1      34.199 -23.821 -13.093  0.00  0.00    +0.383 N 
ATOM     13  H   UNL     1      34.063 -22.871 -12.748  0.00  0.00    -0.089 HD
ATOM     14  H   UNL     1      35.194 -24.045 -13.088  0.00  0.00    -0.089 HD
ATOM     15  H   UNL     1      33.700 -24.476 -12.490  0.00  0.00    -0.089 HD
ENDBRANCH   2  12
BRANCH   6  17
ATOM     16  O   UNL     1      29.927 -22.308 -17.145  0.00  0.00    -0.245 OA
ATOM     17  C   UNL     1      30.378 -22.828 -16.136  0.00  0.00    +0.337 C 
BRANCH  17  18
ATOM     18  O   UNL     1      29.692 -23.271 -15.053  0.00  0.00    -0.446 OA
BRANCH  18  19
ATOM     19  C   UNL     1      28.807 -24.371 -15.295  0.00  0.00    +0.209 C 
ATOM     20  C   UNL     1      29.408 -25.626 -14.699  0.00  0.00    +0.051 C 
ENDBRANCH  18  19
ENDBRANCH  17  18
ENDBRANCH   6  17
BRANCH   3  21
ATOM     21  O   UNL     1      34.759 -22.387 -17.705  0.00  0.00    -0.353 OA
BRANCH  21  22
ATOM     22  C   UNL     1      34.321 -22.434 -19.054  0.00  0.00    +0.116 C 
BRANCH  22  23
ATOM     23  C   UNL     1      35.458 -21.935 -19.952  0.00  0.00    +0.030 C 
ATOM     24  C   UNL     1      36.632 -21.390 -19.148  0.00  0.00    +0.003 C 
ENDBRANCH  22  23
BRANCH  22  25
ATOM     25  C   UNL     1      33.071 -21.562 -19.226  0.00  0.00    +0.030 C 
ATOM     26  C   UNL     1      33.251 -20.471 -20.274  0.00  0.00    +0.003 C 
ENDBRANCH  22  25
ENDBRANCH  21  22
ENDBRANCH   3  21
TORSDOF 9
ENDMDL
MODEL 3
REMARK VINA RESULT:      -7.6     10.486     13.414
REMARK  Name = 65028
REMARK  9 active torsions:
REMARK  status: ('A' for Active; 'I' for Inactive)
REMARK    1  A    between atoms: C_1  and  N_8
REMARK    2  A    between atoms: C_2  and  N_12
REMARK    3  A    between atoms: C_3  and  O_21
REMARK    4  A    between atoms: C_6  and  C_17
REMARK    5  A    between atoms: C_17  and  O_18
REMARK    6  A    between atoms: O_18  and  C_19
REMARK    7  A    between atoms: O_21  and  C_22
REMARK    8  A    between atoms: C_22  and  C_23
REMARK    9  A    between atoms: C_22  and  C_25
REMARK                            x       y       z     vdW  Elec       q    Type
REMARK                         _______ _______ _______ _____ _____    ______ ____
ROOT
ATOM      1  C   UNL     1      33.502 -14.572 -22.828  0.00  0.00    +0.083 C 
ATOM      2  C   UNL     1      32.537 -14.962 -21.693  0.00  0.00    -0.040 C 
ATOM      3  C   UNL     1      33.000 -13.321 -23.577  0.00  0.00    +0.153 C 
ATOM      4  C   UNL     1      32.365 -13.801 -20.698  0.00  0.00    +0.013 C 
ATOM      5  C   UNL     1      32.424 -12.264 -22.676  0.00  0.00    +0.006 C 
ATOM      6  C   UNL     1      32.153 -12.485 -21.383  0.00  0.00    +0.049 C 
ENDROOT
BRANCH   1   8
ATOM      7  O   UNL     1      35.672 -16.498 -22.905  0.00  0.00    -0.275 OA
ATOM      8  N   UNL     1      33.675 -15.665 -23.763  0.00  0.00    -0.305 N 
ATOM      9  C   UNL     1      34.749 -16.534 -23.716  0.00  0.00    +0.223 C 
ATOM     10  C   UNL     1      34.670 -17.591 -24.784  0.00  0.00    +0.095 C 
ATOM     11  H   UNL     1      32.995 -15.795 -24.464  0.00  0.00    +0.149 HD
ENDBRANCH   1   8
BRANCH   2  12
ATOM     12  N   UNL     1      33.018 -16.141 -20.968  0.00  0.00    +0.383 N 
ATOM     13  H   UNL     1      33.721 -16.622 -21.529  0.00  0.00    -0.089 HD
ATOM     14  H   UNL     1      32.237 -16.771 -20.787  0.00  0.00    -0.089 HD
ATOM     15  H   UNL     1      33.433 -15.849 -20.082  0.00  0.00    -0.089 HD
ENDBRANCH   2  12
BRANCH   6  17
ATOM     16  O   UNL     1      31.282 -11.469 -19.426  0.00  0.00    -0.245 OA
ATOM     17  C   UNL     1      31.598 -11.375 -20.602  0.00  0.00    +0.337 C 
BRANCH  17  18
ATOM     18  O   UNL     1      31.511 -10.283 -21.401  0.00  0.00    -0.446 OA
BRANCH  18  19
ATOM     19  C   UNL     1      32.019  -9.069 -20.837  0.00  0.00    +0.209 C 
ATOM     20  C   UNL     1      32.741  -8.289 -21.915  0.00  0.00    +0.051 C 
ENDBRANCH  18  19
ENDBRANCH  17  18
ENDBRANCH   6  17
BRANCH   3  21
ATOM     21  O   UNL     1      34.103 -12.766 -24.297  0.00  0.00    -0.353 OA
BRANCH  21  22
ATOM     22  C   UNL     1      33.686 -11.702 -25.138  0.00  0.00    +0.116 C 
BRANCH  22  23
ATOM     23  C   UNL     1      33.855 -12.143 -26.597  0.00  0.00    +0.030 C 
ATOM     24  C   UNL     1      33.128 -13.448 -26.895  0.00  0.00    +0.003 C 
ENDBRANCH  22  23
BRANCH  22  25
ATOM     25  C   UNL     1      34.525 -10.451 -24.850  0.00  0.00    +0.030 C 
ATOM     26  C   UNL     1      35.640 -10.239 -25.865  0.00  0.00    +0.003 C 
ENDBRANCH  22  25
ENDBRANCH  21  22
ENDBRANCH   3  21
TORSDOF 9
ENDMDL
MODEL 4
REMARK VINA RESULT:      -7.3      8.994     12.292
REMARK  Name = 65028
REMARK  9 active torsions:
REMARK  status: ('A' for Active; 'I' for Inactive)
REMARK    1  A    between atoms: C_1  and  N_8
REMARK    2  A    between atoms: C_2  and  N_12
REMARK    3  A    between atoms: C_3  and  O_21
REMARK    4  A    between atoms: C_6  and  C_17
REMARK    5  A    between atoms: C_17  and  O_18
REMARK    6  A    between atoms: O_18  and  C_19
REMARK    7  A    between atoms: O_21  and  C_22
REMARK    8  A    between atoms: C_22  and  C_23
REMARK    9  A    between atoms: C_22  and  C_25
REMARK                            x       y       z     vdW  Elec       q    Type
REMARK                         _______ _______ _______ _____ _____    ______ ____
ROOT
ATOM      1  C   UNL     1      32.601 -13.508 -21.592  0.00  0.00    +0.083 C 
ATOM      2  C   UNL     1      33.128 -14.778 -20.898  0.00  0.00    -0.040 C 
ATOM      3  C   UNL     1      33.569 -13.035 -22.695  0.00  0.00    +0.153 C 
ATOM      4  C   UNL     1      33.339 -15.911 -21.918  0.00  0.00    +0.013 C 
ATOM      5  C   UNL     1      34.155 -14.155 -23.510  0.00  0.00    +0.006 C 
ATOM      6  C   UNL     1      34.036 -15.443 -23.159  0.00  0.00    +0.049 C 
ENDROOT
BRANCH   1   8
ATOM      7  O   UNL     1      30.453 -11.556 -21.569  0.00  0.00    -0.275 OA
ATOM      8  N   UNL     1      32.392 -12.441 -20.634  0.00  0.00    -0.305 N 
ATOM      9  C   UNL     1      31.331 -11.558 -20.710  0.00  0.00    +0.223 C 
ATOM     10  C   UNL     1      31.337 -10.566 -19.577  0.00  0.00    +0.095 C 
ATOM     11  H   UNL     1      33.035 -12.341 -19.895  0.00  0.00    +0.149 HD
ENDBRANCH   1   8
BRANCH   2  12
ATOM     12  N   UNL     1      32.203 -15.240 -19.860  0.00  0.00    +0.383 N 
ATOM     13  H   UNL     1      32.730 -15.682 -19.107  0.00  0.00    -0.089 HD
ATOM     14  H   UNL     1      31.552 -15.914 -20.261  0.00  0.00    -0.089 HD
ATOM     15  H   UNL     1      31.684 -14.444 -19.489  0.00  0.00    -0.089 HD
ENDBRANCH   2  12
BRANCH   6  17
ATOM     16  O   UNL     1      34.453 -16.494 -25.242  0.00  0.00    -0.245 OA
ATOM     17  C   UNL     1      34.645 -16.447 -24.037  0.00  0.00    +0.337 C 
BRANCH  17  18
ATOM     18  O   UNL     1      35.421 -17.268 -23.286  0.00  0.00    -0.446 OA
BRANCH  18  19
ATOM     19  C   UNL     1      35.311 -18.663 -23.590  0.00  0.00    +0.209 C 
ATOM     20  C   UNL     1      34.678 -19.375 -22.413  0.00  0.00    +0.051 C 
ENDBRANCH  18  19
ENDBRANCH  17  18
ENDBRANCH   6  17
BRANCH   3  21
ATOM     21  O   UNL     1      32.853 -12.155 -23.563  0.00  0.00    -0.353 OA
BRANCH  21  22
ATOM     22  C   UNL     1      33.612 -10.994 -23.861  0.00  0.00    +0.116 C 
BRANCH  22  23
ATOM     23  C   UNL     1      32.691  -9.773 -23.758  0.00  0.00    +0.030 C 
ATOM     24  C   UNL     1      33.141  -8.798 -22.677  0.00  0.00    +0.003 C 
ENDBRANCH  22  23
BRANCH  22  25
ATOM     25  C   UNL     1      34.206 -11.107 -25.270  0.00  0.00    +0.030 C 
ATOM     26  C   UNL     1      35.421 -10.211 -25.473  0.00  0.00    +0.003 C 
ENDBRANCH  22  25
ENDBRANCH  21  22
ENDBRANCH   3  21
TORSDOF 9
ENDMDL
MODEL 5
REMARK VINA RESULT:      -7.2      1.603      2.013
REMARK  Name = 65028
REMARK  9 active torsions:
REMARK  status: ('A' for Active; 'I' for Inactive)
REMARK    1  A    between atoms: C_1  and  N_8
REMARK    2  A    between atoms: C_2  and  N_12
REMARK    3  A    between atoms: C_3  and  O_21
REMARK    4  A    between atoms: C_6  and  C_17
REMARK    5  A    between atoms: C_17  and  O_18
REMARK    6  A    between atoms: O_18  and  C_19
REMARK    7  A    between atoms: O_21  and  C_22
REMARK    8  A    between atoms: C_22  and  C_23
REMARK    9  A    between atoms: C_22  and  C_25
REMARK                            x       y       z     vdW  Elec       q    Type
REMARK                         _______ _______ _______ _____ _____    ______ ____
ROOT
ATOM      1  C   UNL     1      31.515 -23.535 -16.211  0.00  0.00    +0.083 C 
ATOM      2  C   UNL     1      31.608 -23.782 -14.694  0.00  0.00    -0.040 C 
ATOM      3  C   UNL     1      32.750 -22.768 -16.725  0.00  0.00    +0.153 C 
ATOM      4  C   UNL     1      32.883 -24.568 -14.344  0.00  0.00    +0.013 C 
ATOM      5  C   UNL     1      34.046 -23.220 -16.108  0.00  0.00    +0.006 C 
ATOM      6  C   UNL     1      34.095 -24.037 -15.048  0.00  0.00    +0.049 C 
ENDROOT
BRANCH   1   8
ATOM      7  O   UNL     1      28.832 -24.600 -16.515  0.00  0.00    -0.275 OA
ATOM      8  N   UNL     1      30.310 -22.803 -16.547  0.00  0.00    -0.305 N 
ATOM      9  C   UNL     1      29.072 -23.405 -16.668  0.00  0.00    +0.223 C 
ATOM     10  C   UNL     1      27.990 -22.413 -16.997  0.00  0.00    +0.095 C 
ATOM     11  H   UNL     1      30.377 -21.832 -16.694  0.00  0.00    +0.149 HD
ENDBRANCH   1   8
BRANCH   2  12
ATOM     12  N   UNL     1      30.444 -24.524 -14.204  0.00  0.00    +0.383 N 
ATOM     13  H   UNL     1      30.249 -25.305 -14.831  0.00  0.00    -0.089 HD
ATOM     14  H   UNL     1      29.634 -23.905 -14.171  0.00  0.00    -0.089 HD
ATOM     15  H   UNL     1      30.637 -24.882 -13.268  0.00  0.00    -0.089 HD
ENDBRANCH   2  12
BRANCH   6  17
ATOM     16  O   UNL     1      35.815 -24.130 -13.420  0.00  0.00    -0.245 OA
ATOM     17  C   UNL     1      35.417 -24.414 -14.539  0.00  0.00    +0.337 C 
BRANCH  17  18
ATOM     18  O   UNL     1      36.074 -25.103 -15.504  0.00  0.00    -0.446 OA
BRANCH  18  19
ATOM     19  C   UNL     1      36.707 -26.313 -15.071  0.00  0.00    +0.209 C 
ATOM     20  C   UNL     1      38.169 -26.032 -14.797  0.00  0.00    +0.051 C 
ENDBRANCH  18  19
ENDBRANCH  17  18
ENDBRANCH   6  17
BRANCH   3  21
ATOM     21  O   UNL     1      32.823 -22.946 -18.140  0.00  0.00    -0.353 OA
BRANCH  21  22
ATOM     22  C   UNL     1      33.525 -21.880 -18.759  0.00  0.00    +0.116 C 
BRANCH  22  23
ATOM     23  C   UNL     1      32.595 -21.215 -19.781  0.00  0.00    +0.030 C 
ATOM     24  C   UNL     1      33.268 -20.058 -20.508  0.00  0.00    +0.003 C 
ENDBRANCH  22  23
BRANCH  22  25
ATOM     25  C   UNL     1      34.788 -22.415 -19.444  0.00  0.00    +0.030 C 
ATOM     26  C   UNL     1      36.061 -21.743 -18.945  0.00  0.00    +0.003 C 
ENDBRANCH  22  25
ENDBRANCH  21  22
ENDBRANCH   3  21
TORSDOF 9
ENDMDL
MODEL 6
REMARK VINA RESULT:      -7.2      2.350      5.618
REMARK  Name = 65028
REMARK  9 active torsions:
REMARK  status: ('A' for Active; 'I' for Inactive)
REMARK    1  A    between atoms: C_1  and  N_8
REMARK    2  A    between atoms: C_2  and  N_12
REMARK    3  A    between atoms: C_3  and  O_21
REMARK    4  A    between atoms: C_6  and  C_17
REMARK    5  A    between atoms: C_17  and  O_18
REMARK    6  A    between atoms: O_18  and  C_19
REMARK    7  A    between atoms: O_21  and  C_22
REMARK    8  A    between atoms: C_22  and  C_23
REMARK    9  A    between atoms: C_22  and  C_25
REMARK                            x       y       z     vdW  Elec       q    Type
REMARK                         _______ _______ _______ _____ _____    ______ ____
ROOT
ATOM      1  C   UNL     1      35.841 -24.314 -14.159  0.00  0.00    +0.083 C 
ATOM      2  C   UNL     1      37.233 -23.676 -14.321  0.00  0.00    -0.040 C 
ATOM      3  C   UNL     1      34.729 -23.341 -14.603  0.00  0.00    +0.153 C 
ATOM      4  C   UNL     1      37.474 -23.252 -15.780  0.00  0.00    +0.013 C 
ATOM      5  C   UNL     1      35.065 -22.561 -15.844  0.00  0.00    +0.006 C 
ATOM      6  C   UNL     1      36.297 -22.537 -16.372  0.00  0.00    +0.049 C 
ENDROOT
BRANCH   1   8
ATOM      7  O   UNL     1      36.495 -22.840 -11.746  0.00  0.00    -0.275 OA
ATOM      8  N   UNL     1      35.612 -24.724 -12.788  0.00  0.00    -0.305 N 
ATOM      9  C   UNL     1      35.962 -23.945 -11.701  0.00  0.00    +0.223 C 
ATOM     10  C   UNL     1      35.590 -24.596 -10.395  0.00  0.00    +0.095 C 
ATOM     11  H   UNL     1      35.188 -25.597 -12.624  0.00  0.00    +0.149 HD
ENDBRANCH   1   8
BRANCH   2  12
ATOM     12  N   UNL     1      38.292 -24.603 -13.916  0.00  0.00    +0.383 N 
ATOM     13  H   UNL     1      38.967 -24.701 -14.674  0.00  0.00    -0.089 HD
ATOM     14  H   UNL     1      37.885 -25.513 -13.703  0.00  0.00    -0.089 HD
ATOM     15  H   UNL     1      38.764 -24.238 -13.087  0.00  0.00    -0.089 HD
ENDBRANCH   2  12
BRANCH   6  17
ATOM     16  O   UNL     1      37.202 -20.745 -17.633  0.00  0.00    -0.245 OA
ATOM     17  C   UNL     1      36.502 -21.745 -17.588  0.00  0.00    +0.337 C 
BRANCH  17  18
ATOM     18  O   UNL     1      35.799 -22.313 -18.600  0.00  0.00    -0.446 OA
BRANCH  18  19
ATOM     19  C   UNL     1      35.179 -21.395 -19.506  0.00  0.00    +0.209 C 
ATOM     20  C   UNL     1      33.677 -21.568 -19.433  0.00  0.00    +0.051 C 
ENDBRANCH  18  19
ENDBRANCH  17  18
ENDBRANCH   6  17
BRANCH   3  21
ATOM     21  O   UNL     1      33.545 -24.103 -14.840  0.00  0.00    -0.353 OA
BRANCH  21  22
ATOM     22  C   UNL     1      32.404 -23.266 -14.940  0.00  0.00    +0.116 C 
BRANCH  22  23
ATOM     23  C   UNL     1      31.469 -23.577 -13.766  0.00  0.00    +0.030 C 
ATOM     24  C   UNL     1      31.263 -25.074 -13.573  0.00  0.00    +0.003 C 
ENDBRANCH  22  23
BRANCH  22  25
ATOM     25  C   UNL     1      31.694 -23.509 -16.278  0.00  0.00    +0.030 C 
ATOM     26  C   UNL     1      30.323 -22.850 -16.349  0.00  0.00    +0.003 C 
ENDBRANCH  22  25
ENDBRANCH  21  22
ENDBRANCH   3  21
TORSDOF 9
ENDMDL
MODEL 7
REMARK VINA RESULT:      -7.1     11.092     13.905
REMARK  Name = 65028
REMARK  9 active torsions:
REMARK  status: ('A' for Active; 'I' for Inactive)
REMARK    1  A    between atoms: C_1  and  N_8
REMARK    2  A    between atoms: C_2  and  N_12
REMARK    3  A    between atoms: C_3  and  O_21
REMARK    4  A    between atoms: C_6  and  C_17
REMARK    5  A    between atoms: C_17  and  O_18
REMARK    6  A    between atoms: O_18  and  C_19
REMARK    7  A    between atoms: O_21  and  C_22
REMARK    8  A    between atoms: C_22  and  C_23
REMARK    9  A    between atoms: C_22  and  C_25
REMARK                            x       y       z     vdW  Elec       q    Type
REMARK                         _______ _______ _______ _____ _____    ______ ____
ROOT
ATOM      1  C   UNL     1      33.752 -11.973 -24.285  0.00  0.00    +0.083 C 
ATOM      2  C   UNL     1      33.626 -12.063 -25.817  0.00  0.00    -0.040 C 
ATOM      3  C   UNL     1      32.878 -13.039 -23.593  0.00  0.00    +0.153 C 
ATOM      4  C   UNL     1      34.029 -13.462 -26.317  0.00  0.00    +0.013 C 
ATOM      5  C   UNL     1      32.899 -14.378 -24.277  0.00  0.00    +0.006 C 
ATOM      6  C   UNL     1      33.428 -14.560 -25.494  0.00  0.00    +0.049 C 
ENDROOT
BRANCH   1   8
ATOM      7  O   UNL     1      35.444  -9.620 -24.124  0.00  0.00    -0.275 OA
ATOM      8  N   UNL     1      33.383 -10.654 -23.810  0.00  0.00    -0.305 N 
ATOM      9  C   UNL     1      34.267  -9.593 -23.773  0.00  0.00    +0.223 C 
ATOM     10  C   UNL     1      33.619  -8.334 -23.261  0.00  0.00    +0.095 C 
ATOM     11  H   UNL     1      32.459 -10.509 -23.500  0.00  0.00    +0.149 HD
ENDBRANCH   1   8
BRANCH   2  12
ATOM     12  N   UNL     1      34.467 -11.063 -26.479  0.00  0.00    +0.383 N 
ATOM     13  H   UNL     1      35.432 -11.392 -26.505  0.00  0.00    -0.089 HD
ATOM     14  H   UNL     1      34.420 -10.184 -25.963  0.00  0.00    -0.089 HD
ATOM     15  H   UNL     1      34.133 -10.915 -27.433  0.00  0.00    -0.089 HD
ENDBRANCH   2  12
BRANCH   6  17
ATOM     16  O   UNL     1      32.426 -16.382 -26.632  0.00  0.00    -0.245 OA
ATOM     17  C   UNL     1      33.396 -15.913 -26.056  0.00  0.00    +0.337 C 
BRANCH  17  18
ATOM     18  O   UNL     1      34.591 -16.510 -25.823  0.00  0.00    -0.446 OA
BRANCH  18  19
ATOM     19  C   UNL     1      34.531 -17.738 -25.089  0.00  0.00    +0.209 C 
ATOM     20  C   UNL     1      34.981 -17.484 -23.666  0.00  0.00    +0.051 C 
ENDBRANCH  18  19
ENDBRANCH  17  18
ENDBRANCH   6  17
BRANCH   3  21
ATOM     21  O   UNL     1      33.351 -13.194 -22.254  0.00  0.00    -0.353 OA
BRANCH  21  22
ATOM     22  C   UNL     1      32.294 -13.536 -21.371  0.00  0.00    +0.116 C 
BRANCH  22  23
ATOM     23  C   UNL     1      31.986 -12.321 -20.488  0.00  0.00    +0.030 C 
ATOM     24  C   UNL     1      30.905 -11.431 -21.087  0.00  0.00    +0.003 C 
ENDBRANCH  22  23
BRANCH  22  25
ATOM     25  C   UNL     1      32.702 -14.740 -20.512  0.00  0.00    +0.030 C 
ATOM     26  C   UNL     1      34.164 -15.127 -20.692  0.00  0.00    +0.003 C 
ENDBRANCH  22  25
ENDBRANCH  21  22
ENDBRANCH   3  21
TORSDOF 9
ENDMDL
MODEL 8
REMARK VINA RESULT:      -7.1      2.014      5.936
REMARK  Name = 65028
REMARK  9 active torsions:
REMARK  status: ('A' for Active; 'I' for Inactive)
REMARK    1  A    between atoms: C_1  and  N_8
REMARK    2  A    between atoms: C_2  and  N_12
REMARK    3  A    between atoms: C_3  and  O_21
REMARK    4  A    between atoms: C_6  and  C_17
REMARK    5  A    between atoms: C_17  and  O_18
REMARK    6  A    between atoms: O_18  and  C_19
REMARK    7  A    between atoms: O_21  and  C_22
REMARK    8  A    between atoms: C_22  and  C_23
REMARK    9  A    between atoms: C_22  and  C_25
REMARK                            x       y       z     vdW  Elec       q    Type
REMARK                         _______ _______ _______ _____ _____    ______ ____
ROOT
ATOM      1  C   UNL     1      34.759 -23.813 -14.430  0.00  0.00    +0.083 C 
ATOM      2  C   UNL     1      35.694 -22.783 -15.091  0.00  0.00    -0.040 C 
ATOM      3  C   UNL     1      33.296 -23.594 -14.867  0.00  0.00    +0.153 C 
ATOM      4  C   UNL     1      35.598 -22.862 -16.624  0.00  0.00    +0.013 C 
ATOM      5  C   UNL     1      33.141 -23.256 -16.324  0.00  0.00    +0.006 C 
ATOM      6  C   UNL     1      34.182 -22.940 -17.107  0.00  0.00    +0.049 C 
ENDROOT
BRANCH   1   8
ATOM      7  O   UNL     1      36.389 -25.473 -12.695  0.00  0.00    -0.275 OA
ATOM      8  N   UNL     1      34.852 -23.750 -12.986  0.00  0.00    -0.305 N 
ATOM      9  C   UNL     1      35.663 -24.589 -12.246  0.00  0.00    +0.223 C 
ATOM     10  C   UNL     1      35.591 -24.292 -10.772  0.00  0.00    +0.095 C 
ATOM     11  H   UNL     1      34.314 -23.076 -12.510  0.00  0.00    +0.149 HD
ENDBRANCH   1   8
BRANCH   2  12
ATOM     12  N   UNL     1      37.087 -22.998 -14.691  0.00  0.00    +0.383 N 
ATOM     13  H   UNL     1      37.384 -23.930 -14.979  0.00  0.00    -0.089 HD
ATOM     14  H   UNL     1      37.167 -22.913 -13.678  0.00  0.00    -0.089 HD
ATOM     15  H   UNL     1      37.681 -22.299 -15.139  0.00  0.00    -0.089 HD
ENDBRANCH   2  12
BRANCH   6  17
ATOM     16  O   UNL     1      32.782 -22.506 -18.970  0.00  0.00    -0.245 OA
ATOM     17  C   UNL     1      33.908 -22.635 -18.514  0.00  0.00    +0.337 C 
BRANCH  17  18
ATOM     18  O   UNL     1      35.087 -22.529 -19.175  0.00  0.00    -0.446 OA
BRANCH  18  19
ATOM     19  C   UNL     1      35.247 -21.343 -19.960  0.00  0.00    +0.209 C 
ATOM     20  C   UNL     1      36.672 -20.852 -19.826  0.00  0.00    +0.051 C 
ENDBRANCH  18  19
ENDBRANCH  17  18
ENDBRANCH   6  17
BRANCH   3  21
ATOM     21  O   UNL     1      32.569 -24.792 -14.589  0.00  0.00    -0.353 OA
BRANCH  21  22
ATOM     22  C   UNL     1      31.249 -24.505 -14.152  0.00  0.00    +0.116 C 
BRANCH  22  23
ATOM     23  C   UNL     1      30.263 -25.085 -15.172  0.00  0.00    +0.030 C 
ATOM     24  C   UNL     1      29.003 -25.632 -14.512  0.00  0.00    +0.003 C 
ENDBRANCH  22  23
BRANCH  22  25
ATOM     25  C   UNL     1      31.062 -22.988 -14.020  0.00  0.00    +0.030 C 
ATOM     26  C   UNL     1      29.894 -22.463 -14.844  0.00  0.00    +0.003 C 
ENDBRANCH  22  25
ENDBRANCH  21  22
ENDBRANCH   3  21
TORSDOF 9
ENDMDL
MODEL 9
REMARK VINA RESULT:      -7.0     11.425     15.086
REMARK  Name = 65028
REMARK  9 active torsions:
REMARK  status: ('A' for Active; 'I' for Inactive)
REMARK    1  A    between atoms: C_1  and  N_8
REMARK    2  A    between atoms: C_2  and  N_12
REMARK    3  A    between atoms: C_3  and  O_21
REMARK    4  A    between atoms: C_6  and  C_17
REMARK    5  A    between atoms: C_17  and  O_18
REMARK    6  A    between atoms: O_18  and  C_19
REMARK    7  A    between atoms: O_21  and  C_22
REMARK    8  A    between atoms: C_22  and  C_23
REMARK    9  A    between atoms: C_22  and  C_25
REMARK                            x       y       z     vdW  Elec       q    Type
REMARK                         _______ _______ _______ _____ _____    ______ ____
ROOT
ATOM      1  C   UNL     1      33.758 -10.216 -23.936  0.00  0.00    +0.083 C 
ATOM      2  C   UNL     1      33.821 -11.217 -25.105  0.00  0.00    -0.040 C 
ATOM      3  C   UNL     1      32.620 -10.574 -22.960  0.00  0.00    +0.153 C 
ATOM      4  C   UNL     1      34.021 -12.652 -24.586  0.00  0.00    +0.013 C 
ATOM      5  C   UNL     1      32.483 -12.050 -22.701  0.00  0.00    +0.006 C 
ATOM      6  C   UNL     1      33.125 -12.974 -23.429  0.00  0.00    +0.049 C 
ENDROOT
BRANCH   1   8
ATOM      7  O   UNL     1      35.226  -7.847 -23.127  0.00  0.00    -0.275 OA
ATOM      8  N   UNL     1      33.580  -8.862 -24.420  0.00  0.00    -0.305 N 
ATOM      9  C   UNL     1      34.334  -7.795 -23.969  0.00  0.00    +0.223 C 
ATOM     10  C   UNL     1      33.961  -6.508 -24.655  0.00  0.00    +0.095 C 
ATOM     11  H   UNL     1      32.889  -8.695 -25.102  0.00  0.00    +0.149 HD
ENDBRANCH   1   8
BRANCH   2  12
ATOM     12  N   UNL     1      34.911 -10.890 -26.027  0.00  0.00    +0.383 N 
ATOM     13  H   UNL     1      35.271  -9.960 -25.812  0.00  0.00    -0.089 HD
ATOM     14  H   UNL     1      34.562 -10.907 -26.986  0.00  0.00    -0.089 HD
ATOM     15  H   UNL     1      35.660 -11.576 -25.926  0.00  0.00    -0.089 HD
ENDBRANCH   2  12
BRANCH   6  17
ATOM     16  O   UNL     1      33.340 -15.313 -23.748  0.00  0.00    -0.245 OA
ATOM     17  C   UNL     1      32.918 -14.382 -23.079  0.00  0.00    +0.337 C 
BRANCH  17  18
ATOM     18  O   UNL     1      32.204 -14.443 -21.927  0.00  0.00    -0.446 OA
BRANCH  18  19
ATOM     19  C   UNL     1      32.622 -15.452 -21.000  0.00  0.00    +0.209 C 
ATOM     20  C   UNL     1      34.003 -15.107 -20.485  0.00  0.00    +0.051 C 
ENDBRANCH  18  19
ENDBRANCH  17  18
ENDBRANCH   6  17
BRANCH   3  21
ATOM     21  O   UNL     1      32.876  -9.909 -21.722  0.00  0.00    -0.353 OA
BRANCH  21  22
ATOM     22  C   UNL     1      31.692  -9.334 -21.191  0.00  0.00    +0.116 C 
BRANCH  22  23
ATOM     23  C   UNL     1      31.683  -7.840 -21.532  0.00  0.00    +0.030 C 
ATOM     24  C   UNL     1      32.423  -7.005 -20.494  0.00  0.00    +0.003 C 
ENDBRANCH  22  23
BRANCH  22  25
ATOM     25  C   UNL     1      31.646  -9.544 -19.673  0.00  0.00    +0.030 C 
ATOM     26  C   UNL     1      31.422 -10.999 -19.283  0.00  0.00    +0.003 C 
ENDBRANCH  22  25
ENDBRANCH  21  22
ENDBRANCH   3  21
TORSDOF 9
ENDMDL
