MODEL 1
REMARK VINA RESULT:      -8.3      0.000      0.000
REMARK  Name = 447329
REMARK  3 active torsions:
REMARK  status: ('A' for Active; 'I' for Inactive)
REMARK    1  A    between atoms: C_11  and  C_17
REMARK    2  A    between atoms: C_17  and  C_18
REMARK    3  A    between atoms: C_18  and  S_19
REMARK                            x       y       z     vdW  Elec       q    Type
REMARK                         _______ _______ _______ _____ _____    ______ ____
ROOT
ATOM      1  O   UNL     1      36.434 -25.747 -12.017  0.00  0.00    -0.275 OA
ATOM      2  N   UNL     1      36.478 -24.050 -13.609  0.00  0.00    -0.274 N 
ATOM      3  N   UNL     1      36.952 -22.094 -16.754  0.00  0.00    -0.355 N 
ATOM      4  C   UNL     1      35.193 -23.212 -15.978  0.00  0.00    -0.006 A 
ATOM      5  C   UNL     1      36.484 -22.820 -15.697  0.00  0.00    +0.050 A 
ATOM      6  C   UNL     1      34.408 -24.029 -15.015  0.00  0.00    +0.049 C 
ATOM      7  C   UNL     1      37.251 -23.112 -14.459  0.00  0.00    +0.137 C 
ATOM      8  C   UNL     1      35.007 -23.891 -13.603  0.00  0.00    +0.098 C 
ATOM      9  C   UNL     1      34.860 -22.711 -17.266  0.00  0.00    +0.013 A 
ATOM     10  C   UNL     1      35.980 -22.012 -17.730  0.00  0.00    +0.056 A 
ATOM     11  C   UNL     1      37.065 -24.963 -12.728  0.00  0.00    +0.227 C 
ATOM     12  C   UNL     1      33.717 -22.779 -18.087  0.00  0.00    +0.001 C 
ATOM     13  C   UNL     1      36.009 -21.378 -18.977  0.00  0.00    +0.017 C 
ATOM     14  C   UNL     1      33.733 -22.150 -19.337  0.00  0.00    +0.000 C 
ATOM     15  C   UNL     1      34.863 -21.461 -19.773  0.00  0.00    +0.001 C 
ATOM     16  H   UNL     1      37.848 -21.690 -16.812  0.00  0.00    +0.166 HD
ENDROOT
BRANCH  11  17
ATOM     17  C   UNL     1      38.574 -24.966 -12.674  0.00  0.00    +0.097 C 
BRANCH  17  18
ATOM     18  C   UNL     1      39.146 -26.055 -13.561  0.00  0.00    +0.063 C 
BRANCH  18  19
ATOM     19  S   UNL     1      40.250 -25.389 -14.845  0.00  0.00    -0.167 S 
ATOM     20  H   UNL     1      41.350 -24.843 -14.259  0.00  0.00    +0.102 HD
ENDBRANCH  18  19
ENDBRANCH  17  18
ENDBRANCH  11  17
TORSDOF 3
ENDMDL
MODEL 2
REMARK VINA RESULT:      -8.2      3.648      4.690
REMARK  Name = 447329
REMARK  3 active torsions:
REMARK  status: ('A' for Active; 'I' for Inactive)
REMARK    1  A    between atoms: C_11  and  C_17
REMARK    2  A    between atoms: C_17  and  C_18
REMARK    3  A    between atoms: C_18  and  S_19
REMARK                            x       y       z     vdW  Elec       q    Type
REMARK                         _______ _______ _______ _____ _____    ______ ____
ROOT
ATOM      1  O   UNL     1      33.535 -24.305 -12.871  0.00  0.00    -0.275 OA
ATOM      2  N   UNL     1      33.350 -23.880 -15.152  0.00  0.00    -0.274 N 
ATOM      3  N   UNL     1      32.883 -22.223 -18.466  0.00  0.00    -0.355 N 
ATOM      4  C   UNL     1      34.721 -22.638 -17.283  0.00  0.00    -0.006 A 
ATOM      5  C   UNL     1      33.354 -22.807 -17.326  0.00  0.00    +0.050 A 
ATOM      6  C   UNL     1      35.529 -23.163 -16.151  0.00  0.00    +0.049 C 
ATOM      7  C   UNL     1      32.516 -23.514 -16.323  0.00  0.00    +0.137 C 
ATOM      8  C   UNL     1      34.751 -24.274 -15.425  0.00  0.00    +0.098 C 
ATOM      9  C   UNL     1      35.101 -21.910 -18.444  0.00  0.00    +0.013 A 
ATOM     10  C   UNL     1      33.930 -21.664 -19.169  0.00  0.00    +0.056 A 
ATOM     11  C   UNL     1      32.852 -24.002 -13.852  0.00  0.00    +0.227 C 
ATOM     12  C   UNL     1      36.326 -21.435 -18.955  0.00  0.00    +0.001 C 
ATOM     13  C   UNL     1      33.927 -20.965 -20.382  0.00  0.00    +0.017 C 
ATOM     14  C   UNL     1      36.337 -20.735 -20.166  0.00  0.00    +0.000 C 
ATOM     15  C   UNL     1      35.154 -20.504 -20.867  0.00  0.00    +0.001 C 
ATOM     16  H   UNL     1      31.940 -22.202 -18.744  0.00  0.00    +0.166 HD
ENDROOT
BRANCH  11  17
ATOM     17  C   UNL     1      31.378 -23.732 -13.672  0.00  0.00    +0.097 C 
BRANCH  17  18
ATOM     18  C   UNL     1      30.584 -25.025 -13.683  0.00  0.00    +0.063 C 
BRANCH  18  19
ATOM     19  S   UNL     1      29.263 -25.011 -14.935  0.00  0.00    -0.167 S 
ATOM     20  H   UNL     1      28.152 -25.611 -14.428  0.00  0.00    +0.102 HD
ENDBRANCH  18  19
ENDBRANCH  17  18
ENDBRANCH  11  17
TORSDOF 3
ENDMDL
MODEL 3
REMARK VINA RESULT:      -8.1     10.438     13.427
REMARK  Name = 447329
REMARK  3 active torsions:
REMARK  status: ('A' for Active; 'I' for Inactive)
REMARK    1  A    between atoms: C_11  and  C_17
REMARK    2  A    between atoms: C_17  and  C_18
REMARK    3  A    between atoms: C_18  and  S_19
REMARK                            x       y       z     vdW  Elec       q    Type
REMARK                         _______ _______ _______ _____ _____    ______ ____
ROOT
ATOM      1  O   UNL     1      32.330 -10.221 -22.021  0.00  0.00    -0.275 OA
ATOM      2  N   UNL     1      32.675 -12.344 -22.909  0.00  0.00    -0.274 N 
ATOM      3  N   UNL     1      34.232 -15.463 -24.250  0.00  0.00    -0.355 N 
ATOM      4  C   UNL     1      33.591 -14.915 -22.191  0.00  0.00    -0.006 A 
ATOM      5  C   UNL     1      33.633 -14.490 -23.502  0.00  0.00    +0.050 A 
ATOM      6  C   UNL     1      32.999 -14.067 -21.123  0.00  0.00    +0.049 C 
ATOM      7  C   UNL     1      33.111 -13.206 -24.036  0.00  0.00    +0.137 C 
ATOM      8  C   UNL     1      32.057 -13.023 -21.748  0.00  0.00    +0.098 C 
ATOM      9  C   UNL     1      34.197 -16.200 -22.135  0.00  0.00    +0.013 A 
ATOM     10  C   UNL     1      34.589 -16.520 -23.439  0.00  0.00    +0.056 A 
ATOM     11  C   UNL     1      32.690 -10.947 -22.950  0.00  0.00    +0.227 C 
ATOM     12  C   UNL     1      34.454 -17.127 -21.104  0.00  0.00    +0.001 C 
ATOM     13  C   UNL     1      35.224 -17.725 -23.761  0.00  0.00    +0.017 C 
ATOM     14  C   UNL     1      35.088 -18.335 -21.413  0.00  0.00    +0.000 C 
ATOM     15  C   UNL     1      35.467 -18.627 -22.722  0.00  0.00    +0.001 C 
ATOM     16  H   UNL     1      34.386 -15.417 -25.221  0.00  0.00    +0.166 HD
ENDROOT
BRANCH  11  17
ATOM     17  C   UNL     1      33.193 -10.320 -24.227  0.00  0.00    +0.097 C 
BRANCH  17  18
ATOM     18  C   UNL     1      34.594  -9.766 -24.044  0.00  0.00    +0.063 C 
BRANCH  18  19
ATOM     19  S   UNL     1      34.590  -7.974 -23.727  0.00  0.00    -0.167 S 
ATOM     20  H   UNL     1      34.840  -7.307 -24.886  0.00  0.00    +0.102 HD
ENDBRANCH  18  19
ENDBRANCH  17  18
ENDBRANCH  11  17
TORSDOF 3
ENDMDL
MODEL 4
REMARK VINA RESULT:      -7.8     12.071     14.749
REMARK  Name = 447329
REMARK  3 active torsions:
REMARK  status: ('A' for Active; 'I' for Inactive)
REMARK    1  A    between atoms: C_11  and  C_17
REMARK    2  A    between atoms: C_17  and  C_18
REMARK    3  A    between atoms: C_18  and  S_19
REMARK                            x       y       z     vdW  Elec       q    Type
REMARK                         _______ _______ _______ _____ _____    ______ ____
ROOT
ATOM      1  O   UNL     1      34.524 -15.288 -23.976  0.00  0.00    -0.275 OA
ATOM      2  N   UNL     1      33.244 -13.408 -23.482  0.00  0.00    -0.274 N 
ATOM      3  N   UNL     1      31.907 -10.285 -21.931  0.00  0.00    -0.355 N 
ATOM      4  C   UNL     1      33.316 -10.590 -23.626  0.00  0.00    -0.006 A 
ATOM      5  C   UNL     1      32.512 -11.231 -22.707  0.00  0.00    +0.050 A 
ATOM      6  C   UNL     1      34.118 -11.356 -24.616  0.00  0.00    +0.049 C 
ATOM      7  C   UNL     1      32.310 -12.697 -22.575  0.00  0.00    +0.137 C 
ATOM      8  C   UNL     1      33.529 -12.768 -24.785  0.00  0.00    +0.098 C 
ATOM      9  C   UNL     1      33.204  -9.192 -23.395  0.00  0.00    +0.013 A 
ATOM     10  C   UNL     1      32.314  -9.028 -22.328  0.00  0.00    +0.056 A 
ATOM     11  C   UNL     1      33.747 -14.688 -23.230  0.00  0.00    +0.227 C 
ATOM     12  C   UNL     1      33.770  -8.045 -23.987  0.00  0.00    +0.001 C 
ATOM     13  C   UNL     1      31.963  -7.769 -21.826  0.00  0.00    +0.017 C 
ATOM     14  C   UNL     1      33.427  -6.780 -23.494  0.00  0.00    +0.000 C 
ATOM     15  C   UNL     1      32.538  -6.648 -22.429  0.00  0.00    +0.001 C 
ATOM     16  H   UNL     1      31.278 -10.471 -21.198  0.00  0.00    +0.166 HD
ENDROOT
BRANCH  11  17
ATOM     17  C   UNL     1      33.293 -15.345 -21.949  0.00  0.00    +0.097 C 
BRANCH  17  18
ATOM     18  C   UNL     1      34.482 -15.761 -21.103  0.00  0.00    +0.063 C 
BRANCH  18  19
ATOM     19  S   UNL     1      34.869 -17.530 -21.279  0.00  0.00    -0.167 S 
ATOM     20  H   UNL     1      33.767 -18.193 -21.722  0.00  0.00    +0.102 HD
ENDBRANCH  18  19
ENDBRANCH  17  18
ENDBRANCH  11  17
TORSDOF 3
ENDMDL
MODEL 5
REMARK VINA RESULT:      -7.8     10.394     12.796
REMARK  Name = 447329
REMARK  3 active torsions:
REMARK  status: ('A' for Active; 'I' for Inactive)
REMARK    1  A    between atoms: C_11  and  C_17
REMARK    2  A    between atoms: C_17  and  C_18
REMARK    3  A    between atoms: C_18  and  S_19
REMARK                            x       y       z     vdW  Elec       q    Type
REMARK                         _______ _______ _______ _____ _____    ______ ____
ROOT
ATOM      1  O   UNL     1      31.389 -11.181 -22.565  0.00  0.00    -0.275 OA
ATOM      2  N   UNL     1      32.867 -12.956 -22.282  0.00  0.00    -0.274 N 
ATOM      3  N   UNL     1      34.346 -16.326 -21.648  0.00  0.00    -0.355 N 
ATOM      4  C   UNL     1      33.733 -15.329 -23.540  0.00  0.00    -0.006 A 
ATOM      5  C   UNL     1      33.852 -15.168 -22.176  0.00  0.00    +0.050 A 
ATOM      6  C   UNL     1      33.211 -14.237 -24.403  0.00  0.00    +0.049 C 
ATOM      7  C   UNL     1      33.520 -13.950 -21.394  0.00  0.00    +0.137 C 
ATOM      8  C   UNL     1      33.351 -12.887 -23.678  0.00  0.00    +0.098 C 
ATOM      9  C   UNL     1      34.166 -16.646 -23.858  0.00  0.00    +0.013 A 
ATOM     10  C   UNL     1      34.546 -17.248 -22.654  0.00  0.00    +0.056 A 
ATOM     11  C   UNL     1      31.938 -12.011 -21.838  0.00  0.00    +0.227 C 
ATOM     12  C   UNL     1      34.274 -17.388 -25.051  0.00  0.00    +0.001 C 
ATOM     13  C   UNL     1      35.031 -18.560 -22.588  0.00  0.00    +0.017 C 
ATOM     14  C   UNL     1      34.757 -18.701 -24.999  0.00  0.00    +0.000 C 
ATOM     15  C   UNL     1      35.129 -19.275 -23.784  0.00  0.00    +0.001 C 
ATOM     16  H   UNL     1      34.531 -16.480 -20.694  0.00  0.00    +0.166 HD
ENDROOT
BRANCH  11  17
ATOM     17  C   UNL     1      31.603 -12.041 -20.366  0.00  0.00    +0.097 C 
BRANCH  17  18
ATOM     18  C   UNL     1      30.887 -10.771 -19.946  0.00  0.00    +0.063 C 
BRANCH  18  19
ATOM     19  S   UNL     1      32.036  -9.382 -19.700  0.00  0.00    -0.167 S 
ATOM     20  H   UNL     1      32.804  -9.618 -18.602  0.00  0.00    +0.102 HD
ENDBRANCH  18  19
ENDBRANCH  17  18
ENDBRANCH  11  17
TORSDOF 3
ENDMDL
MODEL 6
REMARK VINA RESULT:      -7.8      3.866      6.684
REMARK  Name = 447329
REMARK  3 active torsions:
REMARK  status: ('A' for Active; 'I' for Inactive)
REMARK    1  A    between atoms: C_11  and  C_17
REMARK    2  A    between atoms: C_17  and  C_18
REMARK    3  A    between atoms: C_18  and  S_19
REMARK                            x       y       z     vdW  Elec       q    Type
REMARK                         _______ _______ _______ _____ _____    ______ ____
ROOT
ATOM      1  O   UNL     1      32.714 -21.172 -20.259  0.00  0.00    -0.275 OA
ATOM      2  N   UNL     1      34.300 -22.067 -18.810  0.00  0.00    -0.274 N 
ATOM      3  N   UNL     1      36.732 -22.570 -16.021  0.00  0.00    -0.355 N 
ATOM      4  C   UNL     1      34.574 -23.083 -16.191  0.00  0.00    -0.006 A 
ATOM      5  C   UNL     1      35.657 -22.557 -16.862  0.00  0.00    +0.050 A 
ATOM      6  C   UNL     1      33.243 -23.198 -16.845  0.00  0.00    +0.049 C 
ATOM      7  C   UNL     1      35.680 -22.069 -18.265  0.00  0.00    +0.137 C 
ATOM      8  C   UNL     1      33.408 -23.164 -18.375  0.00  0.00    +0.098 C 
ATOM      9  C   UNL     1      35.003 -23.424 -14.880  0.00  0.00    +0.013 A 
ATOM     10  C   UNL     1      36.360 -23.094 -14.800  0.00  0.00    +0.056 A 
ATOM     11  C   UNL     1      33.858 -21.183 -19.798  0.00  0.00    +0.227 C 
ATOM     12  C   UNL     1      34.374 -23.982 -13.749  0.00  0.00    +0.001 C 
ATOM     13  C   UNL     1      37.118 -23.297 -13.641  0.00  0.00    +0.017 C 
ATOM     14  C   UNL     1      35.121 -24.191 -12.584  0.00  0.00    +0.000 C 
ATOM     15  C   UNL     1      36.472 -23.852 -12.533  0.00  0.00    +0.001 C 
ATOM     16  H   UNL     1      37.635 -22.253 -16.250  0.00  0.00    +0.166 HD
ENDROOT
BRANCH  11  17
ATOM     17  C   UNL     1      34.870 -20.186 -20.307  0.00  0.00    +0.097 C 
BRANCH  17  18
ATOM     18  C   UNL     1      34.255 -19.276 -21.354  0.00  0.00    +0.063 C 
BRANCH  18  19
ATOM     19  S   UNL     1      34.989 -17.611 -21.337  0.00  0.00    -0.167 S 
ATOM     20  H   UNL     1      34.555 -16.913 -22.421  0.00  0.00    +0.102 HD
ENDBRANCH  18  19
ENDBRANCH  17  18
ENDBRANCH  11  17
TORSDOF 3
ENDMDL
MODEL 7
REMARK VINA RESULT:      -7.7     10.686     13.609
REMARK  Name = 447329
REMARK  3 active torsions:
REMARK  status: ('A' for Active; 'I' for Inactive)
REMARK    1  A    between atoms: C_11  and  C_17
REMARK    2  A    between atoms: C_17  and  C_18
REMARK    3  A    between atoms: C_18  and  S_19
REMARK                            x       y       z     vdW  Elec       q    Type
REMARK                         _______ _______ _______ _____ _____    ______ ____
ROOT
ATOM      1  O   UNL     1      31.951 -10.220 -21.366  0.00  0.00    -0.275 OA
ATOM      2  N   UNL     1      32.390 -12.247 -22.421  0.00  0.00    -0.274 N 
ATOM      3  N   UNL     1      34.079 -15.140 -24.071  0.00  0.00    -0.355 N 
ATOM      4  C   UNL     1      33.539 -14.780 -21.943  0.00  0.00    -0.006 A 
ATOM      5  C   UNL     1      33.462 -14.269 -23.221  0.00  0.00    +0.050 A 
ATOM      6  C   UNL     1      32.959 -14.052 -20.784  0.00  0.00    +0.049 C 
ATOM      7  C   UNL     1      32.813 -12.997 -23.630  0.00  0.00    +0.137 C 
ATOM      8  C   UNL     1      31.903 -13.046 -21.275  0.00  0.00    +0.098 C 
ATOM      9  C   UNL     1      34.240 -16.015 -22.015  0.00  0.00    +0.013 A 
ATOM     10  C   UNL     1      34.566 -16.218 -23.360  0.00  0.00    +0.056 A 
ATOM     11  C   UNL     1      32.301 -10.853 -22.365  0.00  0.00    +0.227 C 
ATOM     12  C   UNL     1      34.631 -16.985 -21.070  0.00  0.00    +0.001 C 
ATOM     13  C   UNL     1      35.265 -17.346 -23.805  0.00  0.00    +0.017 C 
ATOM     14  C   UNL     1      35.331 -18.118 -21.501  0.00  0.00    +0.000 C 
ATOM     15  C   UNL     1      35.642 -18.293 -22.848  0.00  0.00    +0.001 C 
ATOM     16  H   UNL     1      34.164 -15.019 -25.044  0.00  0.00    +0.166 HD
ENDROOT
BRANCH  11  17
ATOM     17  C   UNL     1      32.671 -10.107 -23.623  0.00  0.00    +0.097 C 
BRANCH  17  18
ATOM     18  C   UNL     1      32.795  -8.619 -23.354  0.00  0.00    +0.063 C 
BRANCH  18  19
ATOM     19  S   UNL     1      31.287  -7.707 -23.811  0.00  0.00    -0.167 S 
ATOM     20  H   UNL     1      30.778  -8.221 -24.963  0.00  0.00    +0.102 HD
ENDBRANCH  18  19
ENDBRANCH  17  18
ENDBRANCH  11  17
TORSDOF 3
ENDMDL
MODEL 8
REMARK VINA RESULT:      -7.7     11.836     14.655
REMARK  Name = 447329
REMARK  3 active torsions:
REMARK  status: ('A' for Active; 'I' for Inactive)
REMARK    1  A    between atoms: C_11  and  C_17
REMARK    2  A    between atoms: C_17  and  C_18
REMARK    3  A    between atoms: C_18  and  S_19
REMARK                            x       y       z     vdW  Elec       q    Type
REMARK                         _______ _______ _______ _____ _____    ______ ____
ROOT
ATOM      1  O   UNL     1      31.669  -8.707 -21.520  0.00  0.00    -0.275 OA
ATOM      2  N   UNL     1      32.316 -10.685 -22.560  0.00  0.00    -0.274 N 
ATOM      3  N   UNL     1      34.254 -13.655 -23.731  0.00  0.00    -0.355 N 
ATOM      4  C   UNL     1      32.887 -13.391 -21.996  0.00  0.00    -0.006 A 
ATOM      5  C   UNL     1      33.421 -12.773 -23.106  0.00  0.00    +0.050 A 
ATOM      6  C   UNL     1      31.939 -12.680 -21.098  0.00  0.00    +0.049 C 
ATOM      7  C   UNL     1      33.142 -11.390 -23.572  0.00  0.00    +0.137 C 
ATOM      8  C   UNL     1      31.304 -11.493 -21.843  0.00  0.00    +0.098 C 
ATOM      9  C   UNL     1      33.423 -14.706 -21.935  0.00  0.00    +0.013 A 
ATOM     10  C   UNL     1      34.276 -14.847 -23.035  0.00  0.00    +0.056 A 
ATOM     11  C   UNL     1      32.350  -9.303 -22.357  0.00  0.00    +0.227 C 
ATOM     12  C   UNL     1      33.269 -15.796 -21.054  0.00  0.00    +0.001 C 
ATOM     13  C   UNL     1      34.982 -16.027 -23.296  0.00  0.00    +0.017 C 
ATOM     14  C   UNL     1      33.970 -16.982 -21.304  0.00  0.00    +0.000 C 
ATOM     15  C   UNL     1      34.813 -17.092 -22.408  0.00  0.00    +0.001 C 
ATOM     16  H   UNL     1      34.762 -13.470 -24.552  0.00  0.00    +0.166 HD
ENDROOT
BRANCH  11  17
ATOM     17  C   UNL     1      33.299  -8.521 -23.232  0.00  0.00    +0.097 C 
BRANCH  17  18
ATOM     18  C   UNL     1      33.164  -7.030 -22.982  0.00  0.00    +0.063 C 
BRANCH  18  19
ATOM     19  S   UNL     1      32.101  -6.218 -24.215  0.00  0.00    -0.167 S 
ATOM     20  H   UNL     1      31.053  -7.032 -24.517  0.00  0.00    +0.102 HD
ENDBRANCH  18  19
ENDBRANCH  17  18
ENDBRANCH  11  17
TORSDOF 3
ENDMDL
MODEL 9
REMARK VINA RESULT:      -7.7      1.886      2.751
REMARK  Name = 447329
REMARK  3 active torsions:
REMARK  status: ('A' for Active; 'I' for Inactive)
REMARK    1  A    between atoms: C_11  and  C_17
REMARK    2  A    between atoms: C_17  and  C_18
REMARK    3  A    between atoms: C_18  and  S_19
REMARK                            x       y       z     vdW  Elec       q    Type
REMARK                         _______ _______ _______ _____ _____    ______ ____
ROOT
ATOM      1  O   UNL     1      38.096 -23.119 -12.855  0.00  0.00    -0.275 OA
ATOM      2  N   UNL     1      36.736 -23.345 -14.730  0.00  0.00    -0.274 N 
ATOM      3  N   UNL     1      34.121 -22.836 -17.346  0.00  0.00    -0.355 N 
ATOM      4  C   UNL     1      36.244 -22.178 -17.252  0.00  0.00    -0.006 A 
ATOM      5  C   UNL     1      35.263 -22.897 -16.602  0.00  0.00    +0.050 A 
ATOM      6  C   UNL     1      37.612 -22.050 -16.684  0.00  0.00    +0.049 C 
ATOM      7  C   UNL     1      35.406 -23.633 -15.320  0.00  0.00    +0.137 C 
ATOM      8  C   UNL     1      37.865 -23.182 -15.673  0.00  0.00    +0.098 C 
ATOM      9  C   UNL     1      35.672 -21.648 -18.441  0.00  0.00    +0.013 A 
ATOM     10  C   UNL     1      34.341 -22.076 -18.476  0.00  0.00    +0.056 A 
ATOM     11  C   UNL     1      36.995 -23.357 -13.356  0.00  0.00    +0.227 C 
ATOM     12  C   UNL     1      36.153 -20.844 -19.494  0.00  0.00    +0.001 C 
ATOM     13  C   UNL     1      33.468 -21.740 -19.518  0.00  0.00    +0.017 C 
ATOM     14  C   UNL     1      35.291 -20.500 -20.541  0.00  0.00    +0.000 C 
ATOM     15  C   UNL     1      33.969 -20.942 -20.550  0.00  0.00    +0.001 C 
ATOM     16  H   UNL     1      33.268 -23.268 -17.112  0.00  0.00    +0.166 HD
ENDROOT
BRANCH  11  17
ATOM     17  C   UNL     1      35.827 -23.681 -12.458  0.00  0.00    +0.097 C 
BRANCH  17  18
ATOM     18  C   UNL     1      36.065 -24.977 -11.705  0.00  0.00    +0.063 C 
BRANCH  18  19
ATOM     19  S   UNL     1      37.160 -26.111 -12.612  0.00  0.00    -0.167 S 
ATOM     20  H   UNL     1      37.040 -25.885 -13.948  0.00  0.00    +0.102 HD
ENDBRANCH  18  19
ENDBRANCH  17  18
ENDBRANCH  11  17
TORSDOF 3
ENDMDL
