MODEL 1
REMARK VINA RESULT:      -7.5      0.000      0.000
REMARK  Name = 445750
REMARK  6 active torsions:
REMARK  status: ('A' for Active; 'I' for Inactive)
REMARK    1  A    between atoms: C_2  and  N_8
REMARK    2  A    between atoms: C_3  and  O_12
REMARK    3  A    between atoms: C_4  and  O_14
REMARK    4  A    between atoms: C_5  and  C_18
REMARK    5  A    between atoms: C_6  and  O_16
REMARK    6  A    between atoms: C_18  and  O_19
REMARK                            x       y       z     vdW  Elec       q    Type
REMARK                         _______ _______ _______ _____ _____    ______ ____
ROOT
ATOM      1  O   UNL     1      38.563 -23.715 -15.151  0.00  0.00    -0.327 OA
ATOM      2  C   UNL     1      36.204 -24.271 -15.357  0.00  0.00    +0.158 C 
ATOM      3  C   UNL     1      36.503 -25.691 -14.863  0.00  0.00    +0.162 C 
ATOM      4  C   UNL     1      37.973 -26.061 -15.077  0.00  0.00    +0.169 C 
ATOM      5  C   UNL     1      38.891 -24.961 -14.536  0.00  0.00    +0.176 C 
ATOM      6  C   UNL     1      37.244 -23.274 -14.835  0.00  0.00    +0.256 C 
ENDROOT
BRANCH   2   8
ATOM      7  O   UNL     1      33.962 -23.610 -17.080  0.00  0.00    -0.275 OA
ATOM      8  N   UNL     1      34.872 -23.872 -14.954  0.00  0.00    -0.299 N 
ATOM      9  C   UNL     1      33.866 -23.576 -15.857  0.00  0.00    +0.223 C 
ATOM     10  C   UNL     1      32.575 -23.214 -15.171  0.00  0.00    +0.095 C 
ATOM     11  H   UNL     1      34.672 -23.809 -13.991  0.00  0.00    +0.150 HD
ENDBRANCH   2   8
BRANCH   3  12
ATOM     12  O   UNL     1      35.686 -26.608 -15.593  0.00  0.00    -0.380 OA
ATOM     13  H   UNL     1      35.305 -27.259 -14.983  0.00  0.00    +0.211 HD
ENDBRANCH   3  12
BRANCH   4  14
ATOM     14  O   UNL     1      38.219 -27.293 -14.402  0.00  0.00    -0.379 OA
ATOM     15  H   UNL     1      39.109 -27.610 -14.623  0.00  0.00    +0.211 HD
ENDBRANCH   4  14
BRANCH   6  16
ATOM     16  O   UNL     1      37.004 -22.012 -15.457  0.00  0.00    -0.327 OA
ATOM     17  C   UNL     1      37.228 -22.077 -16.857  0.00  0.00    +0.177 C 
ENDBRANCH   6  16
BRANCH   5  18
ATOM     18  C   UNL     1      40.361 -25.238 -14.833  0.00  0.00    +0.169 C 
BRANCH  18  19
ATOM     19  O   UNL     1      40.447 -25.973 -16.040  0.00  0.00    -0.379 OA
ATOM     20  H   UNL     1      41.379 -26.104 -16.272  0.00  0.00    +0.211 HD
ENDBRANCH  18  19
ENDBRANCH   5  18
TORSDOF 6
ENDMDL
MODEL 2
REMARK VINA RESULT:      -7.1      4.630      6.408
REMARK  Name = 445750
REMARK  6 active torsions:
REMARK  status: ('A' for Active; 'I' for Inactive)
REMARK    1  A    between atoms: C_2  and  N_8
REMARK    2  A    between atoms: C_3  and  O_12
REMARK    3  A    between atoms: C_4  and  O_14
REMARK    4  A    between atoms: C_5  and  C_18
REMARK    5  A    between atoms: C_6  and  O_16
REMARK    6  A    between atoms: C_18  and  O_19
REMARK                            x       y       z     vdW  Elec       q    Type
REMARK                         _______ _______ _______ _____ _____    ______ ____
ROOT
ATOM      1  O   UNL     1      32.593 -23.616 -15.789  0.00  0.00    -0.327 OA
ATOM      2  C   UNL     1      30.188 -23.547 -16.143  0.00  0.00    +0.158 C 
ATOM      3  C   UNL     1      29.971 -24.099 -14.730  0.00  0.00    +0.162 C 
ATOM      4  C   UNL     1      31.211 -24.835 -14.218  0.00  0.00    +0.169 C 
ATOM      5  C   UNL     1      32.466 -23.978 -14.413  0.00  0.00    +0.176 C 
ATOM      6  C   UNL     1      31.519 -22.795 -16.244  0.00  0.00    +0.256 C 
ENDROOT
BRANCH   2   8
ATOM      7  O   UNL     1      27.746 -24.292 -17.527  0.00  0.00    -0.275 OA
ATOM      8  N   UNL     1      29.088 -22.681 -16.516  0.00  0.00    -0.299 N 
ATOM      9  C   UNL     1      27.960 -23.135 -17.178  0.00  0.00    +0.223 C 
ATOM     10  C   UNL     1      26.963 -22.034 -17.421  0.00  0.00    +0.095 C 
ATOM     11  H   UNL     1      29.145 -21.725 -16.287  0.00  0.00    +0.150 HD
ENDBRANCH   2   8
BRANCH   3  12
ATOM     12  O   UNL     1      28.873 -25.013 -14.763  0.00  0.00    -0.380 OA
ATOM     13  H   UNL     1      28.654 -25.288 -13.859  0.00  0.00    +0.211 HD
ENDBRANCH   3  12
BRANCH   4  14
ATOM     14  O   UNL     1      31.014 -25.123 -12.836  0.00  0.00    -0.379 OA
ATOM     15  H   UNL     1      30.275 -24.594 -12.499  0.00  0.00    +0.211 HD
ENDBRANCH   4  14
BRANCH   6  16
ATOM     16  O   UNL     1      31.734 -22.450 -17.613  0.00  0.00    -0.327 OA
ATOM     17  C   UNL     1      33.070 -22.720 -18.009  0.00  0.00    +0.177 C 
ENDBRANCH   6  16
BRANCH   5  18
ATOM     18  C   UNL     1      33.739 -24.721 -14.022  0.00  0.00    +0.169 C 
BRANCH  18  19
ATOM     19  O   UNL     1      33.878 -24.669 -12.614  0.00  0.00    -0.379 OA
ATOM     20  H   UNL     1      34.526 -25.332 -12.329  0.00  0.00    +0.211 HD
ENDBRANCH  18  19
ENDBRANCH   5  18
TORSDOF 6
ENDMDL
MODEL 3
REMARK VINA RESULT:      -6.8      2.437      2.732
REMARK  Name = 445750
REMARK  6 active torsions:
REMARK  status: ('A' for Active; 'I' for Inactive)
REMARK    1  A    between atoms: C_2  and  N_8
REMARK    2  A    between atoms: C_3  and  O_12
REMARK    3  A    between atoms: C_4  and  O_14
REMARK    4  A    between atoms: C_5  and  C_18
REMARK    5  A    between atoms: C_6  and  O_16
REMARK    6  A    between atoms: C_18  and  O_19
REMARK                            x       y       z     vdW  Elec       q    Type
REMARK                         _______ _______ _______ _____ _____    ______ ____
ROOT
ATOM      1  O   UNL     1      36.918 -24.751 -14.963  0.00  0.00    -0.327 OA
ATOM      2  C   UNL     1      34.836 -24.482 -13.736  0.00  0.00    +0.158 C 
ATOM      3  C   UNL     1      35.626 -24.405 -12.426  0.00  0.00    +0.162 C 
ATOM      4  C   UNL     1      37.006 -25.054 -12.563  0.00  0.00    +0.169 C 
ATOM      5  C   UNL     1      37.727 -24.528 -13.807  0.00  0.00    +0.176 C 
ATOM      6  C   UNL     1      35.690 -24.027 -14.924  0.00  0.00    +0.256 C 
ENDROOT
BRANCH   2   8
ATOM      7  O   UNL     1      32.089 -25.392 -13.972  0.00  0.00    -0.275 OA
ATOM      8  N   UNL     1      33.632 -23.682 -13.642  0.00  0.00    -0.299 N 
ATOM      9  C   UNL     1      32.360 -24.212 -13.769  0.00  0.00    +0.223 C 
ATOM     10  C   UNL     1      31.290 -23.167 -13.604  0.00  0.00    +0.095 C 
ATOM     11  H   UNL     1      33.723 -22.715 -13.479  0.00  0.00    +0.150 HD
ENDBRANCH   2   8
BRANCH   3  12
ATOM     12  O   UNL     1      34.892 -25.093 -11.411  0.00  0.00    -0.380 OA
ATOM     13  H   UNL     1      34.284 -24.475 -10.976  0.00  0.00    +0.211 HD
ENDBRANCH   3  12
BRANCH   4  14
ATOM     14  O   UNL     1      37.754 -24.752 -11.388  0.00  0.00    -0.379 OA
ATOM     15  H   UNL     1      38.702 -24.802 -11.587  0.00  0.00    +0.211 HD
ENDBRANCH   4  14
BRANCH   6  16
ATOM     16  O   UNL     1      34.956 -24.275 -16.123  0.00  0.00    -0.327 OA
ATOM     17  C   UNL     1      34.607 -23.062 -16.774  0.00  0.00    +0.177 C 
ENDBRANCH   6  16
BRANCH   5  18
ATOM     18  C   UNL     1      39.058 -25.235 -14.045  0.00  0.00    +0.169 C 
BRANCH  18  19
ATOM     19  O   UNL     1      39.035 -25.819 -15.334  0.00  0.00    -0.379 OA
ATOM     20  H   UNL     1      39.828 -25.553 -15.824  0.00  0.00    +0.211 HD
ENDBRANCH  18  19
ENDBRANCH   5  18
TORSDOF 6
ENDMDL
MODEL 4
REMARK VINA RESULT:      -6.6      8.682     11.335
REMARK  Name = 445750
REMARK  6 active torsions:
REMARK  status: ('A' for Active; 'I' for Inactive)
REMARK    1  A    between atoms: C_2  and  N_8
REMARK    2  A    between atoms: C_3  and  O_12
REMARK    3  A    between atoms: C_4  and  O_14
REMARK    4  A    between atoms: C_5  and  C_18
REMARK    5  A    between atoms: C_6  and  O_16
REMARK    6  A    between atoms: C_18  and  O_19
REMARK                            x       y       z     vdW  Elec       q    Type
REMARK                         _______ _______ _______ _____ _____    ______ ____
ROOT
ATOM      1  O   UNL     1      34.095 -15.727 -22.890  0.00  0.00    -0.327 OA
ATOM      2  C   UNL     1      34.959 -17.891 -22.192  0.00  0.00    +0.158 C 
ATOM      3  C   UNL     1      35.160 -18.277 -23.661  0.00  0.00    +0.162 C 
ATOM      4  C   UNL     1      34.269 -17.445 -24.587  0.00  0.00    +0.169 C 
ATOM      5  C   UNL     1      34.402 -15.953 -24.267  0.00  0.00    +0.176 C 
ATOM      6  C   UNL     1      35.013 -16.370 -22.008  0.00  0.00    +0.256 C 
ENDROOT
BRANCH   2   8
ATOM      7  O   UNL     1      34.710 -20.407 -20.766  0.00  0.00    -0.275 OA
ATOM      8  N   UNL     1      35.958 -18.536 -21.365  0.00  0.00    -0.299 N 
ATOM      9  C   UNL     1      35.742 -19.743 -20.723  0.00  0.00    +0.223 C 
ATOM     10  C   UNL     1      36.950 -20.200 -19.951  0.00  0.00    +0.095 C 
ATOM     11  H   UNL     1      36.832 -18.096 -21.255  0.00  0.00    +0.150 HD
ENDBRANCH   2   8
BRANCH   3  12
ATOM     12  O   UNL     1      34.826 -19.657 -23.818  0.00  0.00    -0.380 OA
ATOM     13  H   UNL     1      34.126 -19.895 -23.190  0.00  0.00    +0.211 HD
ENDBRANCH   3  12
BRANCH   4  14
ATOM     14  O   UNL     1      34.667 -17.704 -25.931  0.00  0.00    -0.379 OA
ATOM     15  H   UNL     1      35.536 -18.134 -25.934  0.00  0.00    +0.211 HD
ENDBRANCH   4  14
BRANCH   6  16
ATOM     16  O   UNL     1      34.660 -16.071 -20.657  0.00  0.00    -0.327 OA
ATOM     17  C   UNL     1      33.682 -15.045 -20.595  0.00  0.00    +0.177 C 
ENDBRANCH   6  16
BRANCH   5  18
ATOM     18  C   UNL     1      33.443 -15.099 -25.089  0.00  0.00    +0.169 C 
BRANCH  18  19
ATOM     19  O   UNL     1      33.796 -15.211 -26.456  0.00  0.00    -0.379 OA
ATOM     20  H   UNL     1      34.732 -15.454 -26.528  0.00  0.00    +0.211 HD
ENDBRANCH  18  19
ENDBRANCH   5  18
TORSDOF 6
ENDMDL
MODEL 5
REMARK VINA RESULT:      -6.5      2.646      5.009
REMARK  Name = 445750
REMARK  6 active torsions:
REMARK  status: ('A' for Active; 'I' for Inactive)
REMARK    1  A    between atoms: C_2  and  N_8
REMARK    2  A    between atoms: C_3  and  O_12
REMARK    3  A    between atoms: C_4  and  O_14
REMARK    4  A    between atoms: C_5  and  C_18
REMARK    5  A    between atoms: C_6  and  O_16
REMARK    6  A    between atoms: C_18  and  O_19
REMARK                            x       y       z     vdW  Elec       q    Type
REMARK                         _______ _______ _______ _____ _____    ______ ____
ROOT
ATOM      1  O   UNL     1      35.369 -23.801 -14.720  0.00  0.00    -0.327 OA
ATOM      2  C   UNL     1      37.565 -24.076 -13.711  0.00  0.00    +0.158 C 
ATOM      3  C   UNL     1      36.914 -24.739 -12.493  0.00  0.00    +0.162 C 
ATOM      4  C   UNL     1      35.439 -24.353 -12.364  0.00  0.00    +0.169 C 
ATOM      5  C   UNL     1      34.711 -24.550 -13.697  0.00  0.00    +0.176 C 
ATOM      6  C   UNL     1      36.700 -24.252 -14.965  0.00  0.00    +0.256 C 
ENDROOT
BRANCH   2   8
ATOM      7  O   UNL     1      38.250 -26.777 -14.527  0.00  0.00    -0.275 OA
ATOM      8  N   UNL     1      38.889 -24.620 -13.930  0.00  0.00    -0.299 N 
ATOM      9  C   UNL     1      39.113 -25.929 -14.320  0.00  0.00    +0.223 C 
ATOM     10  C   UNL     1      40.578 -26.225 -14.500  0.00  0.00    +0.095 C 
ATOM     11  H   UNL     1      39.667 -24.031 -13.795  0.00  0.00    +0.150 HD
ENDBRANCH   2   8
BRANCH   3  12
ATOM     12  O   UNL     1      37.607 -24.312 -11.319  0.00  0.00    -0.380 OA
ATOM     13  H   UNL     1      38.433 -23.872 -11.573  0.00  0.00    +0.211 HD
ENDBRANCH   3  12
BRANCH   4  14
ATOM     14  O   UNL     1      34.856 -25.171 -11.353  0.00  0.00    -0.379 OA
ATOM     15  H   UNL     1      34.827 -24.679 -10.517  0.00  0.00    +0.211 HD
ENDBRANCH   4  14
BRANCH   6  16
ATOM     16  O   UNL     1      37.277 -23.479 -16.017  0.00  0.00    -0.327 OA
ATOM     17  C   UNL     1      36.724 -22.173 -16.060  0.00  0.00    +0.177 C 
ENDBRANCH   6  16
BRANCH   5  18
ATOM     18  C   UNL     1      33.266 -24.066 -13.643  0.00  0.00    +0.169 C 
BRANCH  18  19
ATOM     19  O   UNL     1      32.452 -25.127 -13.176  0.00  0.00    -0.379 OA
ATOM     20  H   UNL     1      32.769 -25.965 -13.547  0.00  0.00    +0.211 HD
ENDBRANCH  18  19
ENDBRANCH   5  18
TORSDOF 6
ENDMDL
MODEL 6
REMARK VINA RESULT:      -6.5      8.959     11.762
REMARK  Name = 445750
REMARK  6 active torsions:
REMARK  status: ('A' for Active; 'I' for Inactive)
REMARK    1  A    between atoms: C_2  and  N_8
REMARK    2  A    between atoms: C_3  and  O_12
REMARK    3  A    between atoms: C_4  and  O_14
REMARK    4  A    between atoms: C_5  and  C_18
REMARK    5  A    between atoms: C_6  and  O_16
REMARK    6  A    between atoms: C_18  and  O_19
REMARK                            x       y       z     vdW  Elec       q    Type
REMARK                         _______ _______ _______ _____ _____    ______ ____
ROOT
ATOM      1  O   UNL     1      34.407 -15.914 -23.976  0.00  0.00    -0.327 OA
ATOM      2  C   UNL     1      35.000 -17.092 -21.933  0.00  0.00    +0.158 C 
ATOM      3  C   UNL     1      34.229 -16.050 -21.117  0.00  0.00    +0.162 C 
ATOM      4  C   UNL     1      34.071 -14.737 -21.887  0.00  0.00    +0.169 C 
ATOM      5  C   UNL     1      33.541 -15.001 -23.300  0.00  0.00    +0.176 C 
ATOM      6  C   UNL     1      34.445 -17.199 -23.358  0.00  0.00    +0.256 C 
ENDROOT
BRANCH   2   8
ATOM      7  O   UNL     1      37.224 -18.868 -21.361  0.00  0.00    -0.275 OA
ATOM      8  N   UNL     1      34.950 -18.381 -21.273  0.00  0.00    -0.299 N 
ATOM      9  C   UNL     1      36.074 -19.157 -21.046  0.00  0.00    +0.223 C 
ATOM     10  C   UNL     1      35.744 -20.434 -20.321  0.00  0.00    +0.095 C 
ATOM     11  H   UNL     1      34.076 -18.720 -20.972  0.00  0.00    +0.150 HD
ENDBRANCH   2   8
BRANCH   3  12
ATOM     12  O   UNL     1      34.951 -15.793 -19.910  0.00  0.00    -0.380 OA
ATOM     13  H   UNL     1      34.548 -15.042 -19.446  0.00  0.00    +0.211 HD
ENDBRANCH   3  12
BRANCH   4  14
ATOM     14  O   UNL     1      33.167 -13.906 -21.163  0.00  0.00    -0.379 OA
ATOM     15  H   UNL     1      32.681 -14.444 -20.518  0.00  0.00    +0.211 HD
ENDBRANCH   4  14
BRANCH   6  16
ATOM     16  O   UNL     1      35.303 -18.060 -24.107  0.00  0.00    -0.327 OA
ATOM     17  C   UNL     1      34.559 -19.040 -24.815  0.00  0.00    +0.177 C 
ENDBRANCH   6  16
BRANCH   5  18
ATOM     18  C   UNL     1      33.479 -13.730 -24.140  0.00  0.00    +0.169 C 
BRANCH  18  19
ATOM     19  O   UNL     1      34.291 -12.745 -23.529  0.00  0.00    -0.379 OA
ATOM     20  H   UNL     1      35.214 -12.873 -23.799  0.00  0.00    +0.211 HD
ENDBRANCH  18  19
ENDBRANCH   5  18
TORSDOF 6
ENDMDL
MODEL 7
REMARK VINA RESULT:      -6.4      2.661      4.090
REMARK  Name = 445750
REMARK  6 active torsions:
REMARK  status: ('A' for Active; 'I' for Inactive)
REMARK    1  A    between atoms: C_2  and  N_8
REMARK    2  A    between atoms: C_3  and  O_12
REMARK    3  A    between atoms: C_4  and  O_14
REMARK    4  A    between atoms: C_5  and  C_18
REMARK    5  A    between atoms: C_6  and  O_16
REMARK    6  A    between atoms: C_18  and  O_19
REMARK                            x       y       z     vdW  Elec       q    Type
REMARK                         _______ _______ _______ _____ _____    ______ ____
ROOT
ATOM      1  O   UNL     1      35.171 -23.865 -15.960  0.00  0.00    -0.327 OA
ATOM      2  C   UNL     1      32.775 -23.772 -15.556  0.00  0.00    +0.158 C 
ATOM      3  C   UNL     1      33.043 -23.549 -14.064  0.00  0.00    +0.162 C 
ATOM      4  C   UNL     1      34.433 -24.047 -13.662  0.00  0.00    +0.169 C 
ATOM      5  C   UNL     1      35.498 -23.502 -14.618  0.00  0.00    +0.176 C 
ATOM      6  C   UNL     1      33.950 -23.280 -16.408  0.00  0.00    +0.256 C 
ENDROOT
BRANCH   2   8
ATOM      7  O   UNL     1      30.113 -24.921 -15.713  0.00  0.00    -0.275 OA
ATOM      8  N   UNL     1      31.550 -23.106 -15.949  0.00  0.00    -0.299 N 
ATOM      9  C   UNL     1      30.323 -23.744 -15.992  0.00  0.00    +0.223 C 
ATOM     10  C   UNL     1      29.214 -22.815 -16.409  0.00  0.00    +0.095 C 
ATOM     11  H   UNL     1      31.593 -22.153 -16.197  0.00  0.00    +0.150 HD
ENDBRANCH   2   8
BRANCH   3  12
ATOM     12  O   UNL     1      32.061 -24.266 -13.313  0.00  0.00    -0.380 OA
ATOM     13  H   UNL     1      31.191 -24.154 -13.728  0.00  0.00    +0.211 HD
ENDBRANCH   3  12
BRANCH   4  14
ATOM     14  O   UNL     1      34.690 -23.610 -12.329  0.00  0.00    -0.379 OA
ATOM     15  H   UNL     1      35.159 -24.308 -11.846  0.00  0.00    +0.211 HD
ENDBRANCH   4  14
BRANCH   6  16
ATOM     16  O   UNL     1      33.709 -23.662 -17.762  0.00  0.00    -0.327 OA
ATOM     17  C   UNL     1      33.932 -22.578 -18.651  0.00  0.00    +0.177 C 
ENDBRANCH   6  16
BRANCH   5  18
ATOM     18  C   UNL     1      36.883 -24.069 -14.322  0.00  0.00    +0.169 C 
BRANCH  18  19
ATOM     19  O   UNL     1      37.544 -23.199 -13.422  0.00  0.00    -0.379 OA
ATOM     20  H   UNL     1      37.422 -23.519 -12.515  0.00  0.00    +0.211 HD
ENDBRANCH  18  19
ENDBRANCH   5  18
TORSDOF 6
ENDMDL
MODEL 8
REMARK VINA RESULT:      -6.2     10.044     12.282
REMARK  Name = 445750
REMARK  6 active torsions:
REMARK  status: ('A' for Active; 'I' for Inactive)
REMARK    1  A    between atoms: C_2  and  N_8
REMARK    2  A    between atoms: C_3  and  O_12
REMARK    3  A    between atoms: C_4  and  O_14
REMARK    4  A    between atoms: C_5  and  C_18
REMARK    5  A    between atoms: C_6  and  O_16
REMARK    6  A    between atoms: C_18  and  O_19
REMARK                            x       y       z     vdW  Elec       q    Type
REMARK                         _______ _______ _______ _____ _____    ______ ____
ROOT
ATOM      1  O   UNL     1      34.653 -17.186 -23.175  0.00  0.00    -0.327 OA
ATOM      2  C   UNL     1      34.014 -14.842 -23.070  0.00  0.00    +0.158 C 
ATOM      3  C   UNL     1      34.435 -14.800 -21.597  0.00  0.00    +0.162 C 
ATOM      4  C   UNL     1      34.440 -16.199 -20.975  0.00  0.00    +0.169 C 
ATOM      5  C   UNL     1      35.212 -17.181 -21.860  0.00  0.00    +0.176 C 
ATOM      6  C   UNL     1      34.781 -15.927 -23.833  0.00  0.00    +0.256 C 
ENDROOT
BRANCH   2   8
ATOM      7  O   UNL     1      32.204 -12.572 -23.059  0.00  0.00    -0.275 OA
ATOM      8  N   UNL     1      34.222 -13.548 -23.686  0.00  0.00    -0.299 N 
ATOM      9  C   UNL     1      33.293 -12.524 -23.624  0.00  0.00    +0.223 C 
ATOM     10  C   UNL     1      33.770 -11.280 -24.326  0.00  0.00    +0.095 C 
ATOM     11  H   UNL     1      35.064 -13.388 -24.171  0.00  0.00    +0.150 HD
ENDBRANCH   2   8
BRANCH   3  12
ATOM     12  O   UNL     1      33.508 -13.980 -20.883  0.00  0.00    -0.380 OA
ATOM     13  H   UNL     1      33.854 -13.076 -20.825  0.00  0.00    +0.211 HD
ENDBRANCH   3  12
BRANCH   4  14
ATOM     14  O   UNL     1      35.045 -16.106 -19.687  0.00  0.00    -0.379 OA
ATOM     15  H   UNL     1      35.130 -16.994 -19.306  0.00  0.00    +0.211 HD
ENDBRANCH   4  14
BRANCH   6  16
ATOM     16  O   UNL     1      34.231 -16.022 -25.147  0.00  0.00    -0.327 OA
ATOM     17  C   UNL     1      34.061 -17.376 -25.539  0.00  0.00    +0.177 C 
ENDBRANCH   6  16
BRANCH   5  18
ATOM     18  C   UNL     1      35.142 -18.610 -21.334  0.00  0.00    +0.169 C 
BRANCH  18  19
ATOM     19  O   UNL     1      36.217 -18.814 -20.435  0.00  0.00    -0.379 OA
ATOM     20  H   UNL     1      36.531 -17.957 -20.107  0.00  0.00    +0.211 HD
ENDBRANCH  18  19
ENDBRANCH   5  18
TORSDOF 6
ENDMDL
MODEL 9
REMARK VINA RESULT:      -6.2      2.736      5.586
REMARK  Name = 445750
REMARK  6 active torsions:
REMARK  status: ('A' for Active; 'I' for Inactive)
REMARK    1  A    between atoms: C_2  and  N_8
REMARK    2  A    between atoms: C_3  and  O_12
REMARK    3  A    between atoms: C_4  and  O_14
REMARK    4  A    between atoms: C_5  and  C_18
REMARK    5  A    between atoms: C_6  and  O_16
REMARK    6  A    between atoms: C_18  and  O_19
REMARK                            x       y       z     vdW  Elec       q    Type
REMARK                         _______ _______ _______ _____ _____    ______ ____
ROOT
ATOM      1  O   UNL     1      34.300 -24.582 -12.527  0.00  0.00    -0.327 OA
ATOM      2  C   UNL     1      36.407 -25.194 -13.577  0.00  0.00    +0.158 C 
ATOM      3  C   UNL     1      35.888 -24.659 -14.915  0.00  0.00    +0.162 C 
ATOM      4  C   UNL     1      34.358 -24.615 -14.947  0.00  0.00    +0.169 C 
ATOM      5  C   UNL     1      33.812 -23.921 -13.696  0.00  0.00    +0.176 C 
ATOM      6  C   UNL     1      35.718 -24.497 -12.398  0.00  0.00    +0.256 C 
ENDROOT
BRANCH   2   8
ATOM      7  O   UNL     1      38.454 -26.992 -14.580  0.00  0.00    -0.275 OA
ATOM      8  N   UNL     1      37.844 -25.026 -13.495  0.00  0.00    -0.299 N 
ATOM      9  C   UNL     1      38.742 -25.946 -14.007  0.00  0.00    +0.223 C 
ATOM     10  C   UNL     1      40.171 -25.515 -13.809  0.00  0.00    +0.095 C 
ATOM     11  H   UNL     1      38.197 -24.219 -13.054  0.00  0.00    +0.150 HD
ENDBRANCH   2   8
BRANCH   3  12
ATOM     12  O   UNL     1      36.347 -25.521 -15.958  0.00  0.00    -0.380 OA
ATOM     13  H   UNL     1      36.297 -25.056 -16.808  0.00  0.00    +0.211 HD
ENDBRANCH   3  12
BRANCH   4  14
ATOM     14  O   UNL     1      33.962 -23.910 -16.121  0.00  0.00    -0.379 OA
ATOM     15  H   UNL     1      33.244 -24.393 -16.560  0.00  0.00    +0.211 HD
ENDBRANCH   4  14
BRANCH   6  16
ATOM     16  O   UNL     1      36.124 -25.149 -11.195  0.00  0.00    -0.327 OA
ATOM     17  C   UNL     1      35.684 -24.437 -10.049  0.00  0.00    +0.177 C 
ENDBRANCH   6  16
BRANCH   5  18
ATOM     18  C   UNL     1      32.289 -23.960 -13.633  0.00  0.00    +0.169 C 
BRANCH  18  19
ATOM     19  O   UNL     1      31.888 -25.236 -13.167  0.00  0.00    -0.379 OA
ATOM     20  H   UNL     1      31.744 -25.825 -13.923  0.00  0.00    +0.211 HD
ENDBRANCH  18  19
ENDBRANCH   5  18
TORSDOF 6
ENDMDL
