MODEL 1
REMARK VINA RESULT:      -7.1      0.000      0.000
REMARK  Name = 60860
REMARK  3 active torsions:
REMARK  status: ('A' for Active; 'I' for Inactive)
REMARK    1  A    between atoms: N_1  and  C_4
REMARK    2  A    between atoms: N_1  and  C_9
REMARK    3  A    between atoms: C_9  and  C_11
REMARK                            x       y       z     vdW  Elec       q    Type
REMARK                         _______ _______ _______ _____ _____    ______ ____
ROOT
ATOM      1  N   UNL     1      36.047 -22.154 -17.920  0.00  0.00    -0.235 NA
ENDROOT
BRANCH   1   4
ATOM      2  N   UNL     1      37.466 -20.750 -16.750  0.00  0.00    -0.370 N 
ATOM      3  N   UNL     1      37.459 -22.947 -16.147  0.00  0.00    -0.370 N 
ATOM      4  C   UNL     1      36.933 -21.995 -16.990  0.00  0.00    +0.189 C 
ATOM      5  H   UNL     1      37.174 -19.978 -17.286  0.00  0.00    +0.159 HD
ATOM      6  H   UNL     1      38.139 -20.631 -16.042  0.00  0.00    +0.159 HD
ATOM      7  H   UNL     1      37.161 -23.884 -16.215  0.00  0.00    +0.159 HD
ATOM      8  H   UNL     1      38.133 -22.694 -15.476  0.00  0.00    +0.159 HD
ENDBRANCH   1   4
BRANCH   1   9
ATOM      9  C   UNL     1      36.413 -21.688 -19.264  0.00  0.00    +0.155 C 
BRANCH   9  11
ATOM     10  I   UNL     1      35.073 -17.575 -22.685  0.00  0.00    -0.043 I 
ATOM     11  C   UNL     1      35.321 -20.900 -19.905  0.00  0.00    +0.003 C 
ATOM     12  C   UNL     1      35.632 -19.861 -20.781  0.00  0.00    +0.003 C 
ATOM     13  C   UNL     1      33.989 -21.202 -19.627  0.00  0.00    -0.002 C 
ATOM     14  C   UNL     1      34.611 -19.123 -21.381  0.00  0.00    +0.030 C 
ATOM     15  C   UNL     1      32.966 -20.465 -20.226  0.00  0.00    +0.000 C 
ATOM     16  C   UNL     1      33.278 -19.426 -21.103  0.00  0.00    +0.006 C 
ENDBRANCH   9  11
ENDBRANCH   1   9
TORSDOF 3
ENDMDL
MODEL 2
REMARK VINA RESULT:      -6.5      2.123      3.170
REMARK  Name = 60860
REMARK  3 active torsions:
REMARK  status: ('A' for Active; 'I' for Inactive)
REMARK    1  A    between atoms: N_1  and  C_4
REMARK    2  A    between atoms: N_1  and  C_9
REMARK    3  A    between atoms: C_9  and  C_11
REMARK                            x       y       z     vdW  Elec       q    Type
REMARK                         _______ _______ _______ _____ _____    ______ ____
ROOT
ATOM      1  N   UNL     1      33.307 -22.532 -19.189  0.00  0.00    -0.235 NA
ENDROOT
BRANCH   1   4
ATOM      2  N   UNL     1      34.007 -23.119 -17.063  0.00  0.00    -0.370 N 
ATOM      3  N   UNL     1      31.792 -22.655 -17.330  0.00  0.00    -0.370 N 
ATOM      4  C   UNL     1      33.020 -22.748 -17.945  0.00  0.00    +0.189 C 
ATOM      5  H   UNL     1      34.935 -23.222 -17.377  0.00  0.00    +0.159 HD
ATOM      6  H   UNL     1      33.786 -23.283 -16.118  0.00  0.00    +0.159 HD
ATOM      7  H   UNL     1      30.998 -22.396 -17.852  0.00  0.00    +0.159 HD
ATOM      8  H   UNL     1      31.707 -22.847 -16.368  0.00  0.00    +0.159 HD
ENDBRANCH   1   4
BRANCH   1   9
ATOM      9  C   UNL     1      32.980 -21.201 -19.718  0.00  0.00    +0.155 C 
BRANCH   9  11
ATOM     10  I   UNL     1      34.979 -16.951 -22.610  0.00  0.00    -0.043 I 
ATOM     11  C   UNL     1      34.190 -20.467 -20.188  0.00  0.00    +0.003 C 
ATOM     12  C   UNL     1      34.052 -19.331 -20.984  0.00  0.00    +0.003 C 
ATOM     13  C   UNL     1      35.460 -20.919 -19.832  0.00  0.00    -0.002 C 
ATOM     14  C   UNL     1      35.184 -18.644 -21.424  0.00  0.00    +0.030 C 
ATOM     15  C   UNL     1      36.593 -20.233 -20.272  0.00  0.00    +0.000 C 
ATOM     16  C   UNL     1      36.455 -19.095 -21.067  0.00  0.00    +0.006 C 
ENDBRANCH   9  11
ENDBRANCH   1   9
TORSDOF 3
ENDMDL
MODEL 3
REMARK VINA RESULT:      -6.5      2.688      4.010
REMARK  Name = 60860
REMARK  3 active torsions:
REMARK  status: ('A' for Active; 'I' for Inactive)
REMARK    1  A    between atoms: N_1  and  C_4
REMARK    2  A    between atoms: N_1  and  C_9
REMARK    3  A    between atoms: C_9  and  C_11
REMARK                            x       y       z     vdW  Elec       q    Type
REMARK                         _______ _______ _______ _____ _____    ______ ____
ROOT
ATOM      1  N   UNL     1      33.820 -20.110 -20.539  0.00  0.00    -0.235 NA
ENDROOT
BRANCH   1   4
ATOM      2  N   UNL     1      35.190 -21.548 -19.351  0.00  0.00    -0.370 N 
ATOM      3  N   UNL     1      32.953 -21.976 -19.301  0.00  0.00    -0.370 N 
ATOM      4  C   UNL     1      33.945 -21.151 -19.779  0.00  0.00    +0.189 C 
ATOM      5  H   UNL     1      35.989 -21.041 -19.623  0.00  0.00    +0.159 HD
ATOM      6  H   UNL     1      35.282 -22.340 -18.774  0.00  0.00    +0.159 HD
ATOM      7  H   UNL     1      32.011 -21.801 -19.535  0.00  0.00    +0.159 HD
ATOM      8  H   UNL     1      33.182 -22.742 -18.726  0.00  0.00    +0.159 HD
ENDBRANCH   1   4
BRANCH   1   9
ATOM      9  C   UNL     1      35.064 -19.469 -20.985  0.00  0.00    +0.155 C 
BRANCH   9  11
ATOM     10  I   UNL     1      34.032 -14.434 -22.987  0.00  0.00    -0.043 I 
ATOM     11  C   UNL     1      34.859 -18.622 -22.196  0.00  0.00    +0.003 C 
ATOM     12  C   UNL     1      34.604 -17.258 -22.058  0.00  0.00    +0.003 C 
ATOM     13  C   UNL     1      34.922 -19.195 -23.465  0.00  0.00    -0.002 C 
ATOM     14  C   UNL     1      34.413 -16.465 -23.190  0.00  0.00    +0.030 C 
ATOM     15  C   UNL     1      34.730 -18.403 -24.598  0.00  0.00    +0.000 C 
ATOM     16  C   UNL     1      34.476 -17.039 -24.460  0.00  0.00    +0.006 C 
ENDBRANCH   9  11
ENDBRANCH   1   9
TORSDOF 3
ENDMDL
MODEL 4
REMARK VINA RESULT:      -6.4      5.238      6.401
REMARK  Name = 60860
REMARK  3 active torsions:
REMARK  status: ('A' for Active; 'I' for Inactive)
REMARK    1  A    between atoms: N_1  and  C_4
REMARK    2  A    between atoms: N_1  and  C_9
REMARK    3  A    between atoms: C_9  and  C_11
REMARK                            x       y       z     vdW  Elec       q    Type
REMARK                         _______ _______ _______ _____ _____    ______ ____
ROOT
ATOM      1  N   UNL     1      32.996 -22.702 -18.694  0.00  0.00    -0.235 NA
ENDROOT
BRANCH   1   4
ATOM      2  N   UNL     1      32.787 -20.694 -19.823  0.00  0.00    -0.370 N 
ATOM      3  N   UNL     1      34.903 -21.452 -19.450  0.00  0.00    -0.370 N 
ATOM      4  C   UNL     1      33.558 -21.693 -19.279  0.00  0.00    +0.189 C 
ATOM      5  H   UNL     1      31.805 -20.744 -19.769  0.00  0.00    +0.159 HD
ATOM      6  H   UNL     1      33.216 -19.928 -20.268  0.00  0.00    +0.159 HD
ATOM      7  H   UNL     1      35.566 -22.094 -19.105  0.00  0.00    +0.159 HD
ATOM      8  H   UNL     1      35.202 -20.640 -19.917  0.00  0.00    +0.159 HD
ENDBRANCH   1   4
BRANCH   1   9
ATOM      9  C   UNL     1      33.553 -23.103 -17.395  0.00  0.00    +0.155 C 
BRANCH   9  11
ATOM     10  I   UNL     1      28.195 -22.762 -16.130  0.00  0.00    -0.043 I 
ATOM     11  C   UNL     1      32.517 -23.137 -16.323  0.00  0.00    +0.003 C 
ATOM     12  C   UNL     1      31.170 -22.974 -16.649  0.00  0.00    +0.003 C 
ATOM     13  C   UNL     1      32.894 -23.331 -14.996  0.00  0.00    -0.002 C 
ATOM     14  C   UNL     1      30.201 -23.005 -15.646  0.00  0.00    +0.030 C 
ATOM     15  C   UNL     1      31.925 -23.362 -13.992  0.00  0.00    +0.000 C 
ATOM     16  C   UNL     1      30.579 -23.200 -14.318  0.00  0.00    +0.006 C 
ENDBRANCH   9  11
ENDBRANCH   1   9
TORSDOF 3
ENDMDL
MODEL 5
REMARK VINA RESULT:      -6.4      4.433      5.894
REMARK  Name = 60860
REMARK  3 active torsions:
REMARK  status: ('A' for Active; 'I' for Inactive)
REMARK    1  A    between atoms: N_1  and  C_4
REMARK    2  A    between atoms: N_1  and  C_9
REMARK    3  A    between atoms: C_9  and  C_11
REMARK                            x       y       z     vdW  Elec       q    Type
REMARK                         _______ _______ _______ _____ _____    ______ ____
ROOT
ATOM      1  N   UNL     1      34.838 -19.064 -23.198  0.00  0.00    -0.235 NA
ENDROOT
BRANCH   1   4
ATOM      2  N   UNL     1      34.435 -17.831 -25.114  0.00  0.00    -0.370 N 
ATOM      3  N   UNL     1      35.455 -16.751 -23.386  0.00  0.00    -0.370 N 
ATOM      4  C   UNL     1      34.920 -17.938 -23.832  0.00  0.00    +0.189 C 
ATOM      5  H   UNL     1      34.025 -18.611 -25.552  0.00  0.00    +0.159 HD
ATOM      6  H   UNL     1      34.498 -16.974 -25.594  0.00  0.00    +0.159 HD
ATOM      7  H   UNL     1      35.838 -16.692 -22.480  0.00  0.00    +0.159 HD
ATOM      8  H   UNL     1      35.456 -15.960 -23.972  0.00  0.00    +0.159 HD
ENDBRANCH   1   4
BRANCH   1   9
ATOM      9  C   UNL     1      34.149 -19.041 -21.902  0.00  0.00    +0.155 C 
BRANCH   9  11
ATOM     10  I   UNL     1      33.477 -22.906 -18.024  0.00  0.00    -0.043 I 
ATOM     11  C   UNL     1      34.800 -19.933 -20.900  0.00  0.00    +0.003 C 
ATOM     12  C   UNL     1      34.023 -20.792 -20.122  0.00  0.00    +0.003 C 
ATOM     13  C   UNL     1      36.184 -19.908 -20.740  0.00  0.00    -0.002 C 
ATOM     14  C   UNL     1      34.632 -21.627 -19.184  0.00  0.00    +0.030 C 
ATOM     15  C   UNL     1      36.794 -20.743 -19.803  0.00  0.00    +0.000 C 
ATOM     16  C   UNL     1      36.018 -21.602 -19.025  0.00  0.00    +0.006 C 
ENDBRANCH   9  11
ENDBRANCH   1   9
TORSDOF 3
ENDMDL
MODEL 6
REMARK VINA RESULT:      -6.3      6.126      7.652
REMARK  Name = 60860
REMARK  3 active torsions:
REMARK  status: ('A' for Active; 'I' for Inactive)
REMARK    1  A    between atoms: N_1  and  C_4
REMARK    2  A    between atoms: N_1  and  C_9
REMARK    3  A    between atoms: C_9  and  C_11
REMARK                            x       y       z     vdW  Elec       q    Type
REMARK                         _______ _______ _______ _____ _____    ______ ____
ROOT
ATOM      1  N   UNL     1      32.816 -14.135 -23.228  0.00  0.00    -0.235 NA
ENDROOT
BRANCH   1   4
ATOM      2  N   UNL     1      31.630 -12.508 -22.088  0.00  0.00    -0.370 N 
ATOM      3  N   UNL     1      32.711 -14.071 -20.830  0.00  0.00    -0.370 N 
ATOM      4  C   UNL     1      32.427 -13.628 -22.102  0.00  0.00    +0.189 C 
ATOM      5  H   UNL     1      31.353 -12.089 -22.935  0.00  0.00    +0.159 HD
ATOM      6  H   UNL     1      31.336 -12.124 -21.230  0.00  0.00    +0.159 HD
ATOM      7  H   UNL     1      33.275 -14.868 -20.700  0.00  0.00    +0.159 HD
ATOM      8  H   UNL     1      32.350 -13.591 -20.049  0.00  0.00    +0.159 HD
ENDBRANCH   1   4
BRANCH   1   9
ATOM      9  C   UNL     1      34.234 -14.505 -23.329  0.00  0.00    +0.155 C 
BRANCH   9  11
ATOM     10  I   UNL     1      35.067 -19.511 -21.170  0.00  0.00    -0.043 I 
ATOM     11  C   UNL     1      34.420 -15.962 -23.585  0.00  0.00    +0.003 C 
ATOM     12  C   UNL     1      34.609 -16.840 -22.518  0.00  0.00    +0.003 C 
ATOM     13  C   UNL     1      34.406 -16.446 -24.893  0.00  0.00    -0.002 C 
ATOM     14  C   UNL     1      34.784 -18.203 -22.758  0.00  0.00    +0.030 C 
ATOM     15  C   UNL     1      34.581 -17.809 -25.134  0.00  0.00    +0.000 C 
ATOM     16  C   UNL     1      34.770 -18.687 -24.067  0.00  0.00    +0.006 C 
ENDBRANCH   9  11
ENDBRANCH   1   9
TORSDOF 3
ENDMDL
MODEL 7
REMARK VINA RESULT:      -6.2      3.284      4.269
REMARK  Name = 60860
REMARK  3 active torsions:
REMARK  status: ('A' for Active; 'I' for Inactive)
REMARK    1  A    between atoms: N_1  and  C_4
REMARK    2  A    between atoms: N_1  and  C_9
REMARK    3  A    between atoms: C_9  and  C_11
REMARK                            x       y       z     vdW  Elec       q    Type
REMARK                         _______ _______ _______ _____ _____    ______ ____
ROOT
ATOM      1  N   UNL     1      35.743 -24.662 -14.474  0.00  0.00    -0.235 NA
ENDROOT
BRANCH   1   4
ATOM      2  N   UNL     1      37.813 -25.330 -15.261  0.00  0.00    -0.370 N 
ATOM      3  N   UNL     1      36.183 -26.919 -15.166  0.00  0.00    -0.370 N 
ATOM      4  C   UNL     1      36.506 -25.601 -14.936  0.00  0.00    +0.189 C 
ATOM      5  H   UNL     1      38.172 -24.420 -15.143  0.00  0.00    +0.159 HD
ATOM      6  H   UNL     1      38.391 -26.045 -15.612  0.00  0.00    +0.159 HD
ATOM      7  H   UNL     1      35.273 -27.245 -14.974  0.00  0.00    +0.159 HD
ATOM      8  H   UNL     1      36.862 -27.537 -15.523  0.00  0.00    +0.159 HD
ENDBRANCH   1   4
BRANCH   1   9
ATOM      9  C   UNL     1      36.004 -23.302 -14.962  0.00  0.00    +0.155 C 
BRANCH   9  11
ATOM     10  I   UNL     1      36.150 -21.022 -19.983  0.00  0.00    -0.043 I 
ATOM     11  C   UNL     1      35.264 -23.003 -16.222  0.00  0.00    +0.003 C 
ATOM     12  C   UNL     1      35.899 -22.320 -17.259  0.00  0.00    +0.003 C 
ATOM     13  C   UNL     1      33.936 -23.406 -16.362  0.00  0.00    -0.002 C 
ATOM     14  C   UNL     1      35.206 -22.040 -18.438  0.00  0.00    +0.030 C 
ATOM     15  C   UNL     1      33.243 -23.126 -17.540  0.00  0.00    +0.000 C 
ATOM     16  C   UNL     1      33.878 -22.444 -18.578  0.00  0.00    +0.006 C 
ENDBRANCH   9  11
ENDBRANCH   1   9
TORSDOF 3
ENDMDL
MODEL 8
REMARK VINA RESULT:      -6.2      4.068      5.486
REMARK  Name = 60860
REMARK  3 active torsions:
REMARK  status: ('A' for Active; 'I' for Inactive)
REMARK    1  A    between atoms: N_1  and  C_4
REMARK    2  A    between atoms: N_1  and  C_9
REMARK    3  A    between atoms: C_9  and  C_11
REMARK                            x       y       z     vdW  Elec       q    Type
REMARK                         _______ _______ _______ _____ _____    ______ ____
ROOT
ATOM      1  N   UNL     1      34.858 -19.424 -22.569  0.00  0.00    -0.235 NA
ENDROOT
BRANCH   1   4
ATOM      2  N   UNL     1      33.452 -19.809 -20.773  0.00  0.00    -0.370 N 
ATOM      3  N   UNL     1      35.692 -19.842 -20.356  0.00  0.00    -0.370 N 
ATOM      4  C   UNL     1      34.711 -19.676 -21.308  0.00  0.00    +0.189 C 
ATOM      5  H   UNL     1      32.659 -19.712 -21.349  0.00  0.00    +0.159 HD
ATOM      6  H   UNL     1      33.342 -20.000 -19.813  0.00  0.00    +0.159 HD
ATOM      7  H   UNL     1      36.641 -19.772 -20.610  0.00  0.00    +0.159 HD
ATOM      8  H   UNL     1      35.445 -20.031 -19.422  0.00  0.00    +0.159 HD
ENDBRANCH   1   4
BRANCH   1   9
ATOM      9  C   UNL     1      35.697 -18.270 -22.916  0.00  0.00    +0.155 C 
BRANCH   9  11
ATOM     10  I   UNL     1      32.675 -13.738 -22.050  0.00  0.00    -0.043 I 
ATOM     11  C   UNL     1      34.907 -17.159 -23.521  0.00  0.00    +0.003 C 
ATOM     12  C   UNL     1      34.308 -16.202 -22.702  0.00  0.00    +0.003 C 
ATOM     13  C   UNL     1      34.766 -17.079 -24.906  0.00  0.00    -0.002 C 
ATOM     14  C   UNL     1      33.568 -15.163 -23.268  0.00  0.00    +0.030 C 
ATOM     15  C   UNL     1      34.027 -16.040 -25.473  0.00  0.00    +0.000 C 
ATOM     16  C   UNL     1      33.429 -15.082 -24.654  0.00  0.00    +0.006 C 
ENDBRANCH   9  11
ENDBRANCH   1   9
TORSDOF 3
ENDMDL
MODEL 9
REMARK VINA RESULT:      -6.1      5.115      6.165
REMARK  Name = 60860
REMARK  3 active torsions:
REMARK  status: ('A' for Active; 'I' for Inactive)
REMARK    1  A    between atoms: N_1  and  C_4
REMARK    2  A    between atoms: N_1  and  C_9
REMARK    3  A    between atoms: C_9  and  C_11
REMARK                            x       y       z     vdW  Elec       q    Type
REMARK                         _______ _______ _______ _____ _____    ______ ____
ROOT
ATOM      1  N   UNL     1      36.795 -24.619 -15.351  0.00  0.00    -0.235 NA
ENDROOT
BRANCH   1   4
ATOM      2  N   UNL     1      36.131 -26.836 -15.325  0.00  0.00    -0.370 N 
ATOM      3  N   UNL     1      36.483 -25.840 -13.306  0.00  0.00    -0.370 N 
ATOM      4  C   UNL     1      36.494 -25.681 -14.673  0.00  0.00    +0.189 C 
ATOM      5  H   UNL     1      36.098 -26.857 -16.309  0.00  0.00    +0.159 HD
ATOM      6  H   UNL     1      35.903 -27.642 -14.808  0.00  0.00    +0.159 HD
ATOM      7  H   UNL     1      36.724 -25.085 -12.720  0.00  0.00    +0.159 HD
ATOM      8  H   UNL     1      36.233 -26.707 -12.913  0.00  0.00    +0.159 HD
ENDBRANCH   1   4
BRANCH   1   9
ATOM      9  C   UNL     1      36.074 -23.389 -14.999  0.00  0.00    +0.155 C 
BRANCH   9  11
ATOM     10  I   UNL     1      30.694 -24.095 -14.008  0.00  0.00    -0.043 I 
ATOM     11  C   UNL     1      34.688 -23.370 -15.550  0.00  0.00    +0.003 C 
ATOM     12  C   UNL     1      33.605 -23.668 -14.723  0.00  0.00    +0.003 C 
ATOM     13  C   UNL     1      34.476 -23.056 -16.891  0.00  0.00    -0.002 C 
ATOM     14  C   UNL     1      32.308 -23.651 -15.238  0.00  0.00    +0.030 C 
ATOM     15  C   UNL     1      33.179 -23.038 -17.407  0.00  0.00    +0.000 C 
ATOM     16  C   UNL     1      32.096 -23.335 -16.580  0.00  0.00    +0.006 C 
ENDBRANCH   9  11
ENDBRANCH   1   9
TORSDOF 3
ENDMDL
