MODEL 1
REMARK VINA RESULT:      -8.1      0.000      0.000
REMARK  Name = 3784
REMARK  6 active torsions:
REMARK  status: ('A' for Active; 'I' for Inactive)
REMARK    1  A    between atoms: C_2  and  C_13
REMARK    2  A    between atoms: C_3  and  C_20
REMARK    3  A    between atoms: C_4  and  C_26
REMARK    4  A    between atoms: C_20  and  O_21
REMARK    5  A    between atoms: O_21  and  C_22
REMARK    6  A    between atoms: C_26  and  O_27
REMARK                            x       y       z     vdW  Elec       q    Type
REMARK                         _______ _______ _______ _____ _____    ______ ____
ROOT
ATOM      1  N   UNL     1      33.631 -23.664 -12.896  0.00  0.00    -0.334 N 
ATOM      2  C   UNL     1      34.124 -24.244 -15.625  0.00  0.00    +0.013 C 
ATOM      3  C   UNL     1      35.055 -24.683 -14.489  0.00  0.00    +0.071 C 
ATOM      4  C   UNL     1      32.826 -23.607 -15.121  0.00  0.00    +0.085 C 
ATOM      5  C   UNL     1      34.783 -24.369 -13.201  0.00  0.00    +0.098 C 
ATOM      6  C   UNL     1      32.647 -23.323 -13.812  0.00  0.00    +0.028 C 
ATOM      7  C   UNL     1      35.646 -24.717 -12.018  0.00  0.00    +0.026 C 
ATOM      8  C   UNL     1      31.435 -22.653 -13.222  0.00  0.00    +0.047 C 
ATOM      9  H   UNL     1      33.500 -23.383 -11.962  0.00  0.00    +0.147 HD
ENDROOT
BRANCH   2  13
ATOM     10  O   UNL     1      33.969 -23.386 -19.977  0.00  0.00    -0.242 OA
ATOM     11  N   UNL     1      33.781 -23.880 -18.698  0.00  0.00    -0.048 NA
ATOM     12  N   UNL     1      34.929 -22.391 -20.010  0.00  0.00    -0.048 NA
ATOM     13  C   UNL     1      34.844 -23.290 -16.536  0.00  0.00    +0.023 C 
ATOM     14  C   UNL     1      34.624 -23.196 -17.914  0.00  0.00    +0.143 A 
ATOM     15  C   UNL     1      35.809 -22.416 -16.023  0.00  0.00    +0.002 C 
ATOM     16  C   UNL     1      35.354 -22.248 -18.748  0.00  0.00    +0.143 A 
ATOM     17  C   UNL     1      36.521 -21.494 -16.835  0.00  0.00    +0.002 C 
ATOM     18  C   UNL     1      36.322 -21.374 -18.222  0.00  0.00    +0.024 C 
ENDBRANCH   2  13
BRANCH   3  20
ATOM     19  O   UNL     1      36.109 -26.619 -15.359  0.00  0.00    -0.245 OA
ATOM     20  C   UNL     1      36.211 -25.511 -14.866  0.00  0.00    +0.339 C 
BRANCH  20  21
ATOM     21  O   UNL     1      37.343 -24.827 -14.570  0.00  0.00    -0.449 OA
BRANCH  21  22
ATOM     22  C   UNL     1      38.509 -25.634 -14.380  0.00  0.00    +0.169 C 
ATOM     23  C   UNL     1      39.655 -25.061 -15.200  0.00  0.00    +0.047 C 
ATOM     24  C   UNL     1      38.843 -25.690 -12.898  0.00  0.00    +0.047 C 
ENDBRANCH  21  22
ENDBRANCH  20  21
ENDBRANCH   3  20
BRANCH   4  26
ATOM     25  O   UNL     1      31.708 -22.355 -16.795  0.00  0.00    -0.245 OA
ATOM     26  C   UNL     1      31.775 -23.369 -16.125  0.00  0.00    +0.342 C 
BRANCH  26  27
ATOM     27  O   UNL     1      30.953 -24.445 -16.148  0.00  0.00    -0.441 OA
ATOM     28  C   UNL     1      29.560 -24.147 -16.016  0.00  0.00    +0.256 C 
ENDBRANCH  26  27
ENDBRANCH   4  26
TORSDOF 6
ENDMDL
MODEL 2
REMARK VINA RESULT:      -6.6     11.695     14.817
REMARK  Name = 3784
REMARK  6 active torsions:
REMARK  status: ('A' for Active; 'I' for Inactive)
REMARK    1  A    between atoms: C_2  and  C_13
REMARK    2  A    between atoms: C_3  and  C_20
REMARK    3  A    between atoms: C_4  and  C_26
REMARK    4  A    between atoms: C_20  and  O_21
REMARK    5  A    between atoms: O_21  and  C_22
REMARK    6  A    between atoms: C_26  and  O_27
REMARK                            x       y       z     vdW  Elec       q    Type
REMARK                         _______ _______ _______ _____ _____    ______ ____
ROOT
ATOM      1  N   UNL     1      31.425 -13.200 -21.220  0.00  0.00    -0.334 N 
ATOM      2  C   UNL     1      33.560 -12.459 -22.929  0.00  0.00    +0.013 C 
ATOM      3  C   UNL     1      32.421 -11.509 -22.544  0.00  0.00    +0.071 C 
ATOM      4  C   UNL     1      33.512 -13.788 -22.168  0.00  0.00    +0.085 C 
ATOM      5  C   UNL     1      31.415 -11.914 -21.734  0.00  0.00    +0.098 C 
ATOM      6  C   UNL     1      32.459 -14.109 -21.386  0.00  0.00    +0.028 C 
ATOM      7  C   UNL     1      30.233 -11.076 -21.326  0.00  0.00    +0.026 C 
ATOM      8  C   UNL     1      32.290 -15.405 -20.639  0.00  0.00    +0.047 C 
ATOM      9  H   UNL     1      30.642 -13.490 -20.699  0.00  0.00    +0.147 HD
ENDROOT
BRANCH   2  13
ATOM     10  O   UNL     1      35.531 -10.589 -26.439  0.00  0.00    -0.242 OA
ATOM     11  N   UNL     1      35.087 -10.937 -25.176  0.00  0.00    -0.048 NA
ATOM     12  N   UNL     1      34.986 -11.400 -27.419  0.00  0.00    -0.048 NA
ATOM     13  C   UNL     1      33.535 -12.714 -24.409  0.00  0.00    +0.023 C 
ATOM     14  C   UNL     1      34.258 -11.974 -25.351  0.00  0.00    +0.143 A 
ATOM     15  C   UNL     1      32.752 -13.748 -24.935  0.00  0.00    +0.002 C 
ATOM     16  C   UNL     1      34.194 -12.269 -26.777  0.00  0.00    +0.143 A 
ATOM     17  C   UNL     1      32.689 -14.035 -26.324  0.00  0.00    +0.002 C 
ATOM     18  C   UNL     1      33.404 -13.311 -27.295  0.00  0.00    +0.024 C 
ENDBRANCH   2  13
BRANCH   3  20
ATOM     19  O   UNL     1      32.007  -9.756 -24.085  0.00  0.00    -0.245 OA
ATOM     20  C   UNL     1      32.516 -10.128 -23.044  0.00  0.00    +0.339 C 
BRANCH  20  21
ATOM     21  O   UNL     1      33.244  -9.402 -22.160  0.00  0.00    -0.449 OA
BRANCH  21  22
ATOM     22  C   UNL     1      33.118  -7.983 -22.292  0.00  0.00    +0.169 C 
ATOM     23  C   UNL     1      32.937  -7.365 -20.913  0.00  0.00    +0.047 C 
ATOM     24  C   UNL     1      34.346  -7.435 -23.003  0.00  0.00    +0.047 C 
ENDBRANCH  21  22
ENDBRANCH  20  21
ENDBRANCH   3  20
BRANCH   4  26
ATOM     25  O   UNL     1      35.466 -14.879 -21.387  0.00  0.00    -0.245 OA
ATOM     26  C   UNL     1      34.689 -14.664 -22.298  0.00  0.00    +0.342 C 
BRANCH  26  27
ATOM     27  O   UNL     1      34.723 -15.150 -23.562  0.00  0.00    -0.441 OA
ATOM     28  C   UNL     1      34.941 -16.560 -23.664  0.00  0.00    +0.256 C 
ENDBRANCH  26  27
ENDBRANCH   4  26
TORSDOF 6
ENDMDL
MODEL 3
REMARK VINA RESULT:      -6.6      1.534      1.954
REMARK  Name = 3784
REMARK  6 active torsions:
REMARK  status: ('A' for Active; 'I' for Inactive)
REMARK    1  A    between atoms: C_2  and  C_13
REMARK    2  A    between atoms: C_3  and  C_20
REMARK    3  A    between atoms: C_4  and  C_26
REMARK    4  A    between atoms: C_20  and  O_21
REMARK    5  A    between atoms: O_21  and  C_22
REMARK    6  A    between atoms: C_26  and  O_27
REMARK                            x       y       z     vdW  Elec       q    Type
REMARK                         _______ _______ _______ _____ _____    ______ ____
ROOT
ATOM      1  N   UNL     1      33.611 -23.455 -12.946  0.00  0.00    -0.334 N 
ATOM      2  C   UNL     1      33.777 -24.430 -15.601  0.00  0.00    +0.013 C 
ATOM      3  C   UNL     1      34.904 -24.588 -14.574  0.00  0.00    +0.071 C 
ATOM      4  C   UNL     1      32.498 -23.840 -14.999  0.00  0.00    +0.085 C 
ATOM      5  C   UNL     1      34.783 -24.092 -13.321  0.00  0.00    +0.098 C 
ATOM      6  C   UNL     1      32.475 -23.361 -13.735  0.00  0.00    +0.028 C 
ATOM      7  C   UNL     1      35.839 -24.159 -12.251  0.00  0.00    +0.026 C 
ATOM      8  C   UNL     1      31.290 -22.717 -13.068  0.00  0.00    +0.047 C 
ATOM      9  H   UNL     1      33.583 -23.037 -12.055  0.00  0.00    +0.147 HD
ENDROOT
BRANCH   2  13
ATOM     10  O   UNL     1      37.057 -21.490 -16.150  0.00  0.00    -0.242 OA
ATOM     11  N   UNL     1      36.160 -22.427 -15.668  0.00  0.00    -0.048 NA
ATOM     12  N   UNL     1      36.803 -21.164 -17.471  0.00  0.00    -0.048 NA
ATOM     13  C   UNL     1      34.245 -23.578 -16.747  0.00  0.00    +0.023 C 
ATOM     14  C   UNL     1      35.333 -22.700 -16.685  0.00  0.00    +0.143 A 
ATOM     15  C   UNL     1      33.585 -23.626 -17.979  0.00  0.00    +0.002 C 
ATOM     16  C   UNL     1      35.742 -21.898 -17.831  0.00  0.00    +0.143 A 
ATOM     17  C   UNL     1      33.981 -22.844 -19.096  0.00  0.00    +0.002 C 
ATOM     18  C   UNL     1      35.071 -21.954 -19.067  0.00  0.00    +0.024 C 
ENDBRANCH   2  13
BRANCH   3  20
ATOM     19  O   UNL     1      36.012 -26.390 -15.643  0.00  0.00    -0.245 OA
ATOM     20  C   UNL     1      36.082 -25.358 -15.002  0.00  0.00    +0.339 C 
BRANCH  20  21
ATOM     21  O   UNL     1      37.194 -24.719 -14.561  0.00  0.00    -0.449 OA
BRANCH  21  22
ATOM     22  C   UNL     1      38.389 -25.505 -14.567  0.00  0.00    +0.169 C 
ATOM     23  C   UNL     1      39.454 -24.793 -15.388  0.00  0.00    +0.047 C 
ATOM     24  C   UNL     1      38.839 -25.742 -13.134  0.00  0.00    +0.047 C 
ENDBRANCH  21  22
ENDBRANCH  20  21
ENDBRANCH   3  20
BRANCH   4  26
ATOM     25  O   UNL     1      30.702 -24.892 -16.133  0.00  0.00    -0.245 OA
ATOM     26  C   UNL     1      31.295 -23.868 -15.848  0.00  0.00    +0.342 C 
BRANCH  26  27
ATOM     27  O   UNL     1      31.005 -22.599 -16.222  0.00  0.00    -0.441 OA
ATOM     28  C   UNL     1      29.615 -22.329 -16.426  0.00  0.00    +0.256 C 
ENDBRANCH  26  27
ENDBRANCH   4  26
TORSDOF 6
ENDMDL
MODEL 4
REMARK VINA RESULT:      -6.2     13.337     15.986
REMARK  Name = 3784
REMARK  6 active torsions:
REMARK  status: ('A' for Active; 'I' for Inactive)
REMARK    1  A    between atoms: C_2  and  C_13
REMARK    2  A    between atoms: C_3  and  C_20
REMARK    3  A    between atoms: C_4  and  C_26
REMARK    4  A    between atoms: C_20  and  O_21
REMARK    5  A    between atoms: O_21  and  C_22
REMARK    6  A    between atoms: C_26  and  O_27
REMARK                            x       y       z     vdW  Elec       q    Type
REMARK                         _______ _______ _______ _____ _____    ______ ____
ROOT
ATOM      1  N   UNL     1      31.996  -8.325 -20.349  0.00  0.00    -0.334 N 
ATOM      2  C   UNL     1      31.866  -9.470 -22.937  0.00  0.00    +0.013 C 
ATOM      3  C   UNL     1      31.856 -10.300 -21.648  0.00  0.00    +0.071 C 
ATOM      4  C   UNL     1      31.789  -7.963 -22.678  0.00  0.00    +0.085 C 
ATOM      5  C   UNL     1      31.934  -9.707 -20.434  0.00  0.00    +0.098 C 
ATOM      6  C   UNL     1      31.883  -7.461 -21.427  0.00  0.00    +0.028 C 
ATOM      7  C   UNL     1      31.969 -10.426 -19.113  0.00  0.00    +0.026 C 
ATOM      8  C   UNL     1      31.871  -5.999 -21.070  0.00  0.00    +0.047 C 
ATOM      9  H   UNL     1      32.131  -7.928 -19.458  0.00  0.00    +0.147 HD
ENDROOT
BRANCH   2  13
ATOM     10  O   UNL     1      32.984 -12.722 -25.745  0.00  0.00    -0.242 OA
ATOM     11  N   UNL     1      32.346 -11.879 -24.852  0.00  0.00    -0.048 NA
ATOM     12  N   UNL     1      34.263 -12.287 -26.042  0.00  0.00    -0.048 NA
ATOM     13  C   UNL     1      33.095  -9.791 -23.741  0.00  0.00    +0.023 C 
ATOM     14  C   UNL     1      33.222 -10.903 -24.580  0.00  0.00    +0.143 A 
ATOM     15  C   UNL     1      34.216  -8.955 -23.682  0.00  0.00    +0.002 C 
ATOM     16  C   UNL     1      34.441 -11.162 -25.337  0.00  0.00    +0.143 A 
ATOM     17  C   UNL     1      35.403  -9.207 -24.418  0.00  0.00    +0.002 C 
ATOM     18  C   UNL     1      35.562 -10.315 -25.271  0.00  0.00    +0.024 C 
ENDBRANCH   2  13
BRANCH   3  20
ATOM     19  O   UNL     1      30.639 -12.280 -22.114  0.00  0.00    -0.245 OA
ATOM     20  C   UNL     1      31.691 -11.754 -21.800  0.00  0.00    +0.339 C 
BRANCH  20  21
ATOM     21  O   UNL     1      32.880 -12.349 -21.536  0.00  0.00    -0.449 OA
BRANCH  21  22
ATOM     22  C   UNL     1      32.940 -13.746 -21.838  0.00  0.00    +0.169 C 
ATOM     23  C   UNL     1      34.199 -14.032 -22.642  0.00  0.00    +0.047 C 
ATOM     24  C   UNL     1      32.901 -14.541 -20.542  0.00  0.00    +0.047 C 
ENDBRANCH  21  22
ENDBRANCH  20  21
ENDBRANCH   3  20
BRANCH   4  26
ATOM     25  O   UNL     1      30.575  -7.192 -24.562  0.00  0.00    -0.245 OA
ATOM     26  C   UNL     1      31.559  -7.104 -23.852  0.00  0.00    +0.342 C 
BRANCH  26  27
ATOM     27  O   UNL     1      32.604  -6.249 -23.969  0.00  0.00    -0.441 OA
ATOM     28  C   UNL     1      32.641  -5.498 -25.185  0.00  0.00    +0.256 C 
ENDBRANCH  26  27
ENDBRANCH   4  26
TORSDOF 6
ENDMDL
MODEL 5
REMARK VINA RESULT:      -6.1      2.609      6.703
REMARK  Name = 3784
REMARK  6 active torsions:
REMARK  status: ('A' for Active; 'I' for Inactive)
REMARK    1  A    between atoms: C_2  and  C_13
REMARK    2  A    between atoms: C_3  and  C_20
REMARK    3  A    between atoms: C_4  and  C_26
REMARK    4  A    between atoms: C_20  and  O_21
REMARK    5  A    between atoms: O_21  and  C_22
REMARK    6  A    between atoms: C_26  and  O_27
REMARK                            x       y       z     vdW  Elec       q    Type
REMARK                         _______ _______ _______ _____ _____    ______ ____
ROOT
ATOM      1  N   UNL     1      38.601 -23.189 -16.118  0.00  0.00    -0.334 N 
ATOM      2  C   UNL     1      36.531 -24.647 -14.847  0.00  0.00    +0.013 C 
ATOM      3  C   UNL     1      36.278 -23.418 -15.726  0.00  0.00    +0.071 C 
ATOM      4  C   UNL     1      37.995 -25.100 -14.860  0.00  0.00    +0.085 C 
ATOM      5  C   UNL     1      37.302 -22.745 -16.301  0.00  0.00    +0.098 C 
ATOM      6  C   UNL     1      38.952 -24.356 -15.457  0.00  0.00    +0.028 C 
ATOM      7  C   UNL     1      37.166 -21.509 -17.148  0.00  0.00    +0.026 C 
ATOM      8  C   UNL     1      40.421 -24.682 -15.483  0.00  0.00    +0.047 C 
ATOM      9  H   UNL     1      39.329 -22.635 -16.483  0.00  0.00    +0.147 HD
ENDROOT
BRANCH   2  13
ATOM     10  O   UNL     1      38.248 -22.348 -11.460  0.00  0.00    -0.242 OA
ATOM     11  N   UNL     1      37.992 -22.962 -12.673  0.00  0.00    -0.048 NA
ATOM     12  N   UNL     1      37.244 -22.587 -10.538  0.00  0.00    -0.048 NA
ATOM     13  C   UNL     1      36.094 -24.366 -13.437  0.00  0.00    +0.023 C 
ATOM     14  C   UNL     1      36.820 -23.593 -12.524  0.00  0.00    +0.143 A 
ATOM     15  C   UNL     1      34.889 -24.889 -12.953  0.00  0.00    +0.002 C 
ATOM     16  C   UNL     1      36.344 -23.354 -11.167  0.00  0.00    +0.143 A 
ATOM     17  C   UNL     1      34.426 -24.657 -11.631  0.00  0.00    +0.002 C 
ATOM     18  C   UNL     1      35.131 -23.885 -10.691  0.00  0.00    +0.024 C 
ENDBRANCH   2  13
BRANCH   3  20
ATOM     19  O   UNL     1      34.193 -22.447 -15.153  0.00  0.00    -0.245 OA
ATOM     20  C   UNL     1      34.871 -23.054 -15.961  0.00  0.00    +0.339 C 
BRANCH  20  21
ATOM     21  O   UNL     1      34.511 -23.506 -17.187  0.00  0.00    -0.449 OA
BRANCH  21  22
ATOM     22  C   UNL     1      33.686 -22.615 -17.944  0.00  0.00    +0.169 C 
ATOM     23  C   UNL     1      33.943 -22.832 -19.427  0.00  0.00    +0.047 C 
ATOM     24  C   UNL     1      32.229 -22.851 -17.579  0.00  0.00    +0.047 C 
ENDBRANCH  21  22
ENDBRANCH  20  21
ENDBRANCH   3  20
BRANCH   4  26
ATOM     25  O   UNL     1      38.720 -26.518 -13.106  0.00  0.00    -0.245 OA
ATOM     26  C   UNL     1      38.288 -26.401 -14.237  0.00  0.00    +0.342 C 
BRANCH  26  27
ATOM     27  O   UNL     1      37.994 -27.379 -15.128  0.00  0.00    -0.441 OA
ATOM     28  C   UNL     1      36.680 -27.312 -15.690  0.00  0.00    +0.256 C 
ENDBRANCH  26  27
ENDBRANCH   4  26
TORSDOF 6
ENDMDL
MODEL 6
REMARK VINA RESULT:      -6.0     14.478     17.733
REMARK  Name = 3784
REMARK  6 active torsions:
REMARK  status: ('A' for Active; 'I' for Inactive)
REMARK    1  A    between atoms: C_2  and  C_13
REMARK    2  A    between atoms: C_3  and  C_20
REMARK    3  A    between atoms: C_4  and  C_26
REMARK    4  A    between atoms: C_20  and  O_21
REMARK    5  A    between atoms: O_21  and  C_22
REMARK    6  A    between atoms: C_26  and  O_27
REMARK                            x       y       z     vdW  Elec       q    Type
REMARK                         _______ _______ _______ _____ _____    ______ ____
ROOT
ATOM      1  N   UNL     1      34.741  -8.323 -24.470  0.00  0.00    -0.334 N 
ATOM      2  C   UNL     1      32.306  -9.618 -23.823  0.00  0.00    +0.013 C 
ATOM      3  C   UNL     1      32.430  -8.101 -24.006  0.00  0.00    +0.071 C 
ATOM      4  C   UNL     1      33.590 -10.371 -24.185  0.00  0.00    +0.085 C 
ATOM      5  C   UNL     1      33.620  -7.527 -24.302  0.00  0.00    +0.098 C 
ATOM      6  C   UNL     1      34.736  -9.709 -24.460  0.00  0.00    +0.028 C 
ATOM      7  C   UNL     1      33.858  -6.050 -24.465  0.00  0.00    +0.026 C 
ATOM      8  C   UNL     1      36.060 -10.351 -24.776  0.00  0.00    +0.047 C 
ATOM      9  H   UNL     1      35.605  -7.871 -24.607  0.00  0.00    +0.147 HD
ENDROOT
BRANCH   2  13
ATOM     10  O   UNL     1      33.162  -7.777 -19.875  0.00  0.00    -0.242 OA
ATOM     11  N   UNL     1      33.090  -8.101 -21.219  0.00  0.00    -0.048 NA
ATOM     12  N   UNL     1      32.434  -8.656 -19.093  0.00  0.00    -0.048 NA
ATOM     13  C   UNL     1      31.910  -9.931 -22.408  0.00  0.00    +0.023 C 
ATOM     14  C   UNL     1      32.313  -9.189 -21.292  0.00  0.00    +0.143 A 
ATOM     15  C   UNL     1      31.085 -11.027 -22.131  0.00  0.00    +0.002 C 
ATOM     16  C   UNL     1      31.895  -9.542 -19.940  0.00  0.00    +0.143 A 
ATOM     17  C   UNL     1      30.679 -11.371 -20.815  0.00  0.00    +0.002 C 
ATOM     18  C   UNL     1      31.065 -10.646 -19.673  0.00  0.00    +0.024 C 
ENDBRANCH   2  13
BRANCH   3  20
ATOM     19  O   UNL     1      30.281  -7.401 -24.717  0.00  0.00    -0.245 OA
ATOM     20  C   UNL     1      31.186  -7.321 -23.909  0.00  0.00    +0.339 C 
BRANCH  20  21
ATOM     21  O   UNL     1      31.255  -6.544 -22.800  0.00  0.00    -0.449 OA
BRANCH  21  22
ATOM     22  C   UNL     1      30.465  -5.351 -22.846  0.00  0.00    +0.169 C 
ATOM     23  C   UNL     1      30.083  -4.949 -21.430  0.00  0.00    +0.047 C 
ATOM     24  C   UNL     1      31.249  -4.259 -23.555  0.00  0.00    +0.047 C 
ENDBRANCH  21  22
ENDBRANCH  20  21
ENDBRANCH   3  20
BRANCH   4  26
ATOM     25  O   UNL     1      33.623 -12.569 -23.301  0.00  0.00    -0.245 OA
ATOM     26  C   UNL     1      33.494 -11.838 -24.265  0.00  0.00    +0.342 C 
BRANCH  26  27
ATOM     27  O   UNL     1      33.246 -12.182 -25.552  0.00  0.00    -0.441 OA
ATOM     28  C   UNL     1      33.184 -13.589 -25.802  0.00  0.00    +0.256 C 
ENDBRANCH  26  27
ENDBRANCH   4  26
TORSDOF 6
ENDMDL
MODEL 7
REMARK VINA RESULT:      -5.5      2.042      5.842
REMARK  Name = 3784
REMARK  6 active torsions:
REMARK  status: ('A' for Active; 'I' for Inactive)
REMARK    1  A    between atoms: C_2  and  C_13
REMARK    2  A    between atoms: C_3  and  C_20
REMARK    3  A    between atoms: C_4  and  C_26
REMARK    4  A    between atoms: C_20  and  O_21
REMARK    5  A    between atoms: O_21  and  C_22
REMARK    6  A    between atoms: C_26  and  O_27
REMARK                            x       y       z     vdW  Elec       q    Type
REMARK                         _______ _______ _______ _____ _____    ______ ____
ROOT
ATOM      1  N   UNL     1      37.130 -22.324 -16.486  0.00  0.00    -0.334 N 
ATOM      2  C   UNL     1      34.701 -23.778 -16.591  0.00  0.00    +0.013 C 
ATOM      3  C   UNL     1      35.106 -22.738 -17.642  0.00  0.00    +0.071 C 
ATOM      4  C   UNL     1      35.811 -24.065 -15.576  0.00  0.00    +0.085 C 
ATOM      5  C   UNL     1      36.272 -22.058 -17.541  0.00  0.00    +0.098 C 
ATOM      6  C   UNL     1      36.941 -23.326 -15.546  0.00  0.00    +0.028 C 
ATOM      7  C   UNL     1      36.746 -20.994 -18.492  0.00  0.00    +0.026 C 
ATOM      8  C   UNL     1      38.067 -23.491 -14.561  0.00  0.00    +0.047 C 
ATOM      9  H   UNL     1      37.931 -21.759 -16.396  0.00  0.00    +0.147 HD
ENDROOT
BRANCH   2  13
ATOM     10  O   UNL     1      30.406 -23.529 -17.686  0.00  0.00    -0.242 OA
ATOM     11  N   UNL     1      31.776 -23.726 -17.658  0.00  0.00    -0.048 NA
ATOM     12  N   UNL     1      29.934 -23.016 -16.491  0.00  0.00    -0.048 NA
ATOM     13  C   UNL     1      33.458 -23.326 -15.878  0.00  0.00    +0.023 C 
ATOM     14  C   UNL     1      32.177 -23.338 -16.440  0.00  0.00    +0.143 A 
ATOM     15  C   UNL     1      33.530 -22.853 -14.563  0.00  0.00    +0.002 C 
ATOM     16  C   UNL     1      31.005 -22.887 -15.698  0.00  0.00    +0.143 A 
ATOM     17  C   UNL     1      32.390 -22.413 -13.841  0.00  0.00    +0.002 C 
ATOM     18  C   UNL     1      31.089 -22.413 -14.376  0.00  0.00    +0.024 C 
ENDBRANCH   2  13
BRANCH   3  20
ATOM     19  O   UNL     1      33.840 -23.492 -19.499  0.00  0.00    -0.245 OA
ATOM     20  C   UNL     1      34.199 -22.571 -18.789  0.00  0.00    +0.339 C 
BRANCH  20  21
ATOM     21  O   UNL     1      33.867 -21.260 -18.883  0.00  0.00    -0.449 OA
BRANCH  21  22
ATOM     22  C   UNL     1      33.605 -20.795 -20.211  0.00  0.00    +0.169 C 
ATOM     23  C   UNL     1      32.413 -19.850 -20.185  0.00  0.00    +0.047 C 
ATOM     24  C   UNL     1      34.852 -20.120 -20.760  0.00  0.00    +0.047 C 
ENDBRANCH  21  22
ENDBRANCH  20  21
ENDBRANCH   3  20
BRANCH   4  26
ATOM     25  O   UNL     1      35.356 -25.094 -13.490  0.00  0.00    -0.245 OA
ATOM     26  C   UNL     1      35.600 -25.212 -14.676  0.00  0.00    +0.342 C 
BRANCH  26  27
ATOM     27  O   UNL     1      35.726 -26.352 -15.398  0.00  0.00    -0.441 OA
ATOM     28  C   UNL     1      36.998 -26.997 -15.296  0.00  0.00    +0.256 C 
ENDBRANCH  26  27
ENDBRANCH   4  26
TORSDOF 6
ENDMDL
MODEL 8
REMARK VINA RESULT:      -5.4     14.744     17.602
REMARK  Name = 3784
REMARK  6 active torsions:
REMARK  status: ('A' for Active; 'I' for Inactive)
REMARK    1  A    between atoms: C_2  and  C_13
REMARK    2  A    between atoms: C_3  and  C_20
REMARK    3  A    between atoms: C_4  and  C_26
REMARK    4  A    between atoms: C_20  and  O_21
REMARK    5  A    between atoms: O_21  and  C_22
REMARK    6  A    between atoms: C_26  and  O_27
REMARK                            x       y       z     vdW  Elec       q    Type
REMARK                         _______ _______ _______ _____ _____    ______ ____
ROOT
ATOM      1  N   UNL     1      31.676 -11.381 -21.470  0.00  0.00    -0.334 N 
ATOM      2  C   UNL     1      33.067  -9.111 -22.439  0.00  0.00    +0.013 C 
ATOM      3  C   UNL     1      32.290  -9.122 -21.118  0.00  0.00    +0.071 C 
ATOM      4  C   UNL     1      33.149 -10.493 -23.095  0.00  0.00    +0.085 C 
ATOM      5  C   UNL     1      31.629 -10.228 -20.703  0.00  0.00    +0.098 C 
ATOM      6  C   UNL     1      32.445 -11.540 -22.612  0.00  0.00    +0.028 C 
ATOM      7  C   UNL     1      30.808 -10.333 -19.447  0.00  0.00    +0.026 C 
ATOM      8  C   UNL     1      32.415 -12.921 -23.209  0.00  0.00    +0.047 C 
ATOM      9  H   UNL     1      31.123 -12.143 -21.182  0.00  0.00    +0.147 HD
ENDROOT
BRANCH   2  13
ATOM     10  O   UNL     1      34.660  -6.026 -25.205  0.00  0.00    -0.242 OA
ATOM     11  N   UNL     1      34.489  -7.037 -24.276  0.00  0.00    -0.048 NA
ATOM     12  N   UNL     1      33.450  -5.572 -25.701  0.00  0.00    -0.048 NA
ATOM     13  C   UNL     1      32.444  -8.128 -23.391  0.00  0.00    +0.023 C 
ATOM     14  C   UNL     1      33.167  -7.228 -24.181  0.00  0.00    +0.143 A 
ATOM     15  C   UNL     1      31.053  -8.068 -23.534  0.00  0.00    +0.002 C 
ATOM     16  C   UNL     1      32.506  -6.297 -25.087  0.00  0.00    +0.143 A 
ATOM     17  C   UNL     1      30.410  -7.160 -24.416  0.00  0.00    +0.002 C 
ATOM     18  C   UNL     1      31.107  -6.244 -25.224  0.00  0.00    +0.024 C 
ENDBRANCH   2  13
BRANCH   3  20
ATOM     19  O   UNL     1      33.322  -7.598 -19.625  0.00  0.00    -0.245 OA
ATOM     20  C   UNL     1      32.358  -7.898 -20.304  0.00  0.00    +0.339 C 
BRANCH  20  21
ATOM     21  O   UNL     1      31.196  -7.217 -20.457  0.00  0.00    -0.449 OA
BRANCH  21  22
ATOM     22  C   UNL     1      31.339  -5.806 -20.643  0.00  0.00    +0.169 C 
ATOM     23  C   UNL     1      32.570  -5.535 -21.494  0.00  0.00    +0.047 C 
ATOM     24  C   UNL     1      30.075  -5.254 -21.282  0.00  0.00    +0.047 C 
ENDBRANCH  21  22
ENDBRANCH  20  21
ENDBRANCH   3  20
BRANCH   4  26
ATOM     25  O   UNL     1      35.249 -10.343 -24.184  0.00  0.00    -0.245 OA
ATOM     26  C   UNL     1      34.067 -10.626 -24.239  0.00  0.00    +0.342 C 
BRANCH  26  27
ATOM     27  O   UNL     1      33.366 -11.101 -25.297  0.00  0.00    -0.441 OA
ATOM     28  C   UNL     1      34.129 -11.863 -26.237  0.00  0.00    +0.256 C 
ENDBRANCH  26  27
ENDBRANCH   4  26
TORSDOF 6
ENDMDL
MODEL 9
REMARK VINA RESULT:      -5.3     11.868     14.542
REMARK  Name = 3784
REMARK  6 active torsions:
REMARK  status: ('A' for Active; 'I' for Inactive)
REMARK    1  A    between atoms: C_2  and  C_13
REMARK    2  A    between atoms: C_3  and  C_20
REMARK    3  A    between atoms: C_4  and  C_26
REMARK    4  A    between atoms: C_20  and  O_21
REMARK    5  A    between atoms: O_21  and  C_22
REMARK    6  A    between atoms: C_26  and  O_27
REMARK                            x       y       z     vdW  Elec       q    Type
REMARK                         _______ _______ _______ _____ _____    ______ ____
ROOT
ATOM      1  N   UNL     1      32.346 -12.072 -20.484  0.00  0.00    -0.334 N 
ATOM      2  C   UNL     1      32.215 -11.577 -23.270  0.00  0.00    +0.013 C 
ATOM      3  C   UNL     1      32.562 -12.946 -22.674  0.00  0.00    +0.071 C 
ATOM      4  C   UNL     1      31.788 -10.555 -22.213  0.00  0.00    +0.085 C 
ATOM      5  C   UNL     1      32.626 -13.129 -21.334  0.00  0.00    +0.098 C 
ATOM      6  C   UNL     1      31.894 -10.827 -20.893  0.00  0.00    +0.028 C 
ATOM      7  C   UNL     1      32.994 -14.416 -20.647  0.00  0.00    +0.026 C 
ATOM      8  C   UNL     1      31.553  -9.877 -19.777  0.00  0.00    +0.047 C 
ATOM      9  H   UNL     1      32.476 -12.215 -19.519  0.00  0.00    +0.147 HD
ENDROOT
BRANCH   2  13
ATOM     10  O   UNL     1      34.011 -12.545 -27.213  0.00  0.00    -0.242 OA
ATOM     11  N   UNL     1      33.237 -12.488 -26.067  0.00  0.00    -0.048 NA
ATOM     12  N   UNL     1      35.038 -11.618 -27.187  0.00  0.00    -0.048 NA
ATOM     13  C   UNL     1      33.384 -11.049 -24.052  0.00  0.00    +0.023 C 
ATOM     14  C   UNL     1      33.772 -11.522 -25.310  0.00  0.00    +0.143 A 
ATOM     15  C   UNL     1      34.171 -10.014 -23.534  0.00  0.00    +0.002 C 
ATOM     16  C   UNL     1      34.917 -10.969 -26.022  0.00  0.00    +0.143 A 
ATOM     17  C   UNL     1      35.287  -9.475 -24.226  0.00  0.00    +0.002 C 
ATOM     18  C   UNL     1      35.702  -9.928 -25.492  0.00  0.00    +0.024 C 
ENDBRANCH   2  13
BRANCH   3  20
ATOM     19  O   UNL     1      31.887 -14.441 -24.384  0.00  0.00    -0.245 OA
ATOM     20  C   UNL     1      32.756 -14.051 -23.626  0.00  0.00    +0.339 C 
BRANCH  20  21
ATOM     21  O   UNL     1      34.022 -14.515 -23.492  0.00  0.00    -0.449 OA
BRANCH  21  22
ATOM     22  C   UNL     1      34.178 -15.922 -23.695  0.00  0.00    +0.169 C 
ATOM     23  C   UNL     1      34.531 -16.183 -25.151  0.00  0.00    +0.047 C 
ATOM     24  C   UNL     1      35.244 -16.450 -22.749  0.00  0.00    +0.047 C 
ENDBRANCH  21  22
ENDBRANCH  20  21
ENDBRANCH   3  20
BRANCH   4  26
ATOM     25  O   UNL     1      30.242  -9.242 -23.438  0.00  0.00    -0.245 OA
ATOM     26  C   UNL     1      31.215  -9.293 -22.709  0.00  0.00    +0.342 C 
BRANCH  26  27
ATOM     27  O   UNL     1      31.949  -8.266 -22.217  0.00  0.00    -0.441 OA
ATOM     28  C   UNL     1      31.383  -6.967 -22.414  0.00  0.00    +0.256 C 
ENDBRANCH  26  27
ENDBRANCH   4  26
TORSDOF 6
ENDMDL
