MODEL 1
REMARK VINA RESULT:     -10.4      0.000      0.000
REMARK  Name = 11504295
REMARK  9 active torsions:
REMARK  status: ('A' for Active; 'I' for Inactive)
REMARK    1  A    between atoms: C_1  and  C_5
REMARK    2  A    between atoms: C_1  and  O_16
REMARK    3  A    between atoms: C_1  and  C_18
REMARK    4  A    between atoms: C_9  and  O_14
REMARK    5  A    between atoms: C_18  and  N_19
REMARK    6  A    between atoms: N_19  and  C_22
REMARK    7  A    between atoms: C_22  and  C_25
REMARK    8  A    between atoms: C_25  and  C_26
REMARK    9  A    between atoms: C_31  and  O_32
REMARK                            x       y       z     vdW  Elec       q    Type
REMARK                         _______ _______ _______ _____ _____    ______ ____
ROOT
ATOM      1  C   UNL     1      34.619 -22.571 -19.080  0.00  0.00    +0.115 C 
ENDROOT
BRANCH   1   5
ATOM      2  O   UNL     1      36.280 -22.696 -16.836  0.00  0.00    -0.465 OA
ATOM      3  O   UNL     1      37.438 -23.036 -13.430  0.00  0.00    -0.271 OA
ATOM      4  N   UNL     1      35.282 -23.129 -14.226  0.00  0.00    -0.278 N 
ATOM      5  C   UNL     1      34.090 -22.811 -17.704  0.00  0.00    +0.040 C 
ATOM      6  C   UNL     1      34.947 -22.893 -16.607  0.00  0.00    +0.151 C 
ATOM      7  C   UNL     1      32.714 -22.956 -17.524  0.00  0.00    +0.038 C 
ATOM      8  C   UNL     1      34.426 -23.099 -15.331  0.00  0.00    +0.088 C 
ATOM      9  C   UNL     1      32.195 -23.167 -16.247  0.00  0.00    +0.135 C 
ATOM     10  C   UNL     1      33.048 -23.233 -15.145  0.00  0.00    +0.054 C 
ATOM     11  C   UNL     1      37.123 -23.187 -15.812  0.00  0.00    +0.290 C 
ATOM     12  C   UNL     1      36.649 -23.081 -14.372  0.00  0.00    +0.271 C 
ATOM     13  H   UNL     1      34.898 -23.185 -13.321  0.00  0.00    +0.155 HD
BRANCH   9  14
ATOM     14  O   UNL     1      30.850 -23.302 -16.073  0.00  0.00    -0.505 OA
ATOM     15  H   UNL     1      30.462 -24.154 -16.072  0.00  0.00    +0.292 HD
ENDBRANCH   9  14
ENDBRANCH   1   5
BRANCH   1  16
ATOM     16  O   UNL     1      34.191 -23.638 -19.936  0.00  0.00    -0.382 OA
ATOM     17  H   UNL     1      34.610 -23.543 -20.806  0.00  0.00    +0.211 HD
ENDBRANCH   1  16
BRANCH   1  18
ATOM     18  C   UNL     1      34.144 -21.224 -19.658  0.00  0.00    -0.047 C 
BRANCH  18  19
ATOM     19  N   UNL     1      35.189 -20.583 -20.452  0.00  0.00    +0.388 N 
ATOM     20  H   UNL     1      35.929 -20.256 -19.829  0.00  0.00    -0.084 HD
ATOM     21  H   UNL     1      35.559 -21.262 -21.116  0.00  0.00    -0.084 HD
BRANCH  19  22
ATOM     22  C   UNL     1      34.655 -19.449 -21.192  0.00  0.00    -0.042 C 
ATOM     23  C   UNL     1      33.184 -19.294 -20.781  0.00  0.00    -0.021 C 
ATOM     24  C   UNL     1      34.744 -19.798 -22.683  0.00  0.00    -0.021 C 
BRANCH  22  25
ATOM     25  C   UNL     1      35.503 -18.203 -20.826  0.00  0.00    +0.007 C 
BRANCH  25  26
ATOM     26  C   UNL     1      35.050 -16.888 -21.415  0.00  0.00    -0.024 C 
ATOM     27  C   UNL     1      35.123 -16.698 -22.785  0.00  0.00    -0.001 C 
ATOM     28  C   UNL     1      34.571 -15.897 -20.573  0.00  0.00    -0.001 C 
ATOM     29  C   UNL     1      34.704 -15.484 -23.329  0.00  0.00    +0.037 C 
ATOM     30  C   UNL     1      34.153 -14.683 -21.118  0.00  0.00    +0.037 C 
ATOM     31  C   UNL     1      34.219 -14.476 -22.496  0.00  0.00    +0.139 C 
BRANCH  31  32
ATOM     32  O   UNL     1      33.810 -13.292 -23.027  0.00  0.00    -0.471 OA
ATOM     33  C   UNL     1      33.580 -13.256 -24.435  0.00  0.00    +0.252 C 
ENDBRANCH  31  32
ENDBRANCH  25  26
ENDBRANCH  22  25
ENDBRANCH  19  22
ENDBRANCH  18  19
ENDBRANCH   1  18
TORSDOF 9
ENDMDL
MODEL 2
REMARK VINA RESULT:     -10.1      3.927     11.181
REMARK  Name = 11504295
REMARK  9 active torsions:
REMARK  status: ('A' for Active; 'I' for Inactive)
REMARK    1  A    between atoms: C_1  and  C_5
REMARK    2  A    between atoms: C_1  and  O_16
REMARK    3  A    between atoms: C_1  and  C_18
REMARK    4  A    between atoms: C_9  and  O_14
REMARK    5  A    between atoms: C_18  and  N_19
REMARK    6  A    between atoms: N_19  and  C_22
REMARK    7  A    between atoms: C_22  and  C_25
REMARK    8  A    between atoms: C_25  and  C_26
REMARK    9  A    between atoms: C_31  and  O_32
REMARK                            x       y       z     vdW  Elec       q    Type
REMARK                         _______ _______ _______ _____ _____    ______ ____
ROOT
ATOM      1  C   UNL     1      33.002 -13.797 -24.322  0.00  0.00    +0.115 C 
ENDROOT
BRANCH   1   5
ATOM      2  O   UNL     1      32.248 -11.816 -22.501  0.00  0.00    -0.465 OA
ATOM      3  O   UNL     1      31.930  -8.636 -20.815  0.00  0.00    -0.271 OA
ATOM      4  N   UNL     1      33.173  -9.150 -22.681  0.00  0.00    -0.278 N 
ATOM      5  C   UNL     1      33.483 -12.387 -24.427  0.00  0.00    +0.040 C 
ATOM      6  C   UNL     1      33.069 -11.415 -23.516  0.00  0.00    +0.151 C 
ATOM      7  C   UNL     1      34.360 -12.046 -25.458  0.00  0.00    +0.038 C 
ATOM      8  C   UNL     1      33.547 -10.111 -23.626  0.00  0.00    +0.088 C 
ATOM      9  C   UNL     1      34.833 -10.739 -25.568  0.00  0.00    +0.135 C 
ATOM     10  C   UNL     1      34.434  -9.768 -24.649  0.00  0.00    +0.054 C 
ATOM     11  C   UNL     1      31.543 -10.762 -21.874  0.00  0.00    +0.290 C 
ATOM     12  C   UNL     1      32.241  -9.424 -21.706  0.00  0.00    +0.271 C 
ATOM     13  H   UNL     1      33.585  -8.256 -22.714  0.00  0.00    +0.155 HD
BRANCH   9  14
ATOM     14  O   UNL     1      35.694 -10.410 -26.572  0.00  0.00    -0.505 OA
ATOM     15  H   UNL     1      36.503 -10.873 -26.664  0.00  0.00    +0.292 HD
ENDBRANCH   9  14
ENDBRANCH   1   5
BRANCH   1  16
ATOM     16  O   UNL     1      32.621 -14.257 -25.625  0.00  0.00    -0.382 OA
ATOM     17  H   UNL     1      32.368 -13.498 -26.174  0.00  0.00    +0.211 HD
ENDBRANCH   1  16
BRANCH   1  18
ATOM     18  C   UNL     1      34.076 -14.735 -23.738  0.00  0.00    -0.047 C 
BRANCH  18  19
ATOM     19  N   UNL     1      34.301 -14.474 -22.318  0.00  0.00    +0.388 N 
ATOM     20  H   UNL     1      35.270 -14.184 -22.181  0.00  0.00    -0.084 HD
ATOM     21  H   UNL     1      33.664 -13.738 -22.016  0.00  0.00    -0.084 HD
BRANCH  19  22
ATOM     22  C   UNL     1      34.045 -15.667 -21.526  0.00  0.00    -0.042 C 
ATOM     23  C   UNL     1      32.553 -15.659 -21.165  0.00  0.00    -0.021 C 
ATOM     24  C   UNL     1      34.889 -15.555 -20.250  0.00  0.00    -0.021 C 
BRANCH  22  25
ATOM     25  C   UNL     1      34.436 -16.899 -22.385  0.00  0.00    +0.007 C 
BRANCH  25  26
ATOM     26  C   UNL     1      34.702 -18.182 -21.634  0.00  0.00    -0.024 C 
ATOM     27  C   UNL     1      36.006 -18.525 -21.320  0.00  0.00    -0.001 C 
ATOM     28  C   UNL     1      33.636 -18.991 -21.276  0.00  0.00    -0.001 C 
ATOM     29  C   UNL     1      36.252 -19.710 -20.625  0.00  0.00    +0.037 C 
ATOM     30  C   UNL     1      33.882 -20.175 -20.582  0.00  0.00    +0.037 C 
ATOM     31  C   UNL     1      35.190 -20.535 -20.257  0.00  0.00    +0.139 C 
BRANCH  31  32
ATOM     32  O   UNL     1      35.431 -21.691 -19.580  0.00  0.00    -0.471 OA
ATOM     33  C   UNL     1      36.444 -21.657 -18.576  0.00  0.00    +0.252 C 
ENDBRANCH  31  32
ENDBRANCH  25  26
ENDBRANCH  22  25
ENDBRANCH  19  22
ENDBRANCH  18  19
ENDBRANCH   1  18
TORSDOF 9
ENDMDL
MODEL 3
REMARK VINA RESULT:     -10.0      4.418     11.231
REMARK  Name = 11504295
REMARK  9 active torsions:
REMARK  status: ('A' for Active; 'I' for Inactive)
REMARK    1  A    between atoms: C_1  and  C_5
REMARK    2  A    between atoms: C_1  and  O_16
REMARK    3  A    between atoms: C_1  and  C_18
REMARK    4  A    between atoms: C_9  and  O_14
REMARK    5  A    between atoms: C_18  and  N_19
REMARK    6  A    between atoms: N_19  and  C_22
REMARK    7  A    between atoms: C_22  and  C_25
REMARK    8  A    between atoms: C_25  and  C_26
REMARK    9  A    between atoms: C_31  and  O_32
REMARK                            x       y       z     vdW  Elec       q    Type
REMARK                         _______ _______ _______ _____ _____    ______ ____
ROOT
ATOM      1  C   UNL     1      32.305 -12.600 -22.703  0.00  0.00    +0.115 C 
ENDROOT
BRANCH   1   5
ATOM      2  O   UNL     1      32.438  -9.899 -23.408  0.00  0.00    -0.465 OA
ATOM      3  O   UNL     1      32.373  -6.290 -23.227  0.00  0.00    -0.271 OA
ATOM      4  N   UNL     1      31.989  -7.816 -21.548  0.00  0.00    -0.278 N 
ATOM      5  C   UNL     1      32.079 -11.502 -21.715  0.00  0.00    +0.040 C 
ATOM      6  C   UNL     1      32.176 -10.163 -22.093  0.00  0.00    +0.151 C 
ATOM      7  C   UNL     1      31.768 -11.832 -20.396  0.00  0.00    +0.038 C 
ATOM      8  C   UNL     1      31.943  -9.157 -21.157  0.00  0.00    +0.088 C 
ATOM      9  C   UNL     1      31.539 -10.824 -19.459  0.00  0.00    +0.135 C 
ATOM     10  C   UNL     1      31.620  -9.484 -19.838  0.00  0.00    +0.054 C 
ATOM     11  C   UNL     1      32.927  -8.594 -23.652  0.00  0.00    +0.290 C 
ATOM     12  C   UNL     1      32.381  -7.449 -22.815  0.00  0.00    +0.271 C 
ATOM     13  H   UNL     1      31.735  -7.117 -20.903  0.00  0.00    +0.155 HD
BRANCH   9  14
ATOM     14  O   UNL     1      31.229 -11.149 -18.173  0.00  0.00    -0.505 OA
ATOM     15  H   UNL     1      30.697 -10.574 -17.660  0.00  0.00    +0.292 HD
ENDBRANCH   9  14
ENDBRANCH   1   5
BRANCH   1  16
ATOM     16  O   UNL     1      33.547 -12.369 -23.379  0.00  0.00    -0.382 OA
ATOM     17  H   UNL     1      33.440 -11.644 -24.015  0.00  0.00    +0.211 HD
ENDBRANCH   1  16
BRANCH   1  18
ATOM     18  C   UNL     1      32.333 -13.987 -22.032  0.00  0.00    -0.047 C 
BRANCH  18  19
ATOM     19  N   UNL     1      33.605 -14.668 -22.261  0.00  0.00    +0.388 N 
ATOM     20  H   UNL     1      33.652 -14.970 -23.235  0.00  0.00    -0.084 HD
ATOM     21  H   UNL     1      34.365 -14.020 -22.053  0.00  0.00    -0.084 HD
BRANCH  19  22
ATOM     22  C   UNL     1      33.732 -15.830 -21.395  0.00  0.00    -0.042 C 
ATOM     23  C   UNL     1      32.350 -16.091 -20.781  0.00  0.00    -0.021 C 
ATOM     24  C   UNL     1      34.732 -15.465 -20.290  0.00  0.00    -0.021 C 
BRANCH  22  25
ATOM     25  C   UNL     1      34.223 -17.017 -22.265  0.00  0.00    +0.007 C 
BRANCH  25  26
ATOM     26  C   UNL     1      34.598 -18.280 -21.526  0.00  0.00    -0.024 C 
ATOM     27  C   UNL     1      35.935 -18.558 -21.295  0.00  0.00    -0.001 C 
ATOM     28  C   UNL     1      33.598 -19.135 -21.094  0.00  0.00    -0.001 C 
ATOM     29  C   UNL     1      36.282 -19.723 -20.611  0.00  0.00    +0.037 C 
ATOM     30  C   UNL     1      33.944 -20.300 -20.411  0.00  0.00    +0.037 C 
ATOM     31  C   UNL     1      35.287 -20.595 -20.169  0.00  0.00    +0.139 C 
BRANCH  31  32
ATOM     32  O   UNL     1      35.625 -21.732 -19.503  0.00  0.00    -0.471 OA
ATOM     33  C   UNL     1      36.542 -21.600 -18.417  0.00  0.00    +0.252 C 
ENDBRANCH  31  32
ENDBRANCH  25  26
ENDBRANCH  22  25
ENDBRANCH  19  22
ENDBRANCH  18  19
ENDBRANCH   1  18
TORSDOF 9
ENDMDL
MODEL 4
REMARK VINA RESULT:      -9.9      2.567      9.717
REMARK  Name = 11504295
REMARK  9 active torsions:
REMARK  status: ('A' for Active; 'I' for Inactive)
REMARK    1  A    between atoms: C_1  and  C_5
REMARK    2  A    between atoms: C_1  and  O_16
REMARK    3  A    between atoms: C_1  and  C_18
REMARK    4  A    between atoms: C_9  and  O_14
REMARK    5  A    between atoms: C_18  and  N_19
REMARK    6  A    between atoms: N_19  and  C_22
REMARK    7  A    between atoms: C_22  and  C_25
REMARK    8  A    between atoms: C_25  and  C_26
REMARK    9  A    between atoms: C_31  and  O_32
REMARK                            x       y       z     vdW  Elec       q    Type
REMARK                         _______ _______ _______ _____ _____    ______ ____
ROOT
ATOM      1  C   UNL     1      34.882 -16.168 -21.324  0.00  0.00    +0.115 C 
ENDROOT
BRANCH   1   5
ATOM      2  O   UNL     1      33.273 -13.909 -20.980  0.00  0.00    -0.465 OA
ATOM      3  O   UNL     1      31.087 -11.110 -21.649  0.00  0.00    -0.271 OA
ATOM      4  N   UNL     1      31.981 -12.617 -23.139  0.00  0.00    -0.278 N 
ATOM      5  C   UNL     1      34.192 -15.494 -22.465  0.00  0.00    +0.040 C 
ATOM      6  C   UNL     1      33.375 -14.383 -22.258  0.00  0.00    +0.151 C 
ATOM      7  C   UNL     1      34.373 -15.994 -23.755  0.00  0.00    +0.038 C 
ATOM      8  C   UNL     1      32.757 -13.762 -23.342  0.00  0.00    +0.088 C 
ATOM      9  C   UNL     1      33.749 -15.374 -24.838  0.00  0.00    +0.135 C 
ATOM     10  C   UNL     1      32.945 -14.252 -24.636  0.00  0.00    +0.054 C 
ATOM     11  C   UNL     1      32.150 -13.078 -20.759  0.00  0.00    +0.290 C 
ATOM     12  C   UNL     1      31.706 -12.148 -21.875  0.00  0.00    +0.271 C 
ATOM     13  H   UNL     1      31.623 -12.134 -23.919  0.00  0.00    +0.155 HD
BRANCH   9  14
ATOM     14  O   UNL     1      33.933 -15.861 -26.097  0.00  0.00    -0.505 OA
ATOM     15  H   UNL     1      34.322 -16.703 -26.221  0.00  0.00    +0.292 HD
ENDBRANCH   9  14
ENDBRANCH   1   5
BRANCH   1  16
ATOM     16  O   UNL     1      33.926 -16.422 -20.287  0.00  0.00    -0.382 OA
ATOM     17  H   UNL     1      33.044 -16.150 -20.586  0.00  0.00    +0.211 HD
ENDBRANCH   1  16
BRANCH   1  18
ATOM     18  C   UNL     1      35.548 -17.492 -21.748  0.00  0.00    -0.047 C 
BRANCH  18  19
ATOM     19  N   UNL     1      35.402 -18.518 -20.719  0.00  0.00    +0.388 N 
ATOM     20  H   UNL     1      36.322 -18.750 -20.345  0.00  0.00    -0.084 HD
ATOM     21  H   UNL     1      34.798 -18.158 -19.981  0.00  0.00    -0.084 HD
BRANCH  19  22
ATOM     22  C   UNL     1      34.797 -19.721 -21.272  0.00  0.00    -0.042 C 
ATOM     23  C   UNL     1      34.684 -19.515 -22.789  0.00  0.00    -0.021 C 
ATOM     24  C   UNL     1      33.396 -19.847 -20.659  0.00  0.00    -0.021 C 
BRANCH  22  25
ATOM     25  C   UNL     1      35.710 -20.921 -20.908  0.00  0.00    +0.007 C 
BRANCH  25  26
ATOM     26  C   UNL     1      35.506 -21.527 -19.539  0.00  0.00    -0.024 C 
ATOM     27  C   UNL     1      34.322 -22.189 -19.261  0.00  0.00    -0.001 C 
ATOM     28  C   UNL     1      36.508 -21.409 -18.589  0.00  0.00    -0.001 C 
ATOM     29  C   UNL     1      34.133 -22.750 -17.998  0.00  0.00    +0.037 C 
ATOM     30  C   UNL     1      36.319 -21.969 -17.326  0.00  0.00    +0.037 C 
ATOM     31  C   UNL     1      35.131 -22.640 -17.030  0.00  0.00    +0.139 C 
BRANCH  31  32
ATOM     32  O   UNL     1      34.947 -23.187 -15.797  0.00  0.00    -0.471 OA
ATOM     33  C   UNL     1      33.602 -23.438 -15.393  0.00  0.00    +0.252 C 
ENDBRANCH  31  32
ENDBRANCH  25  26
ENDBRANCH  22  25
ENDBRANCH  19  22
ENDBRANCH  18  19
ENDBRANCH   1  18
TORSDOF 9
ENDMDL
MODEL 5
REMARK VINA RESULT:      -9.8      4.056     11.257
REMARK  Name = 11504295
REMARK  9 active torsions:
REMARK  status: ('A' for Active; 'I' for Inactive)
REMARK    1  A    between atoms: C_1  and  C_5
REMARK    2  A    between atoms: C_1  and  O_16
REMARK    3  A    between atoms: C_1  and  C_18
REMARK    4  A    between atoms: C_9  and  O_14
REMARK    5  A    between atoms: C_18  and  N_19
REMARK    6  A    between atoms: N_19  and  C_22
REMARK    7  A    between atoms: C_22  and  C_25
REMARK    8  A    between atoms: C_25  and  C_26
REMARK    9  A    between atoms: C_31  and  O_32
REMARK                            x       y       z     vdW  Elec       q    Type
REMARK                         _______ _______ _______ _____ _____    ______ ____
ROOT
ATOM      1  C   UNL     1      32.895 -12.951 -23.606  0.00  0.00    +0.115 C 
ENDROOT
BRANCH   1   5
ATOM      2  O   UNL     1      33.912 -10.431 -24.260  0.00  0.00    -0.465 OA
ATOM      3  O   UNL     1      34.620  -6.888 -24.202  0.00  0.00    -0.271 OA
ATOM      4  N   UNL     1      33.274  -8.103 -22.786  0.00  0.00    -0.278 N 
ATOM      5  C   UNL     1      32.565 -11.725 -22.819  0.00  0.00    +0.040 C 
ATOM      6  C   UNL     1      33.108 -10.485 -23.156  0.00  0.00    +0.151 C 
ATOM      7  C   UNL     1      31.699 -11.832 -21.730  0.00  0.00    +0.038 C 
ATOM      8  C   UNL     1      32.770  -9.353 -22.416  0.00  0.00    +0.088 C 
ATOM      9  C   UNL     1      31.367 -10.699 -20.987  0.00  0.00    +0.135 C 
ATOM     10  C   UNL     1      31.895  -9.455 -21.332  0.00  0.00    +0.054 C 
ATOM     11  C   UNL     1      34.745  -9.289 -24.315  0.00  0.00    +0.290 C 
ATOM     12  C   UNL     1      34.200  -7.970 -23.796  0.00  0.00    +0.271 C 
ATOM     13  H   UNL     1      32.960  -7.298 -22.314  0.00  0.00    +0.155 HD
BRANCH   9  14
ATOM     14  O   UNL     1      30.516 -10.806 -19.929  0.00  0.00    -0.505 OA
ATOM     15  H   UNL     1      29.592 -10.731 -20.061  0.00  0.00    +0.292 HD
ENDBRANCH   9  14
ENDBRANCH   1   5
BRANCH   1  16
ATOM     16  O   UNL     1      34.232 -12.836 -24.107  0.00  0.00    -0.382 OA
ATOM     17  H   UNL     1      34.640 -13.716 -24.143  0.00  0.00    +0.211 HD
ENDBRANCH   1  16
BRANCH   1  18
ATOM     18  C   UNL     1      32.768 -14.234 -22.762  0.00  0.00    -0.047 C 
BRANCH  18  19
ATOM     19  N   UNL     1      34.068 -14.682 -22.270  0.00  0.00    +0.388 N 
ATOM     20  H   UNL     1      34.669 -14.900 -23.066  0.00  0.00    -0.084 HD
ATOM     21  H   UNL     1      34.479 -13.939 -21.707  0.00  0.00    -0.084 HD
BRANCH  19  22
ATOM     22  C   UNL     1      33.925 -15.870 -21.442  0.00  0.00    -0.042 C 
ATOM     23  C   UNL     1      32.451 -15.956 -21.023  0.00  0.00    -0.021 C 
ATOM     24  C   UNL     1      34.807 -15.668 -20.203  0.00  0.00    -0.021 C 
BRANCH  22  25
ATOM     25  C   UNL     1      34.369 -17.093 -22.288  0.00  0.00    +0.007 C 
BRANCH  25  26
ATOM     26  C   UNL     1      34.733 -18.342 -21.521  0.00  0.00    -0.024 C 
ATOM     27  C   UNL     1      33.726 -19.184 -21.080  0.00  0.00    -0.001 C 
ATOM     28  C   UNL     1      36.067 -18.620 -21.273  0.00  0.00    -0.001 C 
ATOM     29  C   UNL     1      34.063 -20.338 -20.372  0.00  0.00    +0.037 C 
ATOM     30  C   UNL     1      36.404 -19.773 -20.565  0.00  0.00    +0.037 C 
ATOM     31  C   UNL     1      35.401 -20.633 -20.114  0.00  0.00    +0.139 C 
BRANCH  31  32
ATOM     32  O   UNL     1      35.729 -21.759 -19.422  0.00  0.00    -0.471 OA
ATOM     33  C   UNL     1      36.559 -21.596 -18.273  0.00  0.00    +0.252 C 
ENDBRANCH  31  32
ENDBRANCH  25  26
ENDBRANCH  22  25
ENDBRANCH  19  22
ENDBRANCH  18  19
ENDBRANCH   1  18
TORSDOF 9
ENDMDL
MODEL 6
REMARK VINA RESULT:      -9.8      1.095      2.894
REMARK  Name = 11504295
REMARK  9 active torsions:
REMARK  status: ('A' for Active; 'I' for Inactive)
REMARK    1  A    between atoms: C_1  and  C_5
REMARK    2  A    between atoms: C_1  and  O_16
REMARK    3  A    between atoms: C_1  and  C_18
REMARK    4  A    between atoms: C_9  and  O_14
REMARK    5  A    between atoms: C_18  and  N_19
REMARK    6  A    between atoms: N_19  and  C_22
REMARK    7  A    between atoms: C_22  and  C_25
REMARK    8  A    between atoms: C_25  and  C_26
REMARK    9  A    between atoms: C_31  and  O_32
REMARK                            x       y       z     vdW  Elec       q    Type
REMARK                         _______ _______ _______ _____ _____    ______ ____
ROOT
ATOM      1  C   UNL     1      34.886 -22.314 -19.389  0.00  0.00    +0.115 C 
ENDROOT
BRANCH   1   5
ATOM      2  O   UNL     1      32.888 -23.170 -17.634  0.00  0.00    -0.465 OA
ATOM      3  O   UNL     1      31.137 -24.134 -14.623  0.00  0.00    -0.271 OA
ATOM      4  N   UNL     1      33.329 -23.477 -14.857  0.00  0.00    -0.278 N 
ATOM      5  C   UNL     1      35.120 -22.465 -17.922  0.00  0.00    +0.040 C 
ATOM      6  C   UNL     1      34.095 -22.870 -17.067  0.00  0.00    +0.151 C 
ATOM      7  C   UNL     1      36.387 -22.191 -17.407  0.00  0.00    +0.038 C 
ATOM      8  C   UNL     1      34.343 -23.020 -15.704  0.00  0.00    +0.088 C 
ATOM      9  C   UNL     1      36.633 -22.337 -16.041  0.00  0.00    +0.135 C 
ATOM     10  C   UNL     1      35.614 -22.759 -15.187  0.00  0.00    +0.054 C 
ATOM     11  C   UNL     1      31.804 -23.168 -16.724  0.00  0.00    +0.290 C 
ATOM     12  C   UNL     1      32.045 -23.670 -15.311  0.00  0.00    +0.271 C 
ATOM     13  H   UNL     1      33.539 -23.666 -13.913  0.00  0.00    +0.155 HD
BRANCH   9  14
ATOM     14  O   UNL     1      37.873 -22.076 -15.542  0.00  0.00    -0.505 OA
ATOM     15  H   UNL     1      38.481 -21.568 -16.042  0.00  0.00    +0.292 HD
ENDBRANCH   9  14
ENDBRANCH   1   5
BRANCH   1  16
ATOM     16  O   UNL     1      33.991 -23.344 -19.826  0.00  0.00    -0.382 OA
ATOM     17  H   UNL     1      33.886 -23.294 -20.790  0.00  0.00    +0.211 HD
ENDBRANCH   1  16
BRANCH   1  18
ATOM     18  C   UNL     1      34.299 -20.935 -19.746  0.00  0.00    -0.047 C 
BRANCH  18  19
ATOM     19  N   UNL     1      35.297 -20.073 -20.374  0.00  0.00    +0.388 N 
ATOM     20  H   UNL     1      35.846 -19.612 -19.647  0.00  0.00    -0.084 HD
ATOM     21  H   UNL     1      35.900 -20.647 -20.963  0.00  0.00    -0.084 HD
BRANCH  19  22
ATOM     22  C   UNL     1      34.659 -19.062 -21.203  0.00  0.00    -0.042 C 
ATOM     23  C   UNL     1      33.164 -19.071 -20.857  0.00  0.00    -0.021 C 
ATOM     24  C   UNL     1      34.857 -19.482 -22.665  0.00  0.00    -0.021 C 
BRANCH  22  25
ATOM     25  C   UNL     1      35.328 -17.698 -20.885  0.00  0.00    +0.007 C 
BRANCH  25  26
ATOM     26  C   UNL     1      34.674 -16.476 -21.485  0.00  0.00    -0.024 C 
ATOM     27  C   UNL     1      33.936 -15.634 -20.671  0.00  0.00    -0.001 C 
ATOM     28  C   UNL     1      34.826 -16.222 -22.838  0.00  0.00    -0.001 C 
ATOM     29  C   UNL     1      33.333 -14.504 -21.224  0.00  0.00    +0.037 C 
ATOM     30  C   UNL     1      34.223 -15.093 -23.392  0.00  0.00    +0.037 C 
ATOM     31  C   UNL     1      33.476 -14.233 -22.585  0.00  0.00    +0.139 C 
BRANCH  31  32
ATOM     32  O   UNL     1      32.887 -13.132 -23.125  0.00  0.00    -0.471 OA
ATOM     33  C   UNL     1      33.672 -12.353 -24.028  0.00  0.00    +0.252 C 
ENDBRANCH  31  32
ENDBRANCH  25  26
ENDBRANCH  22  25
ENDBRANCH  19  22
ENDBRANCH  18  19
ENDBRANCH   1  18
TORSDOF 9
ENDMDL
MODEL 7
REMARK VINA RESULT:      -9.6      2.510      9.736
REMARK  Name = 11504295
REMARK  9 active torsions:
REMARK  status: ('A' for Active; 'I' for Inactive)
REMARK    1  A    between atoms: C_1  and  C_5
REMARK    2  A    between atoms: C_1  and  O_16
REMARK    3  A    between atoms: C_1  and  C_18
REMARK    4  A    between atoms: C_9  and  O_14
REMARK    5  A    between atoms: C_18  and  N_19
REMARK    6  A    between atoms: N_19  and  C_22
REMARK    7  A    between atoms: C_22  and  C_25
REMARK    8  A    between atoms: C_25  and  C_26
REMARK    9  A    between atoms: C_31  and  O_32
REMARK                            x       y       z     vdW  Elec       q    Type
REMARK                         _______ _______ _______ _____ _____    ______ ____
ROOT
ATOM      1  C   UNL     1      34.689 -16.100 -21.066  0.00  0.00    +0.115 C 
ENDROOT
BRANCH   1   5
ATOM      2  O   UNL     1      34.316 -16.099 -23.836  0.00  0.00    -0.465 OA
ATOM      3  O   UNL     1      33.205 -15.202 -27.155  0.00  0.00    -0.271 OA
ATOM      4  N   UNL     1      32.688 -14.197 -25.151  0.00  0.00    -0.278 N 
ATOM      5  C   UNL     1      33.838 -15.087 -21.760  0.00  0.00    +0.040 C 
ATOM      6  C   UNL     1      33.691 -15.098 -23.146  0.00  0.00    +0.151 C 
ATOM      7  C   UNL     1      33.185 -14.117 -20.998  0.00  0.00    +0.038 C 
ATOM      8  C   UNL     1      32.876 -14.152 -23.767  0.00  0.00    +0.088 C 
ATOM      9  C   UNL     1      32.374 -13.169 -21.622  0.00  0.00    +0.135 C 
ATOM     10  C   UNL     1      32.212 -13.187 -23.007  0.00  0.00    +0.054 C 
ATOM     11  C   UNL     1      34.481 -15.836 -25.216  0.00  0.00    +0.290 C 
ATOM     12  C   UNL     1      33.385 -15.079 -25.945  0.00  0.00    +0.271 C 
ATOM     13  H   UNL     1      32.042 -13.582 -25.569  0.00  0.00    +0.155 HD
BRANCH   9  14
ATOM     14  O   UNL     1      31.733 -12.227 -20.875  0.00  0.00    -0.505 OA
ATOM     15  H   UNL     1      31.061 -11.701 -21.262  0.00  0.00    +0.292 HD
ENDBRANCH   9  14
ENDBRANCH   1   5
BRANCH   1  16
ATOM     16  O   UNL     1      35.016 -15.616 -19.758  0.00  0.00    -0.382 OA
ATOM     17  H   UNL     1      34.796 -16.292 -19.098  0.00  0.00    +0.211 HD
ENDBRANCH   1  16
BRANCH   1  18
ATOM     18  C   UNL     1      33.987 -17.467 -20.950  0.00  0.00    -0.047 C 
BRANCH  18  19
ATOM     19  N   UNL     1      34.933 -18.528 -20.612  0.00  0.00    +0.388 N 
ATOM     20  H   UNL     1      35.870 -18.245 -20.901  0.00  0.00    -0.084 HD
ATOM     21  H   UNL     1      34.904 -18.683 -19.605  0.00  0.00    -0.084 HD
BRANCH  19  22
ATOM     22  C   UNL     1      34.581 -19.768 -21.286  0.00  0.00    -0.042 C 
ATOM     23  C   UNL     1      34.554 -19.472 -22.792  0.00  0.00    -0.021 C 
ATOM     24  C   UNL     1      33.177 -20.161 -20.809  0.00  0.00    -0.021 C 
BRANCH  22  25
ATOM     25  C   UNL     1      35.650 -20.829 -20.914  0.00  0.00    +0.007 C 
BRANCH  25  26
ATOM     26  C   UNL     1      35.518 -21.462 -19.548  0.00  0.00    -0.024 C 
ATOM     27  C   UNL     1      36.572 -21.371 -18.655  0.00  0.00    -0.001 C 
ATOM     28  C   UNL     1      34.345 -22.121 -19.217  0.00  0.00    -0.001 C 
ATOM     29  C   UNL     1      36.450 -21.954 -17.394  0.00  0.00    +0.037 C 
ATOM     30  C   UNL     1      34.224 -22.705 -17.956  0.00  0.00    +0.037 C 
ATOM     31  C   UNL     1      35.277 -22.622 -17.044  0.00  0.00    +0.139 C 
BRANCH  31  32
ATOM     32  O   UNL     1      35.158 -23.191 -15.814  0.00  0.00    -0.471 OA
ATOM     33  C   UNL     1      36.343 -23.736 -15.234  0.00  0.00    +0.252 C 
ENDBRANCH  31  32
ENDBRANCH  25  26
ENDBRANCH  22  25
ENDBRANCH  19  22
ENDBRANCH  18  19
ENDBRANCH   1  18
TORSDOF 9
ENDMDL
MODEL 8
REMARK VINA RESULT:      -9.5      1.634      3.256
REMARK  Name = 11504295
REMARK  9 active torsions:
REMARK  status: ('A' for Active; 'I' for Inactive)
REMARK    1  A    between atoms: C_1  and  C_5
REMARK    2  A    between atoms: C_1  and  O_16
REMARK    3  A    between atoms: C_1  and  C_18
REMARK    4  A    between atoms: C_9  and  O_14
REMARK    5  A    between atoms: C_18  and  N_19
REMARK    6  A    between atoms: N_19  and  C_22
REMARK    7  A    between atoms: C_22  and  C_25
REMARK    8  A    between atoms: C_25  and  C_26
REMARK    9  A    between atoms: C_31  and  O_32
REMARK                            x       y       z     vdW  Elec       q    Type
REMARK                         _______ _______ _______ _____ _____    ______ ____
ROOT
ATOM      1  C   UNL     1      34.108 -21.714 -19.658  0.00  0.00    +0.115 C 
ENDROOT
BRANCH   1   5
ATOM      2  O   UNL     1      32.387 -22.892 -17.797  0.00  0.00    -0.465 OA
ATOM      3  O   UNL     1      31.110 -24.431 -14.788  0.00  0.00    -0.271 OA
ATOM      4  N   UNL     1      33.260 -23.759 -15.251  0.00  0.00    -0.278 N 
ATOM      5  C   UNL     1      34.570 -22.161 -18.309  0.00  0.00    +0.040 C 
ATOM      6  C   UNL     1      33.681 -22.723 -17.393  0.00  0.00    +0.151 C 
ATOM      7  C   UNL     1      35.915 -22.007 -17.970  0.00  0.00    +0.038 C 
ATOM      8  C   UNL     1      34.141 -23.148 -16.148  0.00  0.00    +0.088 C 
ATOM      9  C   UNL     1      36.372 -22.429 -16.721  0.00  0.00    +0.135 C 
ATOM     10  C   UNL     1      35.489 -23.006 -15.809  0.00  0.00    +0.054 C 
ATOM     11  C   UNL     1      31.466 -23.065 -16.737  0.00  0.00    +0.290 C 
ATOM     12  C   UNL     1      31.912 -23.845 -15.512  0.00  0.00    +0.271 C 
ATOM     13  H   UNL     1      33.612 -24.136 -14.412  0.00  0.00    +0.155 HD
BRANCH   9  14
ATOM     14  O   UNL     1      37.687 -22.284 -16.395  0.00  0.00    -0.505 OA
ATOM     15  H   UNL     1      38.001 -22.595 -15.570  0.00  0.00    +0.292 HD
ENDBRANCH   9  14
ENDBRANCH   1   5
BRANCH   1  16
ATOM     16  O   UNL     1      32.957 -20.876 -19.501  0.00  0.00    -0.382 OA
ATOM     17  H   UNL     1      32.387 -21.236 -18.803  0.00  0.00    +0.211 HD
ENDBRANCH   1  16
BRANCH   1  18
ATOM     18  C   UNL     1      35.204 -20.948 -20.423  0.00  0.00    -0.047 C 
BRANCH  18  19
ATOM     19  N   UNL     1      34.664 -20.271 -21.599  0.00  0.00    +0.388 N 
ATOM     20  H   UNL     1      34.914 -20.802 -22.434  0.00  0.00    -0.084 HD
ATOM     21  H   UNL     1      33.651 -20.212 -21.506  0.00  0.00    -0.084 HD
BRANCH  19  22
ATOM     22  C   UNL     1      35.202 -18.924 -21.713  0.00  0.00    -0.042 C 
ATOM     23  C   UNL     1      36.487 -18.877 -20.875  0.00  0.00    -0.021 C 
ATOM     24  C   UNL     1      34.159 -17.968 -21.121  0.00  0.00    -0.021 C 
BRANCH  22  25
ATOM     25  C   UNL     1      35.469 -18.647 -23.217  0.00  0.00    +0.007 C 
BRANCH  25  26
ATOM     26  C   UNL     1      34.893 -17.367 -23.775  0.00  0.00    -0.024 C 
ATOM     27  C   UNL     1      34.249 -17.391 -25.000  0.00  0.00    -0.001 C 
ATOM     28  C   UNL     1      35.022 -16.194 -23.049  0.00  0.00    -0.001 C 
ATOM     29  C   UNL     1      33.716 -16.209 -25.515  0.00  0.00    +0.037 C 
ATOM     30  C   UNL     1      34.490 -15.012 -23.564  0.00  0.00    +0.037 C 
ATOM     31  C   UNL     1      33.837 -15.019 -24.797  0.00  0.00    +0.139 C 
BRANCH  31  32
ATOM     32  O   UNL     1      33.318 -13.866 -25.300  0.00  0.00    -0.471 OA
ATOM     33  C   UNL     1      32.970 -13.860 -26.684  0.00  0.00    +0.252 C 
ENDBRANCH  31  32
ENDBRANCH  25  26
ENDBRANCH  22  25
ENDBRANCH  19  22
ENDBRANCH  18  19
ENDBRANCH   1  18
TORSDOF 9
ENDMDL
MODEL 9
REMARK VINA RESULT:      -9.5      2.678      4.637
REMARK  Name = 11504295
REMARK  9 active torsions:
REMARK  status: ('A' for Active; 'I' for Inactive)
REMARK    1  A    between atoms: C_1  and  C_5
REMARK    2  A    between atoms: C_1  and  O_16
REMARK    3  A    between atoms: C_1  and  C_18
REMARK    4  A    between atoms: C_9  and  O_14
REMARK    5  A    between atoms: C_18  and  N_19
REMARK    6  A    between atoms: N_19  and  C_22
REMARK    7  A    between atoms: C_22  and  C_25
REMARK    8  A    between atoms: C_25  and  C_26
REMARK    9  A    between atoms: C_31  and  O_32
REMARK                            x       y       z     vdW  Elec       q    Type
REMARK                         _______ _______ _______ _____ _____    ______ ____
ROOT
ATOM      1  C   UNL     1      36.495 -22.634 -15.769  0.00  0.00    +0.115 C 
ENDROOT
BRANCH   1   5
ATOM      2  O   UNL     1      38.844 -24.098 -15.381  0.00  0.00    -0.465 OA
ATOM      3  O   UNL     1      41.264 -26.425 -14.045  0.00  0.00    -0.271 OA
ATOM      4  N   UNL     1      39.128 -25.999 -13.307  0.00  0.00    -0.278 N 
ATOM      5  C   UNL     1      36.638 -23.646 -14.679  0.00  0.00    +0.040 C 
ATOM      6  C   UNL     1      37.815 -24.379 -14.527  0.00  0.00    +0.151 C 
ATOM      7  C   UNL     1      35.570 -23.856 -13.806  0.00  0.00    +0.038 C 
ATOM      8  C   UNL     1      37.929 -25.304 -13.491  0.00  0.00    +0.088 C 
ATOM      9  C   UNL     1      35.684 -24.786 -12.773  0.00  0.00    +0.135 C 
ATOM     10  C   UNL     1      36.866 -25.508 -12.608  0.00  0.00    +0.054 C 
ATOM     11  C   UNL     1      39.825 -25.114 -15.461  0.00  0.00    +0.290 C 
ATOM     12  C   UNL     1      40.169 -25.888 -14.199  0.00  0.00    +0.271 C 
ATOM     13  H   UNL     1      39.230 -26.584 -12.521  0.00  0.00    +0.155 HD
BRANCH   9  14
ATOM     14  O   UNL     1      34.642 -24.984 -11.918  0.00  0.00    -0.505 OA
ATOM     15  H   UNL     1      34.748 -25.540 -11.172  0.00  0.00    +0.292 HD
ENDBRANCH   9  14
ENDBRANCH   1   5
BRANCH   1  16
ATOM     16  O   UNL     1      37.389 -22.971 -16.837  0.00  0.00    -0.382 OA
ATOM     17  H   UNL     1      36.889 -23.385 -17.559  0.00  0.00    +0.211 HD
ENDBRANCH   1  16
BRANCH   1  18
ATOM     18  C   UNL     1      35.052 -22.561 -16.307  0.00  0.00    -0.047 C 
BRANCH  18  19
ATOM     19  N   UNL     1      35.030 -22.335 -17.750  0.00  0.00    +0.388 N 
ATOM     20  H   UNL     1      35.132 -21.336 -17.934  0.00  0.00    -0.084 HD
ATOM     21  H   UNL     1      35.797 -22.854 -18.174  0.00  0.00    -0.084 HD
BRANCH  19  22
ATOM     22  C   UNL     1      33.777 -22.799 -18.326  0.00  0.00    -0.042 C 
ATOM     23  C   UNL     1      32.981 -23.469 -17.198  0.00  0.00    -0.021 C 
ATOM     24  C   UNL     1      34.128 -23.835 -19.402  0.00  0.00    -0.021 C 
BRANCH  22  25
ATOM     25  C   UNL     1      33.041 -21.565 -18.914  0.00  0.00    +0.007 C 
BRANCH  25  26
ATOM     26  C   UNL     1      33.806 -20.749 -19.928  0.00  0.00    -0.024 C 
ATOM     27  C   UNL     1      35.191 -20.758 -19.900  0.00  0.00    -0.001 C 
ATOM     28  C   UNL     1      33.108 -20.007 -20.866  0.00  0.00    -0.001 C 
ATOM     29  C   UNL     1      35.897 -20.004 -20.837  0.00  0.00    +0.037 C 
ATOM     30  C   UNL     1      33.815 -19.253 -21.803  0.00  0.00    +0.037 C 
ATOM     31  C   UNL     1      35.210 -19.251 -21.789  0.00  0.00    +0.139 C 
BRANCH  31  32
ATOM     32  O   UNL     1      35.900 -18.516 -22.703  0.00  0.00    -0.471 OA
ATOM     33  C   UNL     1      35.185 -17.482 -23.377  0.00  0.00    +0.252 C 
ENDBRANCH  31  32
ENDBRANCH  25  26
ENDBRANCH  22  25
ENDBRANCH  19  22
ENDBRANCH  18  19
ENDBRANCH   1  18
TORSDOF 9
ENDMDL
