MODEL 1
REMARK VINA RESULT:      -3.6      0.000      0.000
REMARK  Name = 176
REMARK  1 active torsions:
REMARK  status: ('A' for Active; 'I' for Inactive)
REMARK    1  A    between atoms: C_3  and  O_4
REMARK                            x       y       z     vdW  Elec       q    Type
REMARK                         _______ _______ _______ _____ _____    ______ ____
ROOT
ATOM      1  O   UNL     1      41.278 -26.728 -14.081  0.00  0.00    -0.250 OA
ATOM      2  C   UNL     1      39.318 -25.322 -13.978  0.00  0.00    +0.121 C 
ATOM      3  C   UNL     1      40.433 -26.055 -14.653  0.00  0.00    +0.314 C 
ENDROOT
BRANCH   3   4
ATOM      4  O   UNL     1      40.384 -25.870 -15.995  0.00  0.00    -0.480 OA
ATOM      5  H   UNL     1      40.392 -26.609 -16.571  0.00  0.00    +0.295 HD
ENDBRANCH   3   4
TORSDOF 1
ENDMDL
MODEL 2
REMARK VINA RESULT:      -3.3     12.381     12.914
REMARK  Name = 176
REMARK  1 active torsions:
REMARK  status: ('A' for Active; 'I' for Inactive)
REMARK    1  A    between atoms: C_3  and  O_4
REMARK                            x       y       z     vdW  Elec       q    Type
REMARK                         _______ _______ _______ _____ _____    ______ ____
ROOT
ATOM      1  O   UNL     1      29.302 -22.366 -17.084  0.00  0.00    -0.250 OA
ATOM      2  C   UNL     1      27.224 -22.315 -15.856  0.00  0.00    +0.121 C 
ATOM      3  C   UNL     1      28.170 -22.793 -16.911  0.00  0.00    +0.314 C 
ENDROOT
BRANCH   3   4
ATOM      4  O   UNL     1      27.600 -23.769 -17.658  0.00  0.00    -0.480 OA
ATOM      5  H   UNL     1      28.011 -24.608 -17.728  0.00  0.00    +0.295 HD
ENDBRANCH   3   4
TORSDOF 1
ENDMDL
MODEL 3
REMARK VINA RESULT:      -3.3     12.852     13.320
REMARK  Name = 176
REMARK  1 active torsions:
REMARK  status: ('A' for Active; 'I' for Inactive)
REMARK    1  A    between atoms: C_3  and  O_4
REMARK                            x       y       z     vdW  Elec       q    Type
REMARK                         _______ _______ _______ _____ _____    ______ ____
ROOT
ATOM      1  O   UNL     1      27.632 -23.654 -17.673  0.00  0.00    -0.250 OA
ATOM      2  C   UNL     1      28.553 -22.520 -15.751  0.00  0.00    +0.121 C 
ATOM      3  C   UNL     1      27.748 -22.637 -17.006  0.00  0.00    +0.314 C 
ENDROOT
BRANCH   3   4
ATOM      4  O   UNL     1      27.161 -21.453 -17.310  0.00  0.00    -0.480 OA
ATOM      5  H   UNL     1      26.421 -21.156 -16.818  0.00  0.00    +0.295 HD
ENDBRANCH   3   4
TORSDOF 1
ENDMDL
MODEL 4
REMARK VINA RESULT:      -3.3     10.122     10.435
REMARK  Name = 176
REMARK  1 active torsions:
REMARK  status: ('A' for Active; 'I' for Inactive)
REMARK    1  A    between atoms: C_3  and  O_4
REMARK                            x       y       z     vdW  Elec       q    Type
REMARK                         _______ _______ _______ _____ _____    ______ ____
ROOT
ATOM      1  O   UNL     1      42.277 -16.557 -15.640  0.00  0.00    -0.250 OA
ATOM      2  C   UNL     1      41.229 -14.664 -16.709  0.00  0.00    +0.121 C 
ATOM      3  C   UNL     1      41.296 -15.846 -15.795  0.00  0.00    +0.314 C 
ENDROOT
BRANCH   3   4
ATOM      4  O   UNL     1      40.113 -16.027 -15.160  0.00  0.00    -0.480 OA
ATOM      5  H   UNL     1      40.093 -16.408 -14.305  0.00  0.00    +0.295 HD
ENDBRANCH   3   4
TORSDOF 1
ENDMDL
MODEL 5
REMARK VINA RESULT:      -3.2     12.712     13.224
REMARK  Name = 176
REMARK  1 active torsions:
REMARK  status: ('A' for Active; 'I' for Inactive)
REMARK    1  A    between atoms: C_3  and  O_4
REMARK                            x       y       z     vdW  Elec       q    Type
REMARK                         _______ _______ _______ _____ _____    ______ ____
ROOT
ATOM      1  O   UNL     1      27.298 -21.520 -17.240  0.00  0.00    -0.250 OA
ATOM      2  C   UNL     1      28.766 -22.785 -15.801  0.00  0.00    +0.121 C 
ATOM      3  C   UNL     1      27.828 -22.581 -16.948  0.00  0.00    +0.314 C 
ENDROOT
BRANCH   3   4
ATOM      4  O   UNL     1      27.639 -23.741 -17.623  0.00  0.00    -0.480 OA
ATOM      5  H   UNL     1      28.118 -23.909 -18.410  0.00  0.00    +0.295 HD
ENDBRANCH   3   4
TORSDOF 1
ENDMDL
MODEL 6
REMARK VINA RESULT:      -3.2      6.036      6.358
REMARK  Name = 176
REMARK  1 active torsions:
REMARK  status: ('A' for Active; 'I' for Inactive)
REMARK    1  A    between atoms: C_3  and  O_4
REMARK                            x       y       z     vdW  Elec       q    Type
REMARK                         _______ _______ _______ _____ _____    ______ ____
ROOT
ATOM      1  O   UNL     1      35.422 -24.539  -9.751  0.00  0.00    -0.250 OA
ATOM      2  C   UNL     1      36.669 -23.512 -11.545  0.00  0.00    +0.121 C 
ATOM      3  C   UNL     1      35.606 -24.379 -10.948  0.00  0.00    +0.314 C 
ENDROOT
BRANCH   3   4
ATOM      4  O   UNL     1      34.869 -24.970 -11.920  0.00  0.00    -0.480 OA
ATOM      5  H   UNL     1      34.948 -25.890 -12.074  0.00  0.00    +0.295 HD
ENDBRANCH   3   4
TORSDOF 1
ENDMDL
MODEL 7
REMARK VINA RESULT:      -3.1      3.458      3.639
REMARK  Name = 176
REMARK  1 active torsions:
REMARK  status: ('A' for Active; 'I' for Inactive)
REMARK    1  A    between atoms: C_3  and  O_4
REMARK                            x       y       z     vdW  Elec       q    Type
REMARK                         _______ _______ _______ _____ _____    ______ ____
ROOT
ATOM      1  O   UNL     1      37.659 -27.129 -14.232  0.00  0.00    -0.250 OA
ATOM      2  C   UNL     1      36.053 -25.508 -15.021  0.00  0.00    +0.121 C 
ATOM      3  C   UNL     1      36.929 -26.717 -15.121  0.00  0.00    +0.314 C 
ENDROOT
BRANCH   3   4
ATOM      4  O   UNL     1      36.805 -27.298 -16.339  0.00  0.00    -0.480 OA
ATOM      5  H   UNL     1      37.545 -27.352 -16.910  0.00  0.00    +0.295 HD
ENDBRANCH   3   4
TORSDOF 1
ENDMDL
MODEL 8
REMARK VINA RESULT:      -3.0     13.898     14.590
REMARK  Name = 176
REMARK  1 active torsions:
REMARK  status: ('A' for Active; 'I' for Inactive)
REMARK    1  A    between atoms: C_3  and  O_4
REMARK                            x       y       z     vdW  Elec       q    Type
REMARK                         _______ _______ _______ _____ _____    ______ ____
ROOT
ATOM      1  O   UNL     1      34.599 -16.587 -25.850  0.00  0.00    -0.250 OA
ATOM      2  C   UNL     1      34.740 -18.392 -24.253  0.00  0.00    +0.121 C 
ATOM      3  C   UNL     1      34.951 -16.999 -24.755  0.00  0.00    +0.314 C 
ENDROOT
BRANCH   3   4
ATOM      4  O   UNL     1      35.593 -16.249 -23.826  0.00  0.00    -0.480 OA
ATOM      5  H   UNL     1      36.118 -15.520 -24.093  0.00  0.00    +0.295 HD
ENDBRANCH   3   4
TORSDOF 1
ENDMDL
MODEL 9
REMARK VINA RESULT:      -3.0      4.132      4.550
REMARK  Name = 176
REMARK  1 active torsions:
REMARK  status: ('A' for Active; 'I' for Inactive)
REMARK    1  A    between atoms: C_3  and  O_4
REMARK                            x       y       z     vdW  Elec       q    Type
REMARK                         _______ _______ _______ _____ _____    ______ ____
ROOT
ATOM      1  O   UNL     1      38.565 -22.861 -11.690  0.00  0.00    -0.250 OA
ATOM      2  C   UNL     1      38.564 -24.901 -12.981  0.00  0.00    +0.121 C 
ATOM      3  C   UNL     1      38.144 -23.994 -11.868  0.00  0.00    +0.314 C 
ENDROOT
BRANCH   3   4
ATOM      4  O   UNL     1      37.229 -24.602 -11.075  0.00  0.00    -0.480 OA
ATOM      5  H   UNL     1      36.353 -24.729 -11.381  0.00  0.00    +0.295 HD
ENDBRANCH   3   4
TORSDOF 1
ENDMDL
