MODEL 1
REMARK VINA RESULT:      -9.9      0.000      0.000
REMARK  Name = 656952
REMARK  4 active torsions:
REMARK  status: ('A' for Active; 'I' for Inactive)
REMARK    1  A    between atoms: C_4  and  C_10
REMARK    2  A    between atoms: C_7  and  C_21
REMARK    3  A    between atoms: C_8  and  O_18
REMARK    4  A    between atoms: C_15  and  O_16
REMARK                            x       y       z     vdW  Elec       q    Type
REMARK                         _______ _______ _______ _____ _____    ______ ____
ROOT
ATOM      1  O   UNL     1      34.785 -18.248 -21.205  0.00  0.00    -0.453 OA
ATOM      2  C   UNL     1      34.659 -18.425 -23.454  0.00  0.00    +0.041 C 
ATOM      3  C   UNL     1      34.692 -17.551 -22.372  0.00  0.00    +0.155 C 
ATOM      4  C   UNL     1      34.813 -19.566 -21.535  0.00  0.00    +0.145 C 
ATOM      5  C   UNL     1      34.738 -19.729 -22.898  0.00  0.00    +0.041 C 
ATOM      6  C   UNL     1      34.564 -17.887 -24.749  0.00  0.00    +0.040 C 
ATOM      7  C   UNL     1      34.634 -16.164 -22.487  0.00  0.00    +0.106 C 
ATOM      8  C   UNL     1      34.505 -16.495 -24.897  0.00  0.00    +0.135 C 
ATOM      9  C   UNL     1      34.540 -15.650 -23.783  0.00  0.00    +0.050 C 
ENDROOT
BRANCH   4  10
ATOM     10  C   UNL     1      34.912 -20.474 -20.427  0.00  0.00    +0.035 C 
ATOM     11  C   UNL     1      36.156 -20.746 -19.850  0.00  0.00    +0.006 C 
ATOM     12  C   UNL     1      33.766 -21.093 -19.918  0.00  0.00    +0.006 C 
ATOM     13  C   UNL     1      36.254 -21.628 -18.773  0.00  0.00    +0.037 C 
ATOM     14  C   UNL     1      33.863 -21.975 -18.841  0.00  0.00    +0.037 C 
ATOM     15  C   UNL     1      35.107 -22.242 -18.269  0.00  0.00    +0.134 C 
BRANCH  15  16
ATOM     16  O   UNL     1      35.202 -23.102 -17.218  0.00  0.00    -0.506 OA
ATOM     17  H   UNL     1      36.024 -23.502 -17.012  0.00  0.00    +0.292 HD
ENDBRANCH  15  16
ENDBRANCH   4  10
BRANCH   8  18
ATOM     18  O   UNL     1      34.412 -15.958 -26.146  0.00  0.00    -0.505 OA
ATOM     19  H   UNL     1      34.901 -16.329 -26.853  0.00  0.00    +0.292 HD
ENDBRANCH   8  18
BRANCH   7  21
ATOM     20  N   UNL     1      34.705 -14.669 -20.371  0.00  0.00    -0.191 NA
ATOM     21  C   UNL     1      34.672 -15.343 -21.325  0.00  0.00    +0.104 C 
ENDBRANCH   7  21
TORSDOF 4
ENDMDL
MODEL 2
REMARK VINA RESULT:      -9.9      0.062      1.110
REMARK  Name = 656952
REMARK  4 active torsions:
REMARK  status: ('A' for Active; 'I' for Inactive)
REMARK    1  A    between atoms: C_4  and  C_10
REMARK    2  A    between atoms: C_7  and  C_21
REMARK    3  A    between atoms: C_8  and  O_18
REMARK    4  A    between atoms: C_15  and  O_16
REMARK                            x       y       z     vdW  Elec       q    Type
REMARK                         _______ _______ _______ _____ _____    ______ ____
ROOT
ATOM      1  O   UNL     1      34.773 -18.285 -21.174  0.00  0.00    -0.453 OA
ATOM      2  C   UNL     1      34.669 -18.462 -23.424  0.00  0.00    +0.041 C 
ATOM      3  C   UNL     1      34.695 -17.587 -22.343  0.00  0.00    +0.155 C 
ATOM      4  C   UNL     1      34.797 -19.603 -21.503  0.00  0.00    +0.145 C 
ATOM      5  C   UNL     1      34.736 -19.766 -22.867  0.00  0.00    +0.041 C 
ATOM      6  C   UNL     1      34.590 -17.924 -24.721  0.00  0.00    +0.040 C 
ATOM      7  C   UNL     1      34.646 -16.200 -22.458  0.00  0.00    +0.106 C 
ATOM      8  C   UNL     1      34.541 -16.531 -24.869  0.00  0.00    +0.135 C 
ATOM      9  C   UNL     1      34.568 -15.686 -23.756  0.00  0.00    +0.050 C 
ENDROOT
BRANCH   4  10
ATOM     10  C   UNL     1      34.880 -20.511 -20.394  0.00  0.00    +0.035 C 
ATOM     11  C   UNL     1      33.723 -21.110 -19.887  0.00  0.00    +0.006 C 
ATOM     12  C   UNL     1      36.118 -20.802 -19.813  0.00  0.00    +0.006 C 
ATOM     13  C   UNL     1      33.803 -21.992 -18.809  0.00  0.00    +0.037 C 
ATOM     14  C   UNL     1      36.199 -21.684 -18.735  0.00  0.00    +0.037 C 
ATOM     15  C   UNL     1      35.041 -22.280 -18.234  0.00  0.00    +0.134 C 
BRANCH  15  16
ATOM     16  O   UNL     1      35.120 -23.142 -17.183  0.00  0.00    -0.506 OA
ATOM     17  H   UNL     1      34.996 -24.060 -17.320  0.00  0.00    +0.292 HD
ENDBRANCH  15  16
ENDBRANCH   4  10
BRANCH   8  18
ATOM     18  O   UNL     1      34.463 -15.994 -26.119  0.00  0.00    -0.505 OA
ATOM     19  H   UNL     1      34.460 -16.554 -26.870  0.00  0.00    +0.292 HD
ENDBRANCH   8  18
BRANCH   7  21
ATOM     20  N   UNL     1      34.702 -14.705 -20.342  0.00  0.00    -0.191 NA
ATOM     21  C   UNL     1      34.677 -15.379 -21.296  0.00  0.00    +0.104 C 
ENDBRANCH   7  21
TORSDOF 4
ENDMDL
MODEL 3
REMARK VINA RESULT:      -9.3      4.282      8.800
REMARK  Name = 656952
REMARK  4 active torsions:
REMARK  status: ('A' for Active; 'I' for Inactive)
REMARK    1  A    between atoms: C_4  and  C_10
REMARK    2  A    between atoms: C_7  and  C_21
REMARK    3  A    between atoms: C_8  and  O_18
REMARK    4  A    between atoms: C_15  and  O_16
REMARK                            x       y       z     vdW  Elec       q    Type
REMARK                         _______ _______ _______ _____ _____    ______ ____
ROOT
ATOM      1  O   UNL     1      31.772 -22.291 -17.546  0.00  0.00    -0.453 OA
ATOM      2  C   UNL     1      32.617 -23.566 -15.883  0.00  0.00    +0.041 C 
ATOM      3  C   UNL     1      31.465 -23.007 -16.427  0.00  0.00    +0.155 C 
ATOM      4  C   UNL     1      33.116 -22.389 -17.721  0.00  0.00    +0.145 C 
ATOM      5  C   UNL     1      33.681 -23.159 -16.731  0.00  0.00    +0.041 C 
ATOM      6  C   UNL     1      32.500 -24.345 -14.719  0.00  0.00    +0.040 C 
ATOM      7  C   UNL     1      30.190 -23.166 -15.890  0.00  0.00    +0.106 C 
ATOM      8  C   UNL     1      31.229 -24.525 -14.155  0.00  0.00    +0.135 C 
ATOM      9  C   UNL     1      30.096 -23.944 -14.732  0.00  0.00    +0.050 C 
ENDROOT
BRANCH   4  10
ATOM     10  C   UNL     1      33.639 -21.695 -18.863  0.00  0.00    +0.035 C 
ATOM     11  C   UNL     1      32.818 -20.837 -19.602  0.00  0.00    +0.006 C 
ATOM     12  C   UNL     1      34.972 -21.871 -19.245  0.00  0.00    +0.006 C 
ATOM     13  C   UNL     1      33.325 -20.162 -20.712  0.00  0.00    +0.037 C 
ATOM     14  C   UNL     1      35.481 -21.196 -20.355  0.00  0.00    +0.037 C 
ATOM     15  C   UNL     1      34.657 -20.341 -21.088  0.00  0.00    +0.134 C 
BRANCH  15  16
ATOM     16  O   UNL     1      35.152 -19.681 -22.171  0.00  0.00    -0.506 OA
ATOM     17  H   UNL     1      35.206 -18.745 -22.166  0.00  0.00    +0.292 HD
ENDBRANCH  15  16
ENDBRANCH   4  10
BRANCH   8  18
ATOM     18  O   UNL     1      31.099 -25.276 -13.025  0.00  0.00    -0.505 OA
ATOM     19  H   UNL     1      30.573 -24.966 -12.315  0.00  0.00    +0.292 HD
ENDBRANCH   8  18
BRANCH   7  21
ATOM     20  N   UNL     1      28.141 -22.056 -17.022  0.00  0.00    -0.191 NA
ATOM     21  C   UNL     1      29.064 -22.557 -16.511  0.00  0.00    +0.104 C 
ENDBRANCH   7  21
TORSDOF 4
ENDMDL
MODEL 4
REMARK VINA RESULT:      -8.9      8.611     10.685
REMARK  Name = 656952
REMARK  4 active torsions:
REMARK  status: ('A' for Active; 'I' for Inactive)
REMARK    1  A    between atoms: C_4  and  C_10
REMARK    2  A    between atoms: C_7  and  C_21
REMARK    3  A    between atoms: C_8  and  O_18
REMARK    4  A    between atoms: C_15  and  O_16
REMARK                            x       y       z     vdW  Elec       q    Type
REMARK                         _______ _______ _______ _____ _____    ______ ____
ROOT
ATOM      1  O   UNL     1      34.416 -24.025 -13.455  0.00  0.00    -0.453 OA
ATOM      2  C   UNL     1      36.304 -24.190 -14.685  0.00  0.00    +0.041 C 
ATOM      3  C   UNL     1      35.754 -24.278 -13.411  0.00  0.00    +0.155 C 
ATOM      4  C   UNL     1      34.105 -23.775 -14.755  0.00  0.00    +0.145 C 
ATOM      5  C   UNL     1      35.225 -23.863 -15.549  0.00  0.00    +0.041 C 
ATOM      6  C   UNL     1      37.682 -24.421 -14.840  0.00  0.00    +0.040 C 
ATOM      7  C   UNL     1      36.484 -24.581 -12.264  0.00  0.00    +0.106 C 
ATOM      8  C   UNL     1      38.443 -24.729 -13.705  0.00  0.00    +0.135 C 
ATOM      9  C   UNL     1      37.853 -24.807 -12.440  0.00  0.00    +0.050 C 
ENDROOT
BRANCH   4  10
ATOM     10  C   UNL     1      32.723 -23.484 -15.011  0.00  0.00    +0.035 C 
ATOM     11  C   UNL     1      31.801 -23.465 -13.960  0.00  0.00    +0.006 C 
ATOM     12  C   UNL     1      32.288 -23.219 -16.313  0.00  0.00    +0.006 C 
ATOM     13  C   UNL     1      30.458 -23.183 -14.208  0.00  0.00    +0.037 C 
ATOM     14  C   UNL     1      30.944 -22.937 -16.562  0.00  0.00    +0.037 C 
ATOM     15  C   UNL     1      30.030 -22.918 -15.509  0.00  0.00    +0.134 C 
BRANCH  15  16
ATOM     16  O   UNL     1      28.719 -22.642 -15.751  0.00  0.00    -0.506 OA
ATOM     17  H   UNL     1      28.383 -22.689 -16.624  0.00  0.00    +0.292 HD
ENDBRANCH  15  16
ENDBRANCH   4  10
BRANCH   8  18
ATOM     18  O   UNL     1      39.781 -24.955 -13.837  0.00  0.00    -0.505 OA
ATOM     19  H   UNL     1      40.234 -24.649 -14.598  0.00  0.00    +0.292 HD
ENDBRANCH   8  18
BRANCH   7  21
ATOM     20  N   UNL     1      35.312 -24.706  -9.956  0.00  0.00    -0.191 NA
ATOM     21  C   UNL     1      35.841 -24.650 -10.996  0.00  0.00    +0.104 C 
ENDBRANCH   7  21
TORSDOF 4
ENDMDL
MODEL 5
REMARK VINA RESULT:      -8.9      2.817      3.859
REMARK  Name = 656952
REMARK  4 active torsions:
REMARK  status: ('A' for Active; 'I' for Inactive)
REMARK    1  A    between atoms: C_4  and  C_10
REMARK    2  A    between atoms: C_7  and  C_21
REMARK    3  A    between atoms: C_8  and  O_18
REMARK    4  A    between atoms: C_15  and  O_16
REMARK                            x       y       z     vdW  Elec       q    Type
REMARK                         _______ _______ _______ _____ _____    ______ ____
ROOT
ATOM      1  O   UNL     1      33.933 -16.494 -22.725  0.00  0.00    -0.453 OA
ATOM      2  C   UNL     1      33.129 -14.736 -21.556  0.00  0.00    +0.041 C 
ATOM      3  C   UNL     1      33.410 -15.239 -22.822  0.00  0.00    +0.155 C 
ATOM      4  C   UNL     1      33.988 -16.797 -21.402  0.00  0.00    +0.145 C 
ATOM      5  C   UNL     1      33.508 -15.755 -20.643  0.00  0.00    +0.041 C 
ATOM      6  C   UNL     1      32.579 -13.446 -21.453  0.00  0.00    +0.040 C 
ATOM      7  C   UNL     1      33.183 -14.544 -24.008  0.00  0.00    +0.106 C 
ATOM      8  C   UNL     1      32.339 -12.722 -22.629  0.00  0.00    +0.135 C 
ATOM      9  C   UNL     1      32.636 -13.264 -23.883  0.00  0.00    +0.050 C 
ENDROOT
BRANCH   4  10
ATOM     10  C   UNL     1      34.516 -18.095 -21.090  0.00  0.00    +0.035 C 
ATOM     11  C   UNL     1      35.898 -18.303 -21.057  0.00  0.00    +0.006 C 
ATOM     12  C   UNL     1      33.652 -19.161 -20.819  0.00  0.00    +0.006 C 
ATOM     13  C   UNL     1      36.412 -19.564 -20.754  0.00  0.00    +0.037 C 
ATOM     14  C   UNL     1      34.165 -20.422 -20.517  0.00  0.00    +0.037 C 
ATOM     15  C   UNL     1      35.545 -20.623 -20.484  0.00  0.00    +0.134 C 
BRANCH  15  16
ATOM     16  O   UNL     1      36.047 -21.854 -20.188  0.00  0.00    -0.506 OA
ATOM     17  H   UNL     1      36.007 -22.542 -20.823  0.00  0.00    +0.292 HD
ENDBRANCH  15  16
ENDBRANCH   4  10
BRANCH   8  18
ATOM     18  O   UNL     1      31.807 -11.469 -22.546  0.00  0.00    -0.505 OA
ATOM     19  H   UNL     1      31.202 -11.262 -21.861  0.00  0.00    +0.292 HD
ENDBRANCH   8  18
BRANCH   7  21
ATOM     20  N   UNL     1      33.763 -15.621 -26.292  0.00  0.00    -0.191 NA
ATOM     21  C   UNL     1      33.501 -15.135 -25.262  0.00  0.00    +0.104 C 
ENDBRANCH   7  21
TORSDOF 4
ENDMDL
MODEL 6
REMARK VINA RESULT:      -8.8      4.929      9.976
REMARK  Name = 656952
REMARK  4 active torsions:
REMARK  status: ('A' for Active; 'I' for Inactive)
REMARK    1  A    between atoms: C_4  and  C_10
REMARK    2  A    between atoms: C_7  and  C_21
REMARK    3  A    between atoms: C_8  and  O_18
REMARK    4  A    between atoms: C_15  and  O_16
REMARK                            x       y       z     vdW  Elec       q    Type
REMARK                         _______ _______ _______ _____ _____    ______ ____
ROOT
ATOM      1  O   UNL     1      36.760 -23.463 -15.931  0.00  0.00    -0.453 OA
ATOM      2  C   UNL     1      35.361 -23.763 -14.182  0.00  0.00    +0.041 C 
ATOM      3  C   UNL     1      36.640 -23.990 -14.680  0.00  0.00    +0.155 C 
ATOM      4  C   UNL     1      35.563 -22.897 -16.237  0.00  0.00    +0.145 C 
ATOM      5  C   UNL     1      34.672 -23.053 -15.200  0.00  0.00    +0.041 C 
ATOM      6  C   UNL     1      35.046 -24.237 -12.897  0.00  0.00    +0.040 C 
ATOM      7  C   UNL     1      37.641 -24.665 -13.984  0.00  0.00    +0.106 C 
ATOM      8  C   UNL     1      36.033 -24.919 -12.172  0.00  0.00    +0.135 C 
ATOM      9  C   UNL     1      37.307 -25.129 -12.708  0.00  0.00    +0.050 C 
ENDROOT
BRANCH   4  10
ATOM     10  C   UNL     1      35.489 -22.278 -17.530  0.00  0.00    +0.035 C 
ATOM     11  C   UNL     1      34.297 -22.315 -18.260  0.00  0.00    +0.006 C 
ATOM     12  C   UNL     1      36.608 -21.635 -18.069  0.00  0.00    +0.006 C 
ATOM     13  C   UNL     1      34.224 -21.713 -19.517  0.00  0.00    +0.037 C 
ATOM     14  C   UNL     1      36.535 -21.034 -19.325  0.00  0.00    +0.037 C 
ATOM     15  C   UNL     1      35.343 -21.073 -20.049  0.00  0.00    +0.134 C 
BRANCH  15  16
ATOM     16  O   UNL     1      35.272 -20.485 -21.275  0.00  0.00    -0.506 OA
ATOM     17  H   UNL     1      35.222 -21.015 -22.046  0.00  0.00    +0.292 HD
ENDBRANCH  15  16
ENDBRANCH   4  10
BRANCH   8  18
ATOM     18  O   UNL     1      35.744 -25.387 -10.924  0.00  0.00    -0.505 OA
ATOM     19  H   UNL     1      35.320 -24.828 -10.302  0.00  0.00    +0.292 HD
ENDBRANCH   8  18
BRANCH   7  21
ATOM     20  N   UNL     1      39.977 -25.010 -15.051  0.00  0.00    -0.191 NA
ATOM     21  C   UNL     1      38.923 -24.855 -14.570  0.00  0.00    +0.104 C 
ENDBRANCH   7  21
TORSDOF 4
ENDMDL
MODEL 7
REMARK VINA RESULT:      -8.7      3.701      8.633
REMARK  Name = 656952
REMARK  4 active torsions:
REMARK  status: ('A' for Active; 'I' for Inactive)
REMARK    1  A    between atoms: C_4  and  C_10
REMARK    2  A    between atoms: C_7  and  C_21
REMARK    3  A    between atoms: C_8  and  O_18
REMARK    4  A    between atoms: C_15  and  O_16
REMARK                            x       y       z     vdW  Elec       q    Type
REMARK                         _______ _______ _______ _____ _____    ______ ____
ROOT
ATOM      1  O   UNL     1      34.953 -22.541 -17.318  0.00  0.00    -0.453 OA
ATOM      2  C   UNL     1      33.086 -23.344 -16.331  0.00  0.00    +0.041 C 
ATOM      3  C   UNL     1      34.471 -23.243 -16.254  0.00  0.00    +0.155 C 
ATOM      4  C   UNL     1      33.882 -22.191 -18.077  0.00  0.00    +0.145 C 
ATOM      5  C   UNL     1      32.715 -22.658 -17.518  0.00  0.00    +0.041 C 
ATOM      6  C   UNL     1      32.405 -24.037 -15.315  0.00  0.00    +0.040 C 
ATOM      7  C   UNL     1      35.239 -23.790 -15.228  0.00  0.00    +0.106 C 
ATOM      8  C   UNL     1      33.150 -24.597 -14.269  0.00  0.00    +0.135 C 
ATOM      9  C   UNL     1      34.542 -24.475 -14.228  0.00  0.00    +0.050 C 
ENDROOT
BRANCH   4  10
ATOM     10  C   UNL     1      34.187 -21.435 -19.259  0.00  0.00    +0.035 C 
ATOM     11  C   UNL     1      33.173 -20.756 -19.941  0.00  0.00    +0.006 C 
ATOM     12  C   UNL     1      35.500 -21.372 -19.736  0.00  0.00    +0.006 C 
ATOM     13  C   UNL     1      33.469 -20.020 -21.089  0.00  0.00    +0.037 C 
ATOM     14  C   UNL     1      35.797 -20.637 -20.883  0.00  0.00    +0.037 C 
ATOM     15  C   UNL     1      34.781 -19.960 -21.559  0.00  0.00    +0.134 C 
BRANCH  15  16
ATOM     16  O   UNL     1      35.070 -19.241 -22.679  0.00  0.00    -0.506 OA
ATOM     17  H   UNL     1      34.385 -19.000 -23.271  0.00  0.00    +0.292 HD
ENDBRANCH  15  16
ENDBRANCH   4  10
BRANCH   8  18
ATOM     18  O   UNL     1      32.505 -25.274 -13.276  0.00  0.00    -0.505 OA
ATOM     19  H   UNL     1      31.569 -25.260 -13.232  0.00  0.00    +0.292 HD
ENDBRANCH   8  18
BRANCH   7  21
ATOM     20  N   UNL     1      37.815 -23.516 -15.227  0.00  0.00    -0.191 NA
ATOM     21  C   UNL     1      36.653 -23.640 -15.227  0.00  0.00    +0.104 C 
ENDBRANCH   7  21
TORSDOF 4
ENDMDL
MODEL 8
REMARK VINA RESULT:      -8.6      4.252      8.193
REMARK  Name = 656952
REMARK  4 active torsions:
REMARK  status: ('A' for Active; 'I' for Inactive)
REMARK    1  A    between atoms: C_4  and  C_10
REMARK    2  A    between atoms: C_7  and  C_21
REMARK    3  A    between atoms: C_8  and  O_18
REMARK    4  A    between atoms: C_15  and  O_16
REMARK                            x       y       z     vdW  Elec       q    Type
REMARK                         _______ _______ _______ _____ _____    ______ ____
ROOT
ATOM      1  O   UNL     1      33.662 -13.795 -22.679  0.00  0.00    -0.453 OA
ATOM      2  C   UNL     1      33.655 -14.906 -24.646  0.00  0.00    +0.041 C 
ATOM      3  C   UNL     1      33.957 -14.977 -23.290  0.00  0.00    +0.155 C 
ATOM      4  C   UNL     1      33.172 -12.967 -23.639  0.00  0.00    +0.145 C 
ATOM      5  C   UNL     1      33.146 -13.598 -24.861  0.00  0.00    +0.041 C 
ATOM      6  C   UNL     1      33.892 -16.037 -25.447  0.00  0.00    +0.040 C 
ATOM      7  C   UNL     1      34.486 -16.104 -22.665  0.00  0.00    +0.106 C 
ATOM      8  C   UNL     1      34.423 -17.186 -24.847  0.00  0.00    +0.135 C 
ATOM      9  C   UNL     1      34.715 -17.217 -23.480  0.00  0.00    +0.050 C 
ENDROOT
BRANCH   4  10
ATOM     10  C   UNL     1      32.797 -11.657 -23.186  0.00  0.00    +0.035 C 
ATOM     11  C   UNL     1      33.377 -10.521 -23.760  0.00  0.00    +0.006 C 
ATOM     12  C   UNL     1      31.850 -11.507 -22.168  0.00  0.00    +0.006 C 
ATOM     13  C   UNL     1      33.014  -9.248 -23.320  0.00  0.00    +0.037 C 
ATOM     14  C   UNL     1      31.486 -10.234 -21.728  0.00  0.00    +0.037 C 
ATOM     15  C   UNL     1      32.068  -9.105 -22.305  0.00  0.00    +0.134 C 
BRANCH  15  16
ATOM     16  O   UNL     1      31.712  -7.862 -21.877  0.00  0.00    -0.506 OA
ATOM     17  H   UNL     1      31.937  -7.109 -22.387  0.00  0.00    +0.292 HD
ENDBRANCH  15  16
ENDBRANCH   4  10
BRANCH   8  18
ATOM     18  O   UNL     1      34.660 -18.291 -25.609  0.00  0.00    -0.505 OA
ATOM     19  H   UNL     1      35.396 -18.841 -25.422  0.00  0.00    +0.292 HD
ENDBRANCH   8  18
BRANCH   7  21
ATOM     20  N   UNL     1      34.997 -16.077 -20.125  0.00  0.00    -0.191 NA
ATOM     21  C   UNL     1      34.767 -16.089 -21.270  0.00  0.00    +0.104 C 
ENDBRANCH   7  21
TORSDOF 4
ENDMDL
MODEL 9
REMARK VINA RESULT:      -8.6      4.260      8.260
REMARK  Name = 656952
REMARK  4 active torsions:
REMARK  status: ('A' for Active; 'I' for Inactive)
REMARK    1  A    between atoms: C_4  and  C_10
REMARK    2  A    between atoms: C_7  and  C_21
REMARK    3  A    between atoms: C_8  and  O_18
REMARK    4  A    between atoms: C_15  and  O_16
REMARK                            x       y       z     vdW  Elec       q    Type
REMARK                         _______ _______ _______ _____ _____    ______ ____
ROOT
ATOM      1  O   UNL     1      33.677 -13.770 -22.685  0.00  0.00    -0.453 OA
ATOM      2  C   UNL     1      33.668 -14.886 -24.650  0.00  0.00    +0.041 C 
ATOM      3  C   UNL     1      33.966 -14.955 -23.293  0.00  0.00    +0.155 C 
ATOM      4  C   UNL     1      33.193 -12.941 -23.648  0.00  0.00    +0.145 C 
ATOM      5  C   UNL     1      33.167 -13.575 -24.868  0.00  0.00    +0.041 C 
ATOM      6  C   UNL     1      33.900 -16.019 -25.448  0.00  0.00    +0.040 C 
ATOM      7  C   UNL     1      34.487 -16.084 -22.664  0.00  0.00    +0.106 C 
ATOM      8  C   UNL     1      34.424 -17.171 -24.844  0.00  0.00    +0.135 C 
ATOM      9  C   UNL     1      34.711 -17.200 -23.476  0.00  0.00    +0.050 C 
ENDROOT
BRANCH   4  10
ATOM     10  C   UNL     1      32.825 -11.628 -23.199  0.00  0.00    +0.035 C 
ATOM     11  C   UNL     1      31.888 -11.472 -22.173  0.00  0.00    +0.006 C 
ATOM     12  C   UNL     1      33.400 -10.496 -23.785  0.00  0.00    +0.006 C 
ATOM     13  C   UNL     1      31.530 -10.197 -21.736  0.00  0.00    +0.037 C 
ATOM     14  C   UNL     1      33.042  -9.220 -23.349  0.00  0.00    +0.037 C 
ATOM     15  C   UNL     1      32.108  -9.071 -22.324  0.00  0.00    +0.134 C 
BRANCH  15  16
ATOM     16  O   UNL     1      31.759  -7.826 -21.897  0.00  0.00    -0.506 OA
ATOM     17  H   UNL     1      31.082  -7.352 -22.338  0.00  0.00    +0.292 HD
ENDBRANCH  15  16
ENDBRANCH   4  10
BRANCH   8  18
ATOM     18  O   UNL     1      34.656 -18.278 -25.604  0.00  0.00    -0.505 OA
ATOM     19  H   UNL     1      35.420 -18.323 -26.144  0.00  0.00    +0.292 HD
ENDBRANCH   8  18
BRANCH   7  21
ATOM     20  N   UNL     1      34.991 -16.055 -20.123  0.00  0.00    -0.191 NA
ATOM     21  C   UNL     1      34.765 -16.068 -21.269  0.00  0.00    +0.104 C 
ENDBRANCH   7  21
TORSDOF 4
ENDMDL
