MODEL 1
REMARK VINA RESULT:      -5.8      0.000      0.000
REMARK  Name = 29435
REMARK  5 active torsions:
REMARK  status: ('A' for Active; 'I' for Inactive)
REMARK    1  A    between atoms: C_2  and  O_9
REMARK    2  A    between atoms: CA_3  and  C_15
REMARK    3  A    between atoms: C_4  and  O_11
REMARK    4  A    between atoms: C_5  and  O_13
REMARK    5  A    between atoms: C_15  and  O_16
REMARK                            x       y       z     vdW  Elec       q    Type
REMARK                         _______ _______ _______ _____ _____    ______ ____
ROOT
ATOM      1  N   UNL     1      38.613 -26.015 -12.981  0.00  0.00    +0.390 N 
ATOM      2  C   UNL     1      37.959 -24.146 -14.480  0.00  0.00    +0.123 C 
ATOM      3  CA  UNL     1      38.683 -25.500 -14.355  0.00  0.00    -0.002 C 
ATOM      4  C   UNL     1      36.517 -24.235 -13.973  0.00  0.00    +0.160 C 
ATOM      5  C   UNL     1      36.454 -24.873 -12.586  0.00  0.00    +0.118 C 
ATOM      6  C   UNL     1      37.228 -26.189 -12.551  0.00  0.00    -0.049 C 
ATOM      7  H1  UNL     1      39.075 -25.356 -12.356  0.00  0.00    -0.084 HD
ATOM      8  H2  UNL     1      39.075 -26.924 -12.953  0.00  0.00    -0.084 HD
ENDROOT
BRANCH   2   9
ATOM      9  O   UNL     1      37.907 -23.746 -15.850  0.00  0.00    -0.384 OA
ATOM     10  H   UNL     1      37.676 -24.510 -16.402  0.00  0.00    +0.210 HD
ENDBRANCH   2   9
BRANCH   4  11
ATOM     11  O   UNL     1      35.984 -22.910 -13.902  0.00  0.00    -0.380 OA
ATOM     12  H   UNL     1      36.634 -22.322 -13.489  0.00  0.00    +0.211 HD
ENDBRANCH   4  11
BRANCH   5  13
ATOM     13  O   UNL     1      35.088 -25.124 -12.267  0.00  0.00    -0.384 OA
ATOM     14  H   UNL     1      34.738 -24.388 -11.740  0.00  0.00    +0.210 HD
ENDBRANCH   5  13
BRANCH   3  15
ATOM     15  C   UNL     1      40.158 -25.394 -14.751  0.00  0.00    +0.118 C 
BRANCH  15  16
ATOM     16  O   UNL     1      40.290 -25.811 -16.096  0.00  0.00    -0.384 OA
ATOM     17  H   UNL     1      40.157 -25.051 -16.684  0.00  0.00    +0.210 HD
ENDBRANCH  15  16
ENDBRANCH   3  15
TORSDOF 5
ENDMDL
MODEL 2
REMARK VINA RESULT:      -5.8      2.040      2.452
REMARK  Name = 29435
REMARK  5 active torsions:
REMARK  status: ('A' for Active; 'I' for Inactive)
REMARK    1  A    between atoms: C_2  and  O_9
REMARK    2  A    between atoms: CA_3  and  C_15
REMARK    3  A    between atoms: C_4  and  O_11
REMARK    4  A    between atoms: C_5  and  O_13
REMARK    5  A    between atoms: C_15  and  O_16
REMARK                            x       y       z     vdW  Elec       q    Type
REMARK                         _______ _______ _______ _____ _____    ______ ____
ROOT
ATOM      1  N   UNL     1      37.004 -25.476 -14.018  0.00  0.00    +0.390 N 
ATOM      2  C   UNL     1      38.089 -24.382 -12.071  0.00  0.00    +0.123 C 
ATOM      3  CA  UNL     1      38.176 -24.710 -13.573  0.00  0.00    -0.002 C 
ATOM      4  C   UNL     1      36.776 -23.673 -11.729  0.00  0.00    +0.160 C 
ATOM      5  C   UNL     1      35.574 -24.428 -12.294  0.00  0.00    +0.118 C 
ATOM      6  C   UNL     1      35.767 -24.739 -13.776  0.00  0.00    -0.049 C 
ATOM      7  H1  UNL     1      36.971 -26.358 -13.509  0.00  0.00    -0.084 HD
ATOM      8  H2  UNL     1      37.089 -25.642 -15.021  0.00  0.00    -0.084 HD
ENDROOT
BRANCH   2   9
ATOM      9  O   UNL     1      39.157 -23.509 -11.700  0.00  0.00    -0.384 OA
ATOM     10  H   UNL     1      39.101 -23.315 -10.751  0.00  0.00    +0.210 HD
ENDBRANCH   2   9
BRANCH   4  11
ATOM     11  O   UNL     1      36.659 -23.606 -10.306  0.00  0.00    -0.380 OA
ATOM     12  H   UNL     1      37.538 -23.490  -9.914  0.00  0.00    +0.211 HD
ENDBRANCH   4  11
BRANCH   5  13
ATOM     13  O   UNL     1      34.414 -23.613 -12.133  0.00  0.00    -0.384 OA
ATOM     14  H   UNL     1      34.179 -23.568 -11.193  0.00  0.00    +0.210 HD
ENDBRANCH   5  13
BRANCH   3  15
ATOM     15  C   UNL     1      39.431 -25.521 -13.906  0.00  0.00    +0.118 C 
BRANCH  15  16
ATOM     16  O   UNL     1      40.527 -24.631 -13.994  0.00  0.00    -0.384 OA
ATOM     17  H   UNL     1      40.322 -23.928 -14.629  0.00  0.00    +0.210 HD
ENDBRANCH  15  16
ENDBRANCH   3  15
TORSDOF 5
ENDMDL
MODEL 3
REMARK VINA RESULT:      -5.8      2.576      3.866
REMARK  Name = 29435
REMARK  5 active torsions:
REMARK  status: ('A' for Active; 'I' for Inactive)
REMARK    1  A    between atoms: C_2  and  O_9
REMARK    2  A    between atoms: CA_3  and  C_15
REMARK    3  A    between atoms: C_4  and  O_11
REMARK    4  A    between atoms: C_5  and  O_13
REMARK    5  A    between atoms: C_15  and  O_16
REMARK                            x       y       z     vdW  Elec       q    Type
REMARK                         _______ _______ _______ _____ _____    ______ ____
ROOT
ATOM      1  N   UNL     1      36.057 -23.580 -13.822  0.00  0.00    +0.390 N 
ATOM      2  C   UNL     1      37.723 -25.170 -12.893  0.00  0.00    +0.123 C 
ATOM      3  CA  UNL     1      36.581 -24.182 -12.589  0.00  0.00    -0.002 C 
ATOM      4  C   UNL     1      37.290 -26.229 -13.911  0.00  0.00    +0.160 C 
ATOM      5  C   UNL     1      36.648 -25.588 -15.141  0.00  0.00    +0.118 C 
ATOM      6  C   UNL     1      35.555 -24.600 -14.738  0.00  0.00    -0.049 C 
ATOM      7  H1  UNL     1      36.804 -23.059 -14.281  0.00  0.00    -0.084 HD
ATOM      8  H2  UNL     1      35.285 -22.960 -13.576  0.00  0.00    -0.084 HD
ENDROOT
BRANCH   2   9
ATOM      9  O   UNL     1      38.106 -25.854 -11.700  0.00  0.00    -0.384 OA
ATOM     10  H   UNL     1      37.438 -26.523 -11.482  0.00  0.00    +0.210 HD
ENDBRANCH   2   9
BRANCH   4  11
ATOM     11  O   UNL     1      38.448 -26.961 -14.317  0.00  0.00    -0.380 OA
ATOM     12  H   UNL     1      38.556 -27.738 -13.747  0.00  0.00    +0.211 HD
ENDBRANCH   4  11
BRANCH   5  13
ATOM     13  O   UNL     1      36.075 -26.620 -15.940  0.00  0.00    -0.384 OA
ATOM     14  H   UNL     1      35.150 -26.402 -16.135  0.00  0.00    +0.210 HD
ENDBRANCH   5  13
BRANCH   3  15
ATOM     15  C   UNL     1      37.038 -23.053 -11.663  0.00  0.00    +0.118 C 
BRANCH  15  16
ATOM     16  O   UNL     1      38.452 -23.021 -11.663  0.00  0.00    -0.384 OA
ATOM     17  H   UNL     1      38.763 -22.459 -12.389  0.00  0.00    +0.210 HD
ENDBRANCH  15  16
ENDBRANCH   3  15
TORSDOF 5
ENDMDL
MODEL 4
REMARK VINA RESULT:      -5.7      9.974     10.870
REMARK  Name = 29435
REMARK  5 active torsions:
REMARK  status: ('A' for Active; 'I' for Inactive)
REMARK    1  A    between atoms: C_2  and  O_9
REMARK    2  A    between atoms: CA_3  and  C_15
REMARK    3  A    between atoms: C_4  and  O_11
REMARK    4  A    between atoms: C_5  and  O_13
REMARK    5  A    between atoms: C_15  and  O_16
REMARK                            x       y       z     vdW  Elec       q    Type
REMARK                         _______ _______ _______ _____ _____    ______ ____
ROOT
ATOM      1  N   UNL     1      42.588 -14.009 -17.175  0.00  0.00    +0.390 N 
ATOM      2  C   UNL     1      41.607 -16.268 -16.856  0.00  0.00    +0.123 C 
ATOM      3  CA  UNL     1      42.857 -15.451 -17.237  0.00  0.00    -0.002 C 
ATOM      4  C   UNL     1      41.058 -15.845 -15.491  0.00  0.00    +0.160 C 
ATOM      5  C   UNL     1      40.887 -14.328 -15.407  0.00  0.00    +0.118 C 
ATOM      6  C   UNL     1      42.163 -13.607 -15.837  0.00  0.00    -0.049 C 
ATOM      7  H1  UNL     1      41.852 -13.779 -17.841  0.00  0.00    -0.084 HD
ATOM      8  H2  UNL     1      43.448 -13.510 -17.402  0.00  0.00    -0.084 HD
ENDROOT
BRANCH   2   9
ATOM      9  O   UNL     1      41.938 -17.655 -16.774  0.00  0.00    -0.384 OA
ATOM     10  H   UNL     1      42.507 -17.897 -17.522  0.00  0.00    +0.210 HD
ENDBRANCH   2   9
BRANCH   4  11
ATOM     11  O   UNL     1      39.786 -16.469 -15.306  0.00  0.00    -0.380 OA
ATOM     12  H   UNL     1      39.865 -17.177 -14.649  0.00  0.00    +0.211 HD
ENDBRANCH   4  11
BRANCH   5  13
ATOM     13  O   UNL     1      40.586 -13.983 -14.057  0.00  0.00    -0.384 OA
ATOM     14  H   UNL     1      40.635 -13.019 -13.951  0.00  0.00    +0.210 HD
ENDBRANCH   5  13
BRANCH   3  15
ATOM     15  C   UNL     1      43.345 -15.786 -18.649  0.00  0.00    +0.118 C 
BRANCH  15  16
ATOM     16  O   UNL     1      42.314 -16.478 -19.325  0.00  0.00    -0.384 OA
ATOM     17  H   UNL     1      42.002 -15.946 -20.073  0.00  0.00    +0.210 HD
ENDBRANCH  15  16
ENDBRANCH   3  15
TORSDOF 5
ENDMDL
MODEL 5
REMARK VINA RESULT:      -5.7      1.701      4.017
REMARK  Name = 29435
REMARK  5 active torsions:
REMARK  status: ('A' for Active; 'I' for Inactive)
REMARK    1  A    between atoms: C_2  and  O_9
REMARK    2  A    between atoms: CA_3  and  C_15
REMARK    3  A    between atoms: C_4  and  O_11
REMARK    4  A    between atoms: C_5  and  O_13
REMARK    5  A    between atoms: C_15  and  O_16
REMARK                            x       y       z     vdW  Elec       q    Type
REMARK                         _______ _______ _______ _____ _____    ______ ____
ROOT
ATOM      1  N   UNL     1      38.136 -24.777 -12.113  0.00  0.00    +0.390 N 
ATOM      2  C   UNL     1      35.958 -25.291 -13.189  0.00  0.00    +0.123 C 
ATOM      3  CA  UNL     1      36.776 -24.282 -12.361  0.00  0.00    -0.002 C 
ATOM      4  C   UNL     1      36.679 -25.663 -14.487  0.00  0.00    +0.160 C 
ATOM      5  C   UNL     1      38.128 -26.072 -14.220  0.00  0.00    +0.118 C 
ATOM      6  C   UNL     1      38.844 -25.030 -13.364  0.00  0.00    -0.049 C 
ATOM      7  H1  UNL     1      38.082 -25.644 -11.580  0.00  0.00    -0.084 HD
ATOM      8  H2  UNL     1      38.648 -24.065 -11.591  0.00  0.00    -0.084 HD
ENDROOT
BRANCH   2   9
ATOM      9  O   UNL     1      34.699 -24.721 -13.547  0.00  0.00    -0.384 OA
ATOM     10  H   UNL     1      34.461 -25.002 -14.445  0.00  0.00    +0.210 HD
ENDBRANCH   2   9
BRANCH   4  11
ATOM     11  O   UNL     1      35.988 -26.761 -15.087  0.00  0.00    -0.380 OA
ATOM     12  H   UNL     1      36.500 -27.094 -15.840  0.00  0.00    +0.211 HD
ENDBRANCH   4  11
BRANCH   5  13
ATOM     13  O   UNL     1      38.800 -26.193 -15.472  0.00  0.00    -0.384 OA
ATOM     14  H   UNL     1      39.726 -26.440 -15.319  0.00  0.00    +0.210 HD
ENDBRANCH   5  13
BRANCH   3  15
ATOM     15  C   UNL     1      36.118 -23.992 -11.009  0.00  0.00    +0.118 C 
BRANCH  15  16
ATOM     16  O   UNL     1      35.330 -25.110 -10.648  0.00  0.00    -0.384 OA
ATOM     17  H   UNL     1      34.546 -25.150 -11.216  0.00  0.00    +0.210 HD
ENDBRANCH  15  16
ENDBRANCH   3  15
TORSDOF 5
ENDMDL
MODEL 6
REMARK VINA RESULT:      -5.7      1.898      2.836
REMARK  Name = 29435
REMARK  5 active torsions:
REMARK  status: ('A' for Active; 'I' for Inactive)
REMARK    1  A    between atoms: C_2  and  O_9
REMARK    2  A    between atoms: CA_3  and  C_15
REMARK    3  A    between atoms: C_4  and  O_11
REMARK    4  A    between atoms: C_5  and  O_13
REMARK    5  A    between atoms: C_15  and  O_16
REMARK                            x       y       z     vdW  Elec       q    Type
REMARK                         _______ _______ _______ _____ _____    ______ ____
ROOT
ATOM      1  N   UNL     1      36.387 -24.716 -14.689  0.00  0.00    +0.390 N 
ATOM      2  C   UNL     1      37.016 -25.131 -12.323  0.00  0.00    +0.123 C 
ATOM      3  CA  UNL     1      37.479 -24.647 -13.710  0.00  0.00    -0.002 C 
ATOM      4  C   UNL     1      35.774 -24.370 -11.852  0.00  0.00    +0.160 C 
ATOM      5  C   UNL     1      34.688 -24.360 -12.927  0.00  0.00    +0.118 C 
ATOM      6  C   UNL     1      35.248 -23.902 -14.271  0.00  0.00    -0.049 C 
ATOM      7  H1  UNL     1      36.086 -25.685 -14.783  0.00  0.00    -0.084 HD
ATOM      8  H2  UNL     1      36.729 -24.357 -15.581  0.00  0.00    -0.084 HD
ENDROOT
BRANCH   2   9
ATOM      9  O   UNL     1      38.046 -24.907 -11.360  0.00  0.00    -0.384 OA
ATOM     10  H   UNL     1      38.840 -24.572 -11.807  0.00  0.00    +0.210 HD
ENDBRANCH   2   9
BRANCH   4  11
ATOM     11  O   UNL     1      35.267 -25.018 -10.683  0.00  0.00    -0.380 OA
ATOM     12  H   UNL     1      34.299 -24.976 -10.684  0.00  0.00    +0.211 HD
ENDBRANCH   4  11
BRANCH   5  13
ATOM     13  O   UNL     1      33.657 -23.463 -12.519  0.00  0.00    -0.384 OA
ATOM     14  H   UNL     1      32.793 -23.889 -12.635  0.00  0.00    +0.210 HD
ENDBRANCH   5  13
BRANCH   3  15
ATOM     15  C   UNL     1      38.649 -25.479 -14.240  0.00  0.00    +0.118 C 
BRANCH  15  16
ATOM     16  O   UNL     1      38.219 -26.166 -15.399  0.00  0.00    -0.384 OA
ATOM     17  H   UNL     1      38.607 -25.750 -16.185  0.00  0.00    +0.210 HD
ENDBRANCH  15  16
ENDBRANCH   3  15
TORSDOF 5
ENDMDL
MODEL 7
REMARK VINA RESULT:      -5.6      1.508      2.505
REMARK  Name = 29435
REMARK  5 active torsions:
REMARK  status: ('A' for Active; 'I' for Inactive)
REMARK    1  A    between atoms: C_2  and  O_9
REMARK    2  A    between atoms: CA_3  and  C_15
REMARK    3  A    between atoms: C_4  and  O_11
REMARK    4  A    between atoms: C_5  and  O_13
REMARK    5  A    between atoms: C_15  and  O_16
REMARK                            x       y       z     vdW  Elec       q    Type
REMARK                         _______ _______ _______ _____ _____    ______ ____
ROOT
ATOM      1  N   UNL     1      38.392 -24.384 -15.466  0.00  0.00    +0.390 N 
ATOM      2  C   UNL     1      37.745 -25.559 -13.376  0.00  0.00    +0.123 C 
ATOM      3  CA  UNL     1      38.887 -24.925 -14.193  0.00  0.00    -0.002 C 
ATOM      4  C   UNL     1      36.591 -24.574 -13.172  0.00  0.00    +0.160 C 
ATOM      5  C   UNL     1      36.162 -23.940 -14.495  0.00  0.00    +0.118 C 
ATOM      6  C   UNL     1      37.363 -23.372 -15.248  0.00  0.00    -0.049 C 
ATOM      7  H1  UNL     1      38.000 -25.144 -16.020  0.00  0.00    -0.084 HD
ATOM      8  H2  UNL     1      39.173 -23.948 -15.957  0.00  0.00    -0.084 HD
ENDROOT
BRANCH   2   9
ATOM      9  O   UNL     1      38.221 -25.934 -12.084  0.00  0.00    -0.384 OA
ATOM     10  H   UNL     1      39.187 -26.025 -12.108  0.00  0.00    +0.210 HD
ENDBRANCH   2   9
BRANCH   4  11
ATOM     11  O   UNL     1      35.485 -25.288 -12.617  0.00  0.00    -0.380 OA
ATOM     12  H   UNL     1      34.729 -24.689 -12.517  0.00  0.00    +0.211 HD
ENDBRANCH   4  11
BRANCH   5  13
ATOM     13  O   UNL     1      35.244 -22.885 -14.212  0.00  0.00    -0.384 OA
ATOM     14  H   UNL     1      34.365 -23.258 -14.043  0.00  0.00    +0.210 HD
ENDBRANCH   5  13
BRANCH   3  15
ATOM     15  C   UNL     1      39.994 -25.936 -14.502  0.00  0.00    +0.118 C 
BRANCH  15  16
ATOM     16  O   UNL     1      40.325 -25.830 -15.873  0.00  0.00    -0.384 OA
ATOM     17  H   UNL     1      39.671 -26.313 -16.402  0.00  0.00    +0.210 HD
ENDBRANCH  15  16
ENDBRANCH   3  15
TORSDOF 5
ENDMDL
MODEL 8
REMARK VINA RESULT:      -5.6      6.529      8.291
REMARK  Name = 29435
REMARK  5 active torsions:
REMARK  status: ('A' for Active; 'I' for Inactive)
REMARK    1  A    between atoms: C_2  and  O_9
REMARK    2  A    between atoms: CA_3  and  C_15
REMARK    3  A    between atoms: C_4  and  O_11
REMARK    4  A    between atoms: C_5  and  O_13
REMARK    5  A    between atoms: C_15  and  O_16
REMARK                            x       y       z     vdW  Elec       q    Type
REMARK                         _______ _______ _______ _____ _____    ______ ____
ROOT
ATOM      1  N   UNL     1      30.990 -22.992 -16.298  0.00  0.00    +0.390 N 
ATOM      2  C   UNL     1      29.686 -24.352 -14.681  0.00  0.00    +0.123 C 
ATOM      3  CA  UNL     1      29.859 -23.916 -16.148  0.00  0.00    -0.002 C 
ATOM      4  C   UNL     1      30.983 -24.936 -14.115  0.00  0.00    +0.160 C 
ATOM      5  C   UNL     1      32.170 -24.009 -14.377  0.00  0.00    +0.118 C 
ATOM      6  C   UNL     1      32.237 -23.603 -15.847  0.00  0.00    -0.049 C 
ATOM      7  H1  UNL     1      30.810 -22.155 -15.745  0.00  0.00    -0.084 HD
ATOM      8  H2  UNL     1      31.085 -22.756 -17.286  0.00  0.00    -0.084 HD
ENDROOT
BRANCH   2   9
ATOM      9  O   UNL     1      28.684 -25.366 -14.588  0.00  0.00    -0.384 OA
ATOM     10  H   UNL     1      28.342 -25.564 -15.474  0.00  0.00    +0.210 HD
ENDBRANCH   2   9
BRANCH   4  11
ATOM     11  O   UNL     1      30.823 -25.103 -12.705  0.00  0.00    -0.380 OA
ATOM     12  H   UNL     1      29.997 -25.577 -12.527  0.00  0.00    +0.211 HD
ENDBRANCH   4  11
BRANCH   5  13
ATOM     13  O   UNL     1      33.367 -24.699 -14.026  0.00  0.00    -0.384 OA
ATOM     14  H   UNL     1      33.621 -25.294 -14.749  0.00  0.00    +0.210 HD
ENDBRANCH   5  13
BRANCH   3  15
ATOM     15  C   UNL     1      28.603 -23.226 -16.687  0.00  0.00    +0.118 C 
BRANCH  15  16
ATOM     16  O   UNL     1      27.827 -24.187 -17.377  0.00  0.00    -0.384 OA
ATOM     17  H   UNL     1      27.758 -24.993 -16.841  0.00  0.00    +0.210 HD
ENDBRANCH  15  16
ENDBRANCH   3  15
TORSDOF 5
ENDMDL
MODEL 9
REMARK VINA RESULT:      -5.5      1.603      3.837
REMARK  Name = 29435
REMARK  5 active torsions:
REMARK  status: ('A' for Active; 'I' for Inactive)
REMARK    1  A    between atoms: C_2  and  O_9
REMARK    2  A    between atoms: CA_3  and  C_15
REMARK    3  A    between atoms: C_4  and  O_11
REMARK    4  A    between atoms: C_5  and  O_13
REMARK    5  A    between atoms: C_15  and  O_16
REMARK                            x       y       z     vdW  Elec       q    Type
REMARK                         _______ _______ _______ _____ _____    ______ ____
ROOT
ATOM      1  N   UNL     1      36.336 -25.905 -12.678  0.00  0.00    +0.390 N 
ATOM      2  C   UNL     1      37.273 -23.666 -13.197  0.00  0.00    +0.123 C 
ATOM      3  CA  UNL     1      36.915 -24.685 -12.100  0.00  0.00    -0.002 C 
ATOM      4  C   UNL     1      38.184 -24.286 -14.261  0.00  0.00    +0.160 C 
ATOM      5  C   UNL     1      37.619 -25.611 -14.772  0.00  0.00    +0.118 C 
ATOM      6  C   UNL     1      37.261 -26.539 -13.614  0.00  0.00    -0.049 C 
ATOM      7  H1  UNL     1      35.477 -25.665 -13.170  0.00  0.00    -0.084 HD
ATOM      8  H2  UNL     1      36.145 -26.562 -11.920  0.00  0.00    -0.084 HD
ENDROOT
BRANCH   2   9
ATOM      9  O   UNL     1      37.973 -22.560 -12.626  0.00  0.00    -0.384 OA
ATOM     10  H   UNL     1      38.307 -21.987 -13.335  0.00  0.00    +0.210 HD
ENDBRANCH   2   9
BRANCH   4  11
ATOM     11  O   UNL     1      38.287 -23.370 -15.353  0.00  0.00    -0.380 OA
ATOM     12  H   UNL     1      38.067 -23.826 -16.180  0.00  0.00    +0.211 HD
ENDBRANCH   4  11
BRANCH   5  13
ATOM     13  O   UNL     1      38.607 -26.238 -15.587  0.00  0.00    -0.384 OA
ATOM     14  H   UNL     1      39.151 -26.826 -15.040  0.00  0.00    +0.210 HD
ENDBRANCH   5  13
BRANCH   3  15
ATOM     15  C   UNL     1      35.913 -24.110 -11.096  0.00  0.00    +0.118 C 
BRANCH  15  16
ATOM     16  O   UNL     1      35.288 -25.186 -10.423  0.00  0.00    -0.384 OA
ATOM     17  H   UNL     1      35.625 -26.026 -10.773  0.00  0.00    +0.210 HD
ENDBRANCH  15  16
ENDBRANCH   3  15
TORSDOF 5
ENDMDL
