MODEL 1
REMARK VINA RESULT:      -6.0      0.000      0.000
REMARK  Name = 1483
REMARK  1 active torsions:
REMARK  status: ('A' for Active; 'I' for Inactive)
REMARK    1  A    between atoms: C_4  and  O_10
REMARK                            x       y       z     vdW  Elec       q    Type
REMARK                         _______ _______ _______ _____ _____    ______ ____
ROOT
ATOM      1 BR   UNL     1      33.109 -14.297 -26.453  0.00  0.00    -0.046 Br
ATOM      2 BR   UNL     1      35.581 -18.427 -23.319  0.00  0.00    -0.046 Br
ATOM      3 BR   UNL     1      32.818 -14.168 -20.788  0.00  0.00    -0.049 Br
ATOM      4  C   UNL     1      34.279 -16.267 -24.708  0.00  0.00    +0.146 C 
ATOM      5  C   UNL     1      33.541 -15.085 -24.782  0.00  0.00    +0.069 C 
ATOM      6  C   UNL     1      34.581 -16.823 -23.465  0.00  0.00    +0.069 C 
ATOM      7  C   UNL     1      33.105 -14.460 -23.615  0.00  0.00    +0.016 C 
ATOM      8  C   UNL     1      34.145 -16.198 -22.297  0.00  0.00    +0.016 C 
ATOM      9  C   UNL     1      33.407 -15.016 -22.371  0.00  0.00    +0.036 C 
ENDROOT
BRANCH   4  10
ATOM     10  O   UNL     1      34.705 -16.879 -25.851  0.00  0.00    -0.505 OA
ATOM     11  H   UNL     1      34.716 -17.814 -25.907  0.00  0.00    +0.292 HD
ENDBRANCH   4  10
TORSDOF 1
ENDMDL
MODEL 2
REMARK VINA RESULT:      -6.0      0.037      2.989
REMARK  Name = 1483
REMARK  1 active torsions:
REMARK  status: ('A' for Active; 'I' for Inactive)
REMARK    1  A    between atoms: C_4  and  O_10
REMARK                            x       y       z     vdW  Elec       q    Type
REMARK                         _______ _______ _______ _____ _____    ______ ____
ROOT
ATOM      1 BR   UNL     1      35.649 -18.405 -23.301  0.00  0.00    -0.046 Br
ATOM      2 BR   UNL     1      33.106 -14.332 -26.454  0.00  0.00    -0.046 Br
ATOM      3 BR   UNL     1      32.819 -14.176 -20.790  0.00  0.00    -0.049 Br
ATOM      4  C   UNL     1      34.309 -16.273 -24.700  0.00  0.00    +0.146 C 
ATOM      5  C   UNL     1      34.622 -16.817 -23.454  0.00  0.00    +0.069 C 
ATOM      6  C   UNL     1      33.552 -15.104 -24.780  0.00  0.00    +0.069 C 
ATOM      7  C   UNL     1      34.178 -16.192 -22.289  0.00  0.00    +0.016 C 
ATOM      8  C   UNL     1      33.109 -14.479 -23.615  0.00  0.00    +0.016 C 
ATOM      9  C   UNL     1      33.421 -15.023 -22.369  0.00  0.00    +0.036 C 
ENDROOT
BRANCH   4  10
ATOM     10  O   UNL     1      34.744 -16.885 -25.840  0.00  0.00    -0.505 OA
ATOM     11  H   UNL     1      35.421 -17.531 -25.797  0.00  0.00    +0.292 HD
ENDBRANCH   4  10
TORSDOF 1
ENDMDL
MODEL 3
REMARK VINA RESULT:      -5.6      1.662      3.289
REMARK  Name = 1483
REMARK  1 active torsions:
REMARK  status: ('A' for Active; 'I' for Inactive)
REMARK    1  A    between atoms: C_4  and  O_10
REMARK                            x       y       z     vdW  Elec       q    Type
REMARK                         _______ _______ _______ _____ _____    ______ ____
ROOT
ATOM      1 BR   UNL     1      33.062 -14.245 -26.319  0.00  0.00    -0.046 Br
ATOM      2 BR   UNL     1      34.401 -14.896 -20.771  0.00  0.00    -0.046 Br
ATOM      3 BR   UNL     1      35.005 -19.217 -24.397  0.00  0.00    -0.049 Br
ATOM      4  C   UNL     1      33.787 -14.772 -23.582  0.00  0.00    +0.146 C 
ATOM      5  C   UNL     1      33.687 -15.299 -24.870  0.00  0.00    +0.069 C 
ATOM      6  C   UNL     1      34.250 -15.572 -22.537  0.00  0.00    +0.069 C 
ATOM      7  C   UNL     1      34.050 -16.622 -25.113  0.00  0.00    +0.016 C 
ATOM      8  C   UNL     1      34.613 -16.896 -22.779  0.00  0.00    +0.016 C 
ATOM      9  C   UNL     1      34.514 -17.422 -24.068  0.00  0.00    +0.036 C 
ENDROOT
BRANCH   4  10
ATOM     10  O   UNL     1      33.432 -13.476 -23.344  0.00  0.00    -0.505 OA
ATOM     11  H   UNL     1      33.964 -12.937 -22.793  0.00  0.00    +0.292 HD
ENDBRANCH   4  10
TORSDOF 1
ENDMDL
MODEL 4
REMARK VINA RESULT:      -5.5      1.619      3.663
REMARK  Name = 1483
REMARK  1 active torsions:
REMARK  status: ('A' for Active; 'I' for Inactive)
REMARK    1  A    between atoms: C_4  and  O_10
REMARK                            x       y       z     vdW  Elec       q    Type
REMARK                         _______ _______ _______ _____ _____    ______ ____
ROOT
ATOM      1 BR   UNL     1      35.011 -19.320 -24.421  0.00  0.00    -0.046 Br
ATOM      2 BR   UNL     1      34.366 -14.889 -20.823  0.00  0.00    -0.046 Br
ATOM      3 BR   UNL     1      33.081 -14.334 -26.320  0.00  0.00    -0.049 Br
ATOM      4  C   UNL     1      34.619 -16.984 -22.783  0.00  0.00    +0.146 C 
ATOM      5  C   UNL     1      34.525 -17.521 -24.067  0.00  0.00    +0.069 C 
ATOM      6  C   UNL     1      34.253 -15.657 -22.553  0.00  0.00    +0.069 C 
ATOM      7  C   UNL     1      34.066 -16.731 -25.121  0.00  0.00    +0.016 C 
ATOM      8  C   UNL     1      33.795 -14.868 -23.607  0.00  0.00    +0.016 C 
ATOM      9  C   UNL     1      33.701 -15.404 -24.891  0.00  0.00    +0.036 C 
ENDROOT
BRANCH   4  10
ATOM     10  O   UNL     1      35.067 -17.757 -21.751  0.00  0.00    -0.505 OA
ATOM     11  H   UNL     1      35.414 -18.611 -21.921  0.00  0.00    +0.292 HD
ENDBRANCH   4  10
TORSDOF 1
ENDMDL
MODEL 5
REMARK VINA RESULT:      -5.5      1.662      4.137
REMARK  Name = 1483
REMARK  1 active torsions:
REMARK  status: ('A' for Active; 'I' for Inactive)
REMARK    1  A    between atoms: C_4  and  O_10
REMARK                            x       y       z     vdW  Elec       q    Type
REMARK                         _______ _______ _______ _____ _____    ______ ____
ROOT
ATOM      1 BR   UNL     1      34.492 -14.919 -20.820  0.00  0.00    -0.046 Br
ATOM      2 BR   UNL     1      33.058 -14.344 -26.353  0.00  0.00    -0.046 Br
ATOM      3 BR   UNL     1      35.030 -19.291 -24.397  0.00  0.00    -0.049 Br
ATOM      4  C   UNL     1      33.830 -14.834 -23.622  0.00  0.00    +0.146 C 
ATOM      5  C   UNL     1      34.310 -15.620 -22.574  0.00  0.00    +0.069 C 
ATOM      6  C   UNL     1      33.707 -15.378 -24.901  0.00  0.00    +0.069 C 
ATOM      7  C   UNL     1      34.667 -16.947 -22.805  0.00  0.00    +0.016 C 
ATOM      8  C   UNL     1      34.064 -16.705 -25.131  0.00  0.00    +0.016 C 
ATOM      9  C   UNL     1      34.545 -17.491 -24.084  0.00  0.00    +0.036 C 
ENDROOT
BRANCH   4  10
ATOM     10  O   UNL     1      33.480 -13.534 -23.396  0.00  0.00    -0.505 OA
ATOM     11  H   UNL     1      34.092 -12.946 -23.000  0.00  0.00    +0.292 HD
ENDBRANCH   4  10
TORSDOF 1
ENDMDL
MODEL 6
REMARK VINA RESULT:      -5.5      1.626      3.330
REMARK  Name = 1483
REMARK  1 active torsions:
REMARK  status: ('A' for Active; 'I' for Inactive)
REMARK    1  A    between atoms: C_4  and  O_10
REMARK                            x       y       z     vdW  Elec       q    Type
REMARK                         _______ _______ _______ _____ _____    ______ ____
ROOT
ATOM      1 BR   UNL     1      34.407 -14.927 -20.816  0.00  0.00    -0.046 Br
ATOM      2 BR   UNL     1      35.023 -19.324 -24.461  0.00  0.00    -0.046 Br
ATOM      3 BR   UNL     1      33.071 -14.324 -26.297  0.00  0.00    -0.049 Br
ATOM      4  C   UNL     1      34.644 -17.004 -22.798  0.00  0.00    +0.146 C 
ATOM      5  C   UNL     1      34.280 -15.679 -22.553  0.00  0.00    +0.069 C 
ATOM      6  C   UNL     1      34.539 -17.529 -24.086  0.00  0.00    +0.069 C 
ATOM      7  C   UNL     1      33.812 -14.881 -23.596  0.00  0.00    +0.016 C 
ATOM      8  C   UNL     1      34.071 -16.730 -25.128  0.00  0.00    +0.016 C 
ATOM      9  C   UNL     1      33.707 -15.406 -24.884  0.00  0.00    +0.036 C 
ENDROOT
BRANCH   4  10
ATOM     10  O   UNL     1      35.102 -17.785 -21.777  0.00  0.00    -0.505 OA
ATOM     11  H   UNL     1      35.893 -18.276 -21.881  0.00  0.00    +0.292 HD
ENDBRANCH   4  10
TORSDOF 1
ENDMDL
MODEL 7
REMARK VINA RESULT:      -5.5      1.541      3.965
REMARK  Name = 1483
REMARK  1 active torsions:
REMARK  status: ('A' for Active; 'I' for Inactive)
REMARK    1  A    between atoms: C_4  and  O_10
REMARK                            x       y       z     vdW  Elec       q    Type
REMARK                         _______ _______ _______ _____ _____    ______ ____
ROOT
ATOM      1 BR   UNL     1      35.637 -18.470 -23.291  0.00  0.00    -0.046 Br
ATOM      2 BR   UNL     1      32.870 -14.113 -20.771  0.00  0.00    -0.046 Br
ATOM      3 BR   UNL     1      33.079 -14.494 -26.427  0.00  0.00    -0.049 Br
ATOM      4  C   UNL     1      34.202 -16.213 -22.222  0.00  0.00    +0.146 C 
ATOM      5  C   UNL     1      34.617 -16.873 -23.379  0.00  0.00    +0.069 C 
ATOM      6  C   UNL     1      33.453 -15.041 -22.319  0.00  0.00    +0.069 C 
ATOM      7  C   UNL     1      34.282 -16.361 -24.631  0.00  0.00    +0.016 C 
ATOM      8  C   UNL     1      33.118 -14.529 -23.571  0.00  0.00    +0.016 C 
ATOM      9  C   UNL     1      33.532 -15.189 -24.728  0.00  0.00    +0.036 C 
ENDROOT
BRANCH   4  10
ATOM     10  O   UNL     1      34.530 -16.715 -20.995  0.00  0.00    -0.505 OA
ATOM     11  H   UNL     1      35.397 -16.601 -20.659  0.00  0.00    +0.292 HD
ENDBRANCH   4  10
TORSDOF 1
ENDMDL
MODEL 8
REMARK VINA RESULT:      -5.5     11.027     12.652
REMARK  Name = 1483
REMARK  1 active torsions:
REMARK  status: ('A' for Active; 'I' for Inactive)
REMARK    1  A    between atoms: C_4  and  O_10
REMARK                            x       y       z     vdW  Elec       q    Type
REMARK                         _______ _______ _______ _____ _____    ______ ____
ROOT
ATOM      1 BR   UNL     1      38.441 -25.626 -13.372  0.00  0.00    -0.046 Br
ATOM      2 BR   UNL     1      36.872 -21.753 -17.312  0.00  0.00    -0.046 Br
ATOM      3 BR   UNL     1      33.007 -24.069 -13.866  0.00  0.00    -0.049 Br
ATOM      4  C   UNL     1      37.454 -23.706 -15.278  0.00  0.00    +0.146 C 
ATOM      5  C   UNL     1      37.121 -24.575 -14.238  0.00  0.00    +0.069 C 
ATOM      6  C   UNL     1      36.461 -22.945 -15.896  0.00  0.00    +0.069 C 
ATOM      7  C   UNL     1      35.796 -24.683 -13.818  0.00  0.00    +0.016 C 
ATOM      8  C   UNL     1      35.137 -23.053 -15.475  0.00  0.00    +0.016 C 
ATOM      9  C   UNL     1      34.803 -23.922 -14.436  0.00  0.00    +0.036 C 
ENDROOT
BRANCH   4  10
ATOM     10  O   UNL     1      38.751 -23.600 -15.690  0.00  0.00    -0.505 OA
ATOM     11  H   UNL     1      39.271 -24.371 -15.807  0.00  0.00    +0.292 HD
ENDBRANCH   4  10
TORSDOF 1
ENDMDL
MODEL 9
REMARK VINA RESULT:      -5.5     11.034     12.312
REMARK  Name = 1483
REMARK  1 active torsions:
REMARK  status: ('A' for Active; 'I' for Inactive)
REMARK    1  A    between atoms: C_4  and  O_10
REMARK                            x       y       z     vdW  Elec       q    Type
REMARK                         _______ _______ _______ _____ _____    ______ ____
ROOT
ATOM      1 BR   UNL     1      36.851 -21.769 -17.335  0.00  0.00    -0.046 Br
ATOM      2 BR   UNL     1      38.525 -25.574 -13.371  0.00  0.00    -0.046 Br
ATOM      3 BR   UNL     1      33.059 -24.131 -13.838  0.00  0.00    -0.049 Br
ATOM      4  C   UNL     1      37.487 -23.691 -15.287  0.00  0.00    +0.146 C 
ATOM      5  C   UNL     1      36.475 -22.957 -15.905  0.00  0.00    +0.069 C 
ATOM      6  C   UNL     1      37.179 -24.557 -14.237  0.00  0.00    +0.069 C 
ATOM      7  C   UNL     1      35.156 -23.088 -15.473  0.00  0.00    +0.016 C 
ATOM      8  C   UNL     1      35.860 -24.688 -13.806  0.00  0.00    +0.016 C 
ATOM      9  C   UNL     1      34.847 -23.954 -14.424  0.00  0.00    +0.036 C 
ENDROOT
BRANCH   4  10
ATOM     10  O   UNL     1      38.779 -23.563 -15.709  0.00  0.00    -0.505 OA
ATOM     11  H   UNL     1      39.484 -23.669 -15.101  0.00  0.00    +0.292 HD
ENDBRANCH   4  10
TORSDOF 1
ENDMDL
