MODEL 1
REMARK VINA RESULT:      -3.6      0.000      0.000
REMARK  Name = 66348
REMARK  0 active torsions:
REMARK  status: ('A' for Active; 'I' for Inactive)
REMARK                            x       y       z     vdW  Elec       q    Type
REMARK                         _______ _______ _______ _____ _____    ______ ____
ROOT
ATOM      1  S   UNL     1      34.508 -18.262 -24.498  0.00  0.00    +0.000 S 
ATOM      2  S   UNL     1      34.931 -16.465 -25.374  0.00  0.00    +0.000 S 
ATOM      3  S   UNL     1      35.579 -18.329 -22.759  0.00  0.00    +0.000 S 
ATOM      4  S   UNL     1      33.360 -15.228 -24.953  0.00  0.00    +0.000 S 
ATOM      5  S   UNL     1      34.276 -17.864 -21.256  0.00  0.00    +0.000 S 
ATOM      6  S   UNL     1      33.955 -14.037 -23.402  0.00  0.00    +0.000 S 
ATOM      7  S   UNL     1      34.602 -15.902 -20.787  0.00  0.00    +0.000 S 
ATOM      8  S   UNL     1      33.127 -14.830 -21.710  0.00  0.00    +0.000 S 
ENDROOT
TORSDOF 0
ENDMDL
MODEL 2
REMARK VINA RESULT:      -3.6      0.011      3.430
REMARK  Name = 66348
REMARK  0 active torsions:
REMARK  status: ('A' for Active; 'I' for Inactive)
REMARK                            x       y       z     vdW  Elec       q    Type
REMARK                         _______ _______ _______ _____ _____    ______ ____
ROOT
ATOM      1  S   UNL     1      34.929 -16.454 -25.379  0.00  0.00    +0.000 S 
ATOM      2  S   UNL     1      34.508 -18.255 -24.511  0.00  0.00    +0.000 S 
ATOM      3  S   UNL     1      33.357 -15.220 -24.952  0.00  0.00    +0.000 S 
ATOM      4  S   UNL     1      35.580 -18.328 -22.773  0.00  0.00    +0.000 S 
ATOM      5  S   UNL     1      33.952 -14.036 -23.396  0.00  0.00    +0.000 S 
ATOM      6  S   UNL     1      34.277 -17.871 -21.266  0.00  0.00    +0.000 S 
ATOM      7  S   UNL     1      33.126 -14.836 -21.707  0.00  0.00    +0.000 S 
ATOM      8  S   UNL     1      34.603 -15.911 -20.790  0.00  0.00    +0.000 S 
ENDROOT
TORSDOF 0
ENDMDL
MODEL 3
REMARK VINA RESULT:      -3.6      0.025      3.430
REMARK  Name = 66348
REMARK  0 active torsions:
REMARK  status: ('A' for Active; 'I' for Inactive)
REMARK                            x       y       z     vdW  Elec       q    Type
REMARK                         _______ _______ _______ _____ _____    ______ ____
ROOT
ATOM      1  S   UNL     1      35.572 -18.316 -22.787  0.00  0.00    +0.000 S 
ATOM      2  S   UNL     1      34.275 -17.857 -21.276  0.00  0.00    +0.000 S 
ATOM      3  S   UNL     1      34.496 -18.243 -24.522  0.00  0.00    +0.000 S 
ATOM      4  S   UNL     1      34.604 -15.897 -20.802  0.00  0.00    +0.000 S 
ATOM      5  S   UNL     1      34.916 -16.442 -25.392  0.00  0.00    +0.000 S 
ATOM      6  S   UNL     1      33.125 -14.821 -21.715  0.00  0.00    +0.000 S 
ATOM      7  S   UNL     1      33.347 -15.207 -24.961  0.00  0.00    +0.000 S 
ATOM      8  S   UNL     1      33.948 -14.023 -23.408  0.00  0.00    +0.000 S 
ENDROOT
TORSDOF 0
ENDMDL
MODEL 4
REMARK VINA RESULT:      -3.6      0.054      4.633
REMARK  Name = 66348
REMARK  0 active torsions:
REMARK  status: ('A' for Active; 'I' for Inactive)
REMARK                            x       y       z     vdW  Elec       q    Type
REMARK                         _______ _______ _______ _____ _____    ______ ____
ROOT
ATOM      1  S   UNL     1      33.109 -14.790 -21.760  0.00  0.00    +0.000 S 
ATOM      2  S   UNL     1      34.584 -15.835 -20.808  0.00  0.00    +0.000 S 
ATOM      3  S   UNL     1      33.940 -14.028 -23.464  0.00  0.00    +0.000 S 
ATOM      4  S   UNL     1      34.271 -17.808 -21.238  0.00  0.00    +0.000 S 
ATOM      5  S   UNL     1      33.360 -15.252 -24.993  0.00  0.00    +0.000 S 
ATOM      6  S   UNL     1      35.585 -18.296 -22.725  0.00  0.00    +0.000 S 
ATOM      7  S   UNL     1      34.940 -16.489 -25.381  0.00  0.00    +0.000 S 
ATOM      8  S   UNL     1      34.523 -18.270 -24.471  0.00  0.00    +0.000 S 
ENDROOT
TORSDOF 0
ENDMDL
MODEL 5
REMARK VINA RESULT:      -3.6      0.022      3.268
REMARK  Name = 66348
REMARK  0 active torsions:
REMARK  status: ('A' for Active; 'I' for Inactive)
REMARK                            x       y       z     vdW  Elec       q    Type
REMARK                         _______ _______ _______ _____ _____    ______ ____
ROOT
ATOM      1  S   UNL     1      34.273 -17.891 -21.268  0.00  0.00    +0.000 S 
ATOM      2  S   UNL     1      35.576 -18.349 -22.773  0.00  0.00    +0.000 S 
ATOM      3  S   UNL     1      34.601 -15.932 -20.788  0.00  0.00    +0.000 S 
ATOM      4  S   UNL     1      34.507 -18.271 -24.512  0.00  0.00    +0.000 S 
ATOM      5  S   UNL     1      33.127 -14.854 -21.706  0.00  0.00    +0.000 S 
ATOM      6  S   UNL     1      34.932 -16.469 -25.378  0.00  0.00    +0.000 S 
ATOM      7  S   UNL     1      33.955 -14.053 -23.393  0.00  0.00    +0.000 S 
ATOM      8  S   UNL     1      33.361 -15.234 -24.951  0.00  0.00    +0.000 S 
ENDROOT
TORSDOF 0
ENDMDL
MODEL 6
REMARK VINA RESULT:      -3.6      0.040      3.430
REMARK  Name = 66348
REMARK  0 active torsions:
REMARK  status: ('A' for Active; 'I' for Inactive)
REMARK                            x       y       z     vdW  Elec       q    Type
REMARK                         _______ _______ _______ _____ _____    ______ ____
ROOT
ATOM      1  S   UNL     1      34.581 -15.854 -20.795  0.00  0.00    +0.000 S 
ATOM      2  S   UNL     1      33.104 -14.806 -21.741  0.00  0.00    +0.000 S 
ATOM      3  S   UNL     1      34.273 -17.825 -21.238  0.00  0.00    +0.000 S 
ATOM      4  S   UNL     1      33.936 -14.031 -23.438  0.00  0.00    +0.000 S 
ATOM      5  S   UNL     1      35.589 -18.299 -22.728  0.00  0.00    +0.000 S 
ATOM      6  S   UNL     1      33.359 -15.246 -24.977  0.00  0.00    +0.000 S 
ATOM      7  S   UNL     1      34.529 -18.264 -24.475  0.00  0.00    +0.000 S 
ATOM      8  S   UNL     1      34.943 -16.475 -25.371  0.00  0.00    +0.000 S 
ENDROOT
TORSDOF 0
ENDMDL
MODEL 7
REMARK VINA RESULT:      -3.6      0.113      3.430
REMARK  Name = 66348
REMARK  0 active torsions:
REMARK  status: ('A' for Active; 'I' for Inactive)
REMARK                            x       y       z     vdW  Elec       q    Type
REMARK                         _______ _______ _______ _____ _____    ______ ____
ROOT
ATOM      1  S   UNL     1      33.920 -14.037 -23.517  0.00  0.00    +0.000 S 
ATOM      2  S   UNL     1      33.367 -15.300 -25.025  0.00  0.00    +0.000 S 
ATOM      3  S   UNL     1      33.073 -14.766 -21.806  0.00  0.00    +0.000 S 
ATOM      4  S   UNL     1      34.961 -16.533 -25.365  0.00  0.00    +0.000 S 
ATOM      5  S   UNL     1      34.545 -15.778 -20.814  0.00  0.00    +0.000 S 
ATOM      6  S   UNL     1      34.545 -18.297 -24.420  0.00  0.00    +0.000 S 
ATOM      7  S   UNL     1      34.251 -17.762 -21.201  0.00  0.00    +0.000 S 
ATOM      8  S   UNL     1      35.586 -18.274 -22.662  0.00  0.00    +0.000 S 
ENDROOT
TORSDOF 0
ENDMDL
MODEL 8
REMARK VINA RESULT:      -3.6      0.059      3.238
REMARK  Name = 66348
REMARK  0 active torsions:
REMARK  status: ('A' for Active; 'I' for Inactive)
REMARK                            x       y       z     vdW  Elec       q    Type
REMARK                         _______ _______ _______ _____ _____    ______ ____
ROOT
ATOM      1  S   UNL     1      33.370 -15.294 -24.986  0.00  0.00    +0.000 S 
ATOM      2  S   UNL     1      33.936 -14.065 -23.454  0.00  0.00    +0.000 S 
ATOM      3  S   UNL     1      34.959 -16.521 -25.366  0.00  0.00    +0.000 S 
ATOM      4  S   UNL     1      33.100 -14.832 -21.755  0.00  0.00    +0.000 S 
ATOM      5  S   UNL     1      34.547 -18.305 -24.457  0.00  0.00    +0.000 S 
ATOM      6  S   UNL     1      34.578 -15.867 -20.795  0.00  0.00    +0.000 S 
ATOM      7  S   UNL     1      35.600 -18.324 -22.706  0.00  0.00    +0.000 S 
ATOM      8  S   UNL     1      34.277 -17.842 -21.226  0.00  0.00    +0.000 S 
ENDROOT
TORSDOF 0
ENDMDL
MODEL 9
REMARK VINA RESULT:      -3.1      3.793      6.242
REMARK  Name = 66348
REMARK  0 active torsions:
REMARK  status: ('A' for Active; 'I' for Inactive)
REMARK                            x       y       z     vdW  Elec       q    Type
REMARK                         _______ _______ _______ _____ _____    ______ ____
ROOT
ATOM      1  S   UNL     1      34.098 -10.036 -24.010  0.00  0.00    +0.000 S 
ATOM      2  S   UNL     1      33.729 -11.872 -24.828  0.00  0.00    +0.000 S 
ATOM      3  S   UNL     1      32.283  -9.254 -23.491  0.00  0.00    +0.000 S 
ATOM      4  S   UNL     1      34.122 -13.248 -23.369  0.00  0.00    +0.000 S 
ATOM      5  S   UNL     1      32.077  -9.546 -21.479  0.00  0.00    +0.000 S 
ATOM      6  S   UNL     1      32.316 -13.797 -22.586  0.00  0.00    +0.000 S 
ATOM      7  S   UNL     1      30.870 -11.179 -21.248  0.00  0.00    +0.000 S 
ATOM      8  S   UNL     1      32.100 -12.758 -20.839  0.00  0.00    +0.000 S 
ENDROOT
TORSDOF 0
ENDMDL
