MODEL 1
REMARK VINA RESULT:      -5.2      0.000      0.000
REMARK  Name = 5287587
REMARK  7 active torsions:
REMARK  status: ('A' for Active; 'I' for Inactive)
REMARK    1  A    between atoms: CA_1  and  N_2
REMARK    2  A    between atoms: CA_1  and  C_7
REMARK    3  A    between atoms: CA_1  and  C_10
REMARK    4  A    between atoms: C_7  and  O_8
REMARK    5  A    between atoms: C_10  and  C_11
REMARK    6  A    between atoms: C_11  and  C_12
REMARK    7  A    between atoms: C_12  and  O_13
REMARK                            x       y       z     vdW  Elec       q    Type
REMARK                         _______ _______ _______ _____ _____    ______ ____
ROOT
ATOM      1  CA  UNL     1      38.973 -25.171 -14.397  0.00  0.00    +0.036 C 
ENDROOT
BRANCH   1   2
ATOM      2  N   UNL     1      37.899 -25.710 -15.234  0.00  0.00    +0.389 N 
ATOM      3  H1  UNL     1      37.085 -25.098 -15.181  0.00  0.00    -0.088 HD
ATOM      4  H2  UNL     1      37.645 -26.642 -14.904  0.00  0.00    -0.088 HD
ATOM      5  H3  UNL     1      38.217 -25.768 -16.201  0.00  0.00    -0.088 HD
ENDBRANCH   1   2
BRANCH   1   7
ATOM      6  OXT UNL     1      40.994 -26.459 -13.952  0.00  0.00    -0.253 OA
ATOM      7  C   UNL     1      40.245 -25.920 -14.757  0.00  0.00    +0.293 C 
BRANCH   7   8
ATOM      8  O   UNL     1      40.460 -25.956 -16.097  0.00  0.00    -0.482 OA
ATOM      9  H   UNL     1      40.960 -26.655 -16.473  0.00  0.00    +0.295 HD
ENDBRANCH   7   8
ENDBRANCH   1   7
BRANCH   1  10
ATOM     10  C   UNL     1      38.609 -25.362 -12.920  0.00  0.00    -0.008 C 
BRANCH  10  11
ATOM     11  C   UNL     1      37.250 -24.746 -12.558  0.00  0.00    +0.030 C 
BRANCH  11  12
ATOM     12  C   UNL     1      37.364 -23.266 -12.211  0.00  0.00    +0.137 C 
BRANCH  12  13
ATOM     13  O   UNL     1      38.628 -23.002 -11.620  0.00  0.00    -0.382 OA
ATOM     14  H   UNL     1      39.330 -23.185 -12.264  0.00  0.00    +0.210 HD
ENDBRANCH  12  13
ENDBRANCH  11  12
ENDBRANCH  10  11
ENDBRANCH   1  10
TORSDOF 7
ENDMDL
MODEL 2
REMARK VINA RESULT:      -5.1      1.634      1.634
REMARK  Name = 5287587
REMARK  7 active torsions:
REMARK  status: ('A' for Active; 'I' for Inactive)
REMARK    1  A    between atoms: CA_1  and  N_2
REMARK    2  A    between atoms: CA_1  and  C_7
REMARK    3  A    between atoms: CA_1  and  C_10
REMARK    4  A    between atoms: C_7  and  O_8
REMARK    5  A    between atoms: C_10  and  C_11
REMARK    6  A    between atoms: C_11  and  C_12
REMARK    7  A    between atoms: C_12  and  O_13
REMARK                            x       y       z     vdW  Elec       q    Type
REMARK                         _______ _______ _______ _____ _____    ______ ____
ROOT
ATOM      1  CA  UNL     1      38.702 -25.745 -14.407  0.00  0.00    +0.036 C 
ENDROOT
BRANCH   1   2
ATOM      2  N   UNL     1      37.965 -27.008 -14.482  0.00  0.00    +0.389 N 
ATOM      3  H1  UNL     1      36.963 -26.821 -14.448  0.00  0.00    -0.088 HD
ATOM      4  H2  UNL     1      38.225 -27.602 -13.694  0.00  0.00    -0.088 HD
ATOM      5  H3  UNL     1      38.193 -27.484 -15.354  0.00  0.00    -0.088 HD
ENDBRANCH   1   2
BRANCH   1   7
ATOM      6  OXT UNL     1      40.987 -26.426 -13.902  0.00  0.00    -0.253 OA
ATOM      7  C   UNL     1      40.156 -26.052 -14.720  0.00  0.00    +0.293 C 
BRANCH   7   8
ATOM      8  O   UNL     1      40.445 -25.891 -16.037  0.00  0.00    -0.482 OA
ATOM      9  H   UNL     1      40.688 -25.046 -16.363  0.00  0.00    +0.295 HD
ENDBRANCH   7   8
ENDBRANCH   1   7
BRANCH   1  10
ATOM     10  C   UNL     1      38.545 -25.149 -13.002  0.00  0.00    -0.008 C 
BRANCH  10  11
ATOM     11  C   UNL     1      37.279 -25.639 -12.286  0.00  0.00    +0.030 C 
BRANCH  11  12
ATOM     12  C   UNL     1      36.161 -24.603 -12.319  0.00  0.00    +0.137 C 
BRANCH  12  13
ATOM     13  O   UNL     1      35.043 -25.073 -11.580  0.00  0.00    -0.382 OA
ATOM     14  H   UNL     1      34.300 -25.230 -12.183  0.00  0.00    +0.210 HD
ENDBRANCH  12  13
ENDBRANCH  11  12
ENDBRANCH  10  11
ENDBRANCH   1  10
TORSDOF 7
ENDMDL
MODEL 3
REMARK VINA RESULT:      -5.0      8.820      9.775
REMARK  Name = 5287587
REMARK  7 active torsions:
REMARK  status: ('A' for Active; 'I' for Inactive)
REMARK    1  A    between atoms: CA_1  and  N_2
REMARK    2  A    between atoms: CA_1  and  C_7
REMARK    3  A    between atoms: CA_1  and  C_10
REMARK    4  A    between atoms: C_7  and  O_8
REMARK    5  A    between atoms: C_10  and  C_11
REMARK    6  A    between atoms: C_11  and  C_12
REMARK    7  A    between atoms: C_12  and  O_13
REMARK                            x       y       z     vdW  Elec       q    Type
REMARK                         _______ _______ _______ _____ _____    ______ ____
ROOT
ATOM      1  CA  UNL     1      30.229 -25.010 -14.948  0.00  0.00    +0.036 C 
ENDROOT
BRANCH   1   2
ATOM      2  N   UNL     1      28.887 -25.412 -14.521  0.00  0.00    +0.389 N 
ATOM      3  H1  UNL     1      28.900 -25.644 -13.527  0.00  0.00    -0.088 HD
ATOM      4  H2  UNL     1      28.590 -26.229 -15.055  0.00  0.00    -0.088 HD
ATOM      5  H3  UNL     1      28.234 -24.645 -14.682  0.00  0.00    -0.088 HD
ENDBRANCH   1   2
BRANCH   1   7
ATOM      6  OXT UNL     1      30.745 -24.211 -12.704  0.00  0.00    -0.253 OA
ATOM      7  C   UNL     1      31.073 -24.852 -13.694  0.00  0.00    +0.293 C 
BRANCH   7   8
ATOM      8  O   UNL     1      32.246 -25.531 -13.773  0.00  0.00    -0.482 OA
ATOM      9  H   UNL     1      32.781 -25.632 -13.009  0.00  0.00    +0.295 HD
ENDBRANCH   7   8
ENDBRANCH   1   7
BRANCH   1  10
ATOM     10  C   UNL     1      30.139 -23.696 -15.733  0.00  0.00    -0.008 C 
BRANCH  10  11
ATOM     11  C   UNL     1      28.749 -23.050 -15.655  0.00  0.00    +0.030 C 
BRANCH  11  12
ATOM     12  C   UNL     1      28.052 -23.019 -17.010  0.00  0.00    +0.137 C 
BRANCH  12  13
ATOM     13  O   UNL     1      27.785 -24.344 -17.448  0.00  0.00    -0.382 OA
ATOM     14  H   UNL     1      27.280 -24.814 -16.767  0.00  0.00    +0.210 HD
ENDBRANCH  12  13
ENDBRANCH  11  12
ENDBRANCH  10  11
ENDBRANCH   1  10
TORSDOF 7
ENDMDL
MODEL 4
REMARK VINA RESULT:      -5.0      1.178      1.505
REMARK  Name = 5287587
REMARK  7 active torsions:
REMARK  status: ('A' for Active; 'I' for Inactive)
REMARK    1  A    between atoms: CA_1  and  N_2
REMARK    2  A    between atoms: CA_1  and  C_7
REMARK    3  A    between atoms: CA_1  and  C_10
REMARK    4  A    between atoms: C_7  and  O_8
REMARK    5  A    between atoms: C_10  and  C_11
REMARK    6  A    between atoms: C_11  and  C_12
REMARK    7  A    between atoms: C_12  and  O_13
REMARK                            x       y       z     vdW  Elec       q    Type
REMARK                         _______ _______ _______ _____ _____    ______ ____
ROOT
ATOM      1  CA  UNL     1      38.576 -25.506 -14.541  0.00  0.00    +0.036 C 
ENDROOT
BRANCH   1   2
ATOM      2  N   UNL     1      38.455 -26.248 -13.284  0.00  0.00    +0.389 N 
ATOM      3  H1  UNL     1      37.476 -26.487 -13.122  0.00  0.00    -0.088 HD
ATOM      4  H2  UNL     1      38.795 -25.670 -12.514  0.00  0.00    -0.088 HD
ATOM      5  H3  UNL     1      39.009 -27.102 -13.337  0.00  0.00    -0.088 HD
ENDBRANCH   1   2
BRANCH   1   7
ATOM      6  OXT UNL     1      40.600 -25.985 -15.812  0.00  0.00    -0.253 OA
ATOM      7  C   UNL     1      40.056 -25.419 -14.872  0.00  0.00    +0.293 C 
BRANCH   7   8
ATOM      8  O   UNL     1      40.729 -24.609 -14.015  0.00  0.00    -0.482 OA
ATOM      9  H   UNL     1      41.274 -24.981 -13.349  0.00  0.00    +0.295 HD
ENDBRANCH   7   8
ENDBRANCH   1   7
BRANCH   1  10
ATOM     10  C   UNL     1      37.956 -24.114 -14.371  0.00  0.00    -0.008 C 
BRANCH  10  11
ATOM     11  C   UNL     1      37.021 -24.024 -13.157  0.00  0.00    +0.030 C 
BRANCH  11  12
ATOM     12  C   UNL     1      37.542 -23.055 -12.102  0.00  0.00    +0.137 C 
BRANCH  12  13
ATOM     13  O   UNL     1      38.877 -23.392 -11.751  0.00  0.00    -0.382 OA
ATOM     14  H   UNL     1      38.889 -23.778 -10.861  0.00  0.00    +0.210 HD
ENDBRANCH  12  13
ENDBRANCH  11  12
ENDBRANCH  10  11
ENDBRANCH   1  10
TORSDOF 7
ENDMDL
MODEL 5
REMARK VINA RESULT:      -4.9      1.263      4.309
REMARK  Name = 5287587
REMARK  7 active torsions:
REMARK  status: ('A' for Active; 'I' for Inactive)
REMARK    1  A    between atoms: CA_1  and  N_2
REMARK    2  A    between atoms: CA_1  and  C_7
REMARK    3  A    between atoms: CA_1  and  C_10
REMARK    4  A    between atoms: C_7  and  O_8
REMARK    5  A    between atoms: C_10  and  C_11
REMARK    6  A    between atoms: C_11  and  C_12
REMARK    7  A    between atoms: C_12  and  O_13
REMARK                            x       y       z     vdW  Elec       q    Type
REMARK                         _______ _______ _______ _____ _____    ______ ____
ROOT
ATOM      1  CA  UNL     1      37.207 -24.454 -12.847  0.00  0.00    +0.036 C 
ENDROOT
BRANCH   1   2
ATOM      2  N   UNL     1      37.301 -23.470 -13.928  0.00  0.00    +0.389 N 
ATOM      3  H1  UNL     1      37.808 -22.649 -13.599  0.00  0.00    -0.088 HD
ATOM      4  H2  UNL     1      36.362 -23.195 -14.220  0.00  0.00    -0.088 HD
ATOM      5  H3  UNL     1      37.795 -23.881 -14.720  0.00  0.00    -0.088 HD
ENDBRANCH   1   2
BRANCH   1   7
ATOM      6  OXT UNL     1      36.726 -23.925 -10.517  0.00  0.00    -0.253 OA
ATOM      7  C   UNL     1      37.365 -23.701 -11.538  0.00  0.00    +0.293 C 
BRANCH   7   8
ATOM      8  O   UNL     1      38.328 -22.746 -11.605  0.00  0.00    -0.482 OA
ATOM      9  H   UNL     1      39.176 -22.959 -11.942  0.00  0.00    +0.295 HD
ENDBRANCH   7   8
ENDBRANCH   1   7
BRANCH   1  10
ATOM     10  C   UNL     1      38.306 -25.509 -13.024  0.00  0.00    -0.008 C 
BRANCH  10  11
ATOM     11  C   UNL     1      38.695 -25.722 -14.494  0.00  0.00    +0.030 C 
BRANCH  11  12
ATOM     12  C   UNL     1      40.201 -25.630 -14.710  0.00  0.00    +0.137 C 
BRANCH  12  13
ATOM     13  O   UNL     1      40.523 -26.004 -16.042  0.00  0.00    -0.382 OA
ATOM     14  H   UNL     1      40.950 -26.875 -16.038  0.00  0.00    +0.210 HD
ENDBRANCH  12  13
ENDBRANCH  11  12
ENDBRANCH  10  11
ENDBRANCH   1  10
TORSDOF 7
ENDMDL
MODEL 6
REMARK VINA RESULT:      -4.9      8.872      9.852
REMARK  Name = 5287587
REMARK  7 active torsions:
REMARK  status: ('A' for Active; 'I' for Inactive)
REMARK    1  A    between atoms: CA_1  and  N_2
REMARK    2  A    between atoms: CA_1  and  C_7
REMARK    3  A    between atoms: CA_1  and  C_10
REMARK    4  A    between atoms: C_7  and  O_8
REMARK    5  A    between atoms: C_10  and  C_11
REMARK    6  A    between atoms: C_11  and  C_12
REMARK    7  A    between atoms: C_12  and  O_13
REMARK                            x       y       z     vdW  Elec       q    Type
REMARK                         _______ _______ _______ _____ _____    ______ ____
ROOT
ATOM      1  CA  UNL     1      29.271 -23.574 -15.460  0.00  0.00    +0.036 C 
ENDROOT
BRANCH   1   2
ATOM      2  N   UNL     1      28.952 -24.929 -15.003  0.00  0.00    +0.389 N 
ATOM      3  H1  UNL     1      28.485 -25.440 -15.752  0.00  0.00    -0.088 HD
ATOM      4  H2  UNL     1      28.336 -24.878 -14.191  0.00  0.00    -0.088 HD
ATOM      5  H3  UNL     1      29.812 -25.413 -14.747  0.00  0.00    -0.088 HD
ENDBRANCH   1   2
BRANCH   1   7
ATOM      6  OXT UNL     1      27.868 -24.180 -17.359  0.00  0.00    -0.253 OA
ATOM      7  C   UNL     1      28.456 -23.319 -16.716  0.00  0.00    +0.293 C 
BRANCH   7   8
ATOM      8  O   UNL     1      28.421 -22.003 -17.050  0.00  0.00    -0.482 OA
ATOM      9  H   UNL     1      28.862 -21.372 -16.514  0.00  0.00    +0.295 HD
ENDBRANCH   7   8
ENDBRANCH   1   7
BRANCH   1  10
ATOM     10  C   UNL     1      30.776 -23.474 -15.737  0.00  0.00    -0.008 C 
BRANCH  10  11
ATOM     11  C   UNL     1      31.592 -23.145 -14.480  0.00  0.00    +0.030 C 
BRANCH  11  12
ATOM     12  C   UNL     1      32.592 -24.243 -14.139  0.00  0.00    +0.137 C 
BRANCH  12  13
ATOM     13  O   UNL     1      31.907 -25.462 -13.886  0.00  0.00    -0.382 OA
ATOM     14  H   UNL     1      32.543 -26.194 -13.874  0.00  0.00    +0.210 HD
ENDBRANCH  12  13
ENDBRANCH  11  12
ENDBRANCH  10  11
ENDBRANCH   1  10
TORSDOF 7
ENDMDL
MODEL 7
REMARK VINA RESULT:      -4.9      3.142      4.836
REMARK  Name = 5287587
REMARK  7 active torsions:
REMARK  status: ('A' for Active; 'I' for Inactive)
REMARK    1  A    between atoms: CA_1  and  N_2
REMARK    2  A    between atoms: CA_1  and  C_7
REMARK    3  A    between atoms: CA_1  and  C_10
REMARK    4  A    between atoms: C_7  and  O_8
REMARK    5  A    between atoms: C_10  and  C_11
REMARK    6  A    between atoms: C_11  and  C_12
REMARK    7  A    between atoms: C_12  and  O_13
REMARK                            x       y       z     vdW  Elec       q    Type
REMARK                         _______ _______ _______ _____ _____    ______ ____
ROOT
ATOM      1  CA  UNL     1      36.879 -23.746 -11.968  0.00  0.00    +0.036 C 
ENDROOT
BRANCH   1   2
ATOM      2  N   UNL     1      37.451 -22.567 -11.315  0.00  0.00    +0.389 N 
ATOM      3  H1  UNL     1      37.365 -21.759 -11.932  0.00  0.00    -0.088 HD
ATOM      4  H2  UNL     1      38.437 -22.735 -11.112  0.00  0.00    -0.088 HD
ATOM      5  H3  UNL     1      36.952 -22.384 -10.444  0.00  0.00    -0.088 HD
ENDBRANCH   1   2
BRANCH   1   7
ATOM      6  OXT UNL     1      35.919 -24.248  -9.784  0.00  0.00    -0.253 OA
ATOM      7  C   UNL     1      35.874 -24.352 -11.004  0.00  0.00    +0.293 C 
BRANCH   7   8
ATOM      8  O   UNL     1      34.879 -25.018 -11.646  0.00  0.00    -0.482 OA
ATOM      9  H   UNL     1      34.533 -25.808 -11.280  0.00  0.00    +0.295 HD
ENDBRANCH   7   8
ENDBRANCH   1   7
BRANCH   1  10
ATOM     10  C   UNL     1      38.002 -24.735 -12.303  0.00  0.00    -0.008 C 
BRANCH  10  11
ATOM     11  C   UNL     1      38.114 -25.021 -13.807  0.00  0.00    +0.030 C 
BRANCH  11  12
ATOM     12  C   UNL     1      37.311 -26.249 -14.221  0.00  0.00    +0.137 C 
BRANCH  12  13
ATOM     13  O   UNL     1      36.842 -26.932 -13.067  0.00  0.00    -0.382 OA
ATOM     14  H   UNL     1      37.585 -27.100 -12.467  0.00  0.00    +0.210 HD
ENDBRANCH  12  13
ENDBRANCH  11  12
ENDBRANCH  10  11
ENDBRANCH   1  10
TORSDOF 7
ENDMDL
MODEL 8
REMARK VINA RESULT:      -4.8      3.013      5.062
REMARK  Name = 5287587
REMARK  7 active torsions:
REMARK  status: ('A' for Active; 'I' for Inactive)
REMARK    1  A    between atoms: CA_1  and  N_2
REMARK    2  A    between atoms: CA_1  and  C_7
REMARK    3  A    between atoms: CA_1  and  C_10
REMARK    4  A    between atoms: C_7  and  O_8
REMARK    5  A    between atoms: C_10  and  C_11
REMARK    6  A    between atoms: C_11  and  C_12
REMARK    7  A    between atoms: C_12  and  O_13
REMARK                            x       y       z     vdW  Elec       q    Type
REMARK                         _______ _______ _______ _____ _____    ______ ____
ROOT
ATOM      1  CA  UNL     1      35.955 -24.506 -12.248  0.00  0.00    +0.036 C 
ENDROOT
BRANCH   1   2
ATOM      2  N   UNL     1      34.953 -23.628 -12.857  0.00  0.00    +0.389 N 
ATOM      3  H1  UNL     1      35.026 -22.694 -12.453  0.00  0.00    -0.088 HD
ATOM      4  H2  UNL     1      34.020 -24.002 -12.681  0.00  0.00    -0.088 HD
ATOM      5  H3  UNL     1      35.112 -23.576 -13.863  0.00  0.00    -0.088 HD
ENDBRANCH   1   2
BRANCH   1   7
ATOM      6  OXT UNL     1      37.307 -22.814 -11.131  0.00  0.00    -0.253 OA
ATOM      7  C   UNL     1      36.539 -23.765 -11.058  0.00  0.00    +0.293 C 
BRANCH   7   8
ATOM      8  O   UNL     1      36.093 -24.258  -9.873  0.00  0.00    -0.482 OA
ATOM      9  H   UNL     1      36.505 -25.011  -9.495  0.00  0.00    +0.295 HD
ENDBRANCH   7   8
ENDBRANCH   1   7
BRANCH   1  10
ATOM     10  C   UNL     1      37.033 -24.841 -13.285  0.00  0.00    -0.008 C 
BRANCH  10  11
ATOM     11  C   UNL     1      36.454 -25.441 -14.573  0.00  0.00    +0.030 C 
BRANCH  11  12
ATOM     12  C   UNL     1      37.117 -26.764 -14.940  0.00  0.00    +0.137 C 
BRANCH  12  13
ATOM     13  O   UNL     1      36.708 -27.167 -16.240  0.00  0.00    -0.382 OA
ATOM     14  H   UNL     1      35.816 -26.832 -16.416  0.00  0.00    +0.210 HD
ENDBRANCH  12  13
ENDBRANCH  11  12
ENDBRANCH  10  11
ENDBRANCH   1  10
TORSDOF 7
ENDMDL
MODEL 9
REMARK VINA RESULT:      -4.8     10.578     11.134
REMARK  Name = 5287587
REMARK  7 active torsions:
REMARK  status: ('A' for Active; 'I' for Inactive)
REMARK    1  A    between atoms: CA_1  and  N_2
REMARK    2  A    between atoms: CA_1  and  C_7
REMARK    3  A    between atoms: CA_1  and  C_10
REMARK    4  A    between atoms: C_7  and  O_8
REMARK    5  A    between atoms: C_10  and  C_11
REMARK    6  A    between atoms: C_11  and  C_12
REMARK    7  A    between atoms: C_12  and  O_13
REMARK                            x       y       z     vdW  Elec       q    Type
REMARK                         _______ _______ _______ _____ _____    ______ ____
ROOT
ATOM      1  CA  UNL     1      42.257 -15.576 -17.705  0.00  0.00    +0.036 C 
ENDROOT
BRANCH   1   2
ATOM      2  N   UNL     1      42.299 -16.391 -18.921  0.00  0.00    +0.389 N 
ATOM      3  H1  UNL     1      43.269 -16.599 -19.158  0.00  0.00    -0.088 HD
ATOM      4  H2  UNL     1      41.865 -15.878 -19.690  0.00  0.00    -0.088 HD
ATOM      5  H3  UNL     1      41.793 -17.262 -18.765  0.00  0.00    -0.088 HD
ENDBRANCH   1   2
BRANCH   1   7
ATOM      6  OXT UNL     1      41.779 -16.161 -15.388  0.00  0.00    -0.253 OA
ATOM      7  C   UNL     1      41.822 -16.485 -16.568  0.00  0.00    +0.293 C 
BRANCH   7   8
ATOM      8  O   UNL     1      41.454 -17.717 -17.005  0.00  0.00    -0.482 OA
ATOM      9  H   UNL     1      42.043 -18.441 -16.915  0.00  0.00    +0.295 HD
ENDBRANCH   7   8
ENDBRANCH   1   7
BRANCH   1  10
ATOM     10  C   UNL     1      41.272 -14.417 -17.905  0.00  0.00    -0.008 C 
BRANCH  10  11
ATOM     11  C   UNL     1      41.919 -13.042 -17.693  0.00  0.00    +0.030 C 
BRANCH  11  12
ATOM     12  C   UNL     1      42.621 -12.938 -16.344  0.00  0.00    +0.137 C 
BRANCH  12  13
ATOM     13  O   UNL     1      41.679 -13.113 -15.294  0.00  0.00    -0.382 OA
ATOM     14  H   UNL     1      42.147 -13.158 -14.445  0.00  0.00    +0.210 HD
ENDBRANCH  12  13
ENDBRANCH  11  12
ENDBRANCH  10  11
ENDBRANCH   1  10
TORSDOF 7
ENDMDL
