MODEL 1
REMARK VINA RESULT:      -9.0      0.000      0.000
REMARK  Name = 4369433
REMARK  5 active torsions:
REMARK  status: ('A' for Active; 'I' for Inactive)
REMARK    1  A    between atoms: N_2  and  C_25
REMARK    2  A    between atoms: C_5  and  C_13
REMARK    3  A    between atoms: C_7  and  C_19
REMARK    4  A    between atoms: C_25  and  C_26
REMARK    5  A    between atoms: C_26  and  O_27
REMARK                            x       y       z     vdW  Elec       q    Type
REMARK                         _______ _______ _______ _____ _____    ______ ____
ROOT
ATOM      1  N   UNL     1      31.979 -11.039 -21.825  0.00  0.00    -0.301 N 
ATOM      2  N   UNL     1      34.250 -14.530 -23.938  0.00  0.00    -0.319 N 
ATOM      3  N   UNL     1      31.831 -13.188 -20.740  0.00  0.00    -0.233 NA
ATOM      4  N   UNL     1      33.049 -14.934 -21.920  0.00  0.00    -0.233 NA
ATOM      5  C   UNL     1      33.248 -11.559 -23.578  0.00  0.00    +0.005 C 
ATOM      6  C   UNL     1      33.053 -12.731 -22.806  0.00  0.00    +0.131 C 
ATOM      7  C   UNL     1      32.577 -10.531 -22.950  0.00  0.00    +0.046 C 
ATOM      8  C   UNL     1      32.258 -12.376 -21.723  0.00  0.00    +0.117 C 
ATOM      9  C   UNL     1      33.446 -14.067 -22.880  0.00  0.00    +0.113 C 
ATOM     10  C   UNL     1      32.276 -14.447 -20.924  0.00  0.00    +0.252 C 
ATOM     11  H   UNL     1      31.433 -10.522 -21.189  0.00  0.00    +0.153 HD
ATOM     12  H   UNL     1      34.531 -13.889 -24.630  0.00  0.00    +0.148 HD
ENDROOT
BRANCH   5  13
ATOM     13  C   UNL     1      33.990 -11.377 -24.796  0.00  0.00    -0.002 C 
ATOM     14  C   UNL     1      33.625 -12.079 -25.945  0.00  0.00    -0.000 C 
ATOM     15  C   UNL     1      35.073 -10.499 -24.827  0.00  0.00    -0.000 C 
ATOM     16  C   UNL     1      34.346 -11.902 -27.126  0.00  0.00    -0.000 C 
ATOM     17  C   UNL     1      35.793 -10.323 -26.009  0.00  0.00    -0.000 C 
ATOM     18  C   UNL     1      35.429 -11.025 -27.159  0.00  0.00    -0.000 C 
ENDBRANCH   5  13
BRANCH   7  19
ATOM     19  C   UNL     1      32.439  -9.135 -23.300  0.00  0.00    +0.013 C 
ATOM     20  C   UNL     1      31.231  -8.661 -23.806  0.00  0.00    +0.001 C 
ATOM     21  C   UNL     1      33.516  -8.268 -23.127  0.00  0.00    +0.001 C 
ATOM     22  C   UNL     1      31.100  -7.314 -24.142  0.00  0.00    +0.000 C 
ATOM     23  C   UNL     1      33.385  -6.921 -23.464  0.00  0.00    +0.000 C 
ATOM     24  C   UNL     1      32.177  -6.443 -23.971  0.00  0.00    +0.000 C 
ENDBRANCH   7  19
BRANCH   2  25
ATOM     25  C   UNL     1      34.679 -15.892 -24.054  0.00  0.00    +0.120 C 
BRANCH  25  26
ATOM     26  C   UNL     1      34.016 -16.544 -25.255  0.00  0.00    +0.158 C 
BRANCH  26  27
ATOM     27  O   UNL     1      33.858 -15.582 -26.290  0.00  0.00    -0.380 OA
ATOM     28  H   UNL     1      34.465 -14.841 -26.139  0.00  0.00    +0.211 HD
ENDBRANCH  26  27
ENDBRANCH  25  26
ENDBRANCH   2  25
TORSDOF 5
ENDMDL
MODEL 2
REMARK VINA RESULT:      -8.8      2.379      5.926
REMARK  Name = 4369433
REMARK  5 active torsions:
REMARK  status: ('A' for Active; 'I' for Inactive)
REMARK    1  A    between atoms: N_2  and  C_25
REMARK    2  A    between atoms: C_5  and  C_13
REMARK    3  A    between atoms: C_7  and  C_19
REMARK    4  A    between atoms: C_25  and  C_26
REMARK    5  A    between atoms: C_26  and  O_27
REMARK                            x       y       z     vdW  Elec       q    Type
REMARK                         _______ _______ _______ _____ _____    ______ ____
ROOT
ATOM      1  N   UNL     1      32.367 -13.536 -22.029  0.00  0.00    -0.301 N 
ATOM      2  N   UNL     1      32.512  -9.101 -23.483  0.00  0.00    -0.319 N 
ATOM      3  N   UNL     1      31.131 -11.958 -20.688  0.00  0.00    -0.233 NA
ATOM      4  N   UNL     1      31.271  -9.679 -21.533  0.00  0.00    -0.233 NA
ATOM      5  C   UNL     1      33.188 -12.182 -23.593  0.00  0.00    +0.005 C 
ATOM      6  C   UNL     1      32.413 -11.407 -22.694  0.00  0.00    +0.131 C 
ATOM      7  C   UNL     1      33.142 -13.490 -23.160  0.00  0.00    +0.046 C 
ATOM      8  C   UNL     1      31.916 -12.277 -21.732  0.00  0.00    +0.117 C 
ATOM      9  C   UNL     1      32.060 -10.064 -22.563  0.00  0.00    +0.113 C 
ATOM     10  C   UNL     1      30.861 -10.637 -20.671  0.00  0.00    +0.252 C 
ATOM     11  H   UNL     1      32.166 -14.349 -21.511  0.00  0.00    +0.153 HD
ATOM     12  H   UNL     1      33.086  -9.394 -24.227  0.00  0.00    +0.148 HD
ENDROOT
BRANCH   5  13
ATOM     13  C   UNL     1      33.919 -11.771 -24.761  0.00  0.00    -0.002 C 
ATOM     14  C   UNL     1      34.901 -10.787 -24.658  0.00  0.00    -0.000 C 
ATOM     15  C   UNL     1      33.643 -12.359 -25.995  0.00  0.00    -0.000 C 
ATOM     16  C   UNL     1      35.609 -10.390 -25.792  0.00  0.00    -0.000 C 
ATOM     17  C   UNL     1      34.352 -11.960 -27.129  0.00  0.00    -0.000 C 
ATOM     18  C   UNL     1      35.335 -10.976 -27.027  0.00  0.00    -0.000 C 
ENDBRANCH   5  13
BRANCH   7  19
ATOM     19  C   UNL     1      33.749 -14.688 -23.695  0.00  0.00    +0.013 C 
ATOM     20  C   UNL     1      34.713 -15.368 -22.955  0.00  0.00    +0.001 C 
ATOM     21  C   UNL     1      33.365 -15.158 -24.949  0.00  0.00    +0.001 C 
ATOM     22  C   UNL     1      35.297 -16.524 -23.473  0.00  0.00    +0.000 C 
ATOM     23  C   UNL     1      33.950 -16.314 -25.467  0.00  0.00    +0.000 C 
ATOM     24  C   UNL     1      34.916 -16.998 -24.729  0.00  0.00    +0.000 C 
ENDBRANCH   7  19
BRANCH   2  25
ATOM     25  C   UNL     1      32.174  -7.712 -23.388  0.00  0.00    +0.120 C 
BRANCH  25  26
ATOM     26  C   UNL     1      33.094  -7.021 -22.396  0.00  0.00    +0.158 C 
BRANCH  26  27
ATOM     27  O   UNL     1      32.384  -6.756 -21.194  0.00  0.00    -0.380 OA
ATOM     28  H   UNL     1      31.640  -7.373 -21.115  0.00  0.00    +0.211 HD
ENDBRANCH  26  27
ENDBRANCH  25  26
ENDBRANCH   2  25
TORSDOF 5
ENDMDL
MODEL 3
REMARK VINA RESULT:      -8.7     13.303     15.836
REMARK  Name = 4369433
REMARK  5 active torsions:
REMARK  status: ('A' for Active; 'I' for Inactive)
REMARK    1  A    between atoms: N_2  and  C_25
REMARK    2  A    between atoms: C_5  and  C_13
REMARK    3  A    between atoms: C_7  and  C_19
REMARK    4  A    between atoms: C_25  and  C_26
REMARK    5  A    between atoms: C_26  and  O_27
REMARK                            x       y       z     vdW  Elec       q    Type
REMARK                         _______ _______ _______ _____ _____    ______ ____
ROOT
ATOM      1  N   UNL     1      34.065 -24.729 -12.794  0.00  0.00    -0.301 N 
ATOM      2  N   UNL     1      37.919 -23.959 -15.317  0.00  0.00    -0.319 N 
ATOM      3  N   UNL     1      36.145 -25.326 -11.729  0.00  0.00    -0.233 NA
ATOM      4  N   UNL     1      38.089 -24.883 -13.127  0.00  0.00    -0.233 NA
ATOM      5  C   UNL     1      34.814 -23.970 -14.747  0.00  0.00    +0.005 C 
ATOM      6  C   UNL     1      35.928 -24.374 -13.969  0.00  0.00    +0.131 C 
ATOM      7  C   UNL     1      33.680 -24.199 -13.998  0.00  0.00    +0.046 C 
ATOM      8  C   UNL     1      35.430 -24.843 -12.760  0.00  0.00    +0.117 C 
ATOM      9  C   UNL     1      37.313 -24.409 -14.129  0.00  0.00    +0.113 C 
ATOM     10  C   UNL     1      37.465 -25.306 -12.005  0.00  0.00    +0.252 C 
ATOM     11  H   UNL     1      33.455 -24.989 -12.066  0.00  0.00    +0.153 HD
ATOM     12  H   UNL     1      37.343 -23.618 -16.038  0.00  0.00    +0.148 HD
ENDROOT
BRANCH   5  13
ATOM     13  C   UNL     1      34.776 -23.415 -16.073  0.00  0.00    -0.002 C 
ATOM     14  C   UNL     1      33.739 -23.756 -16.941  0.00  0.00    -0.000 C 
ATOM     15  C   UNL     1      35.776 -22.537 -16.488  0.00  0.00    -0.000 C 
ATOM     16  C   UNL     1      33.703 -23.218 -18.227  0.00  0.00    -0.000 C 
ATOM     17  C   UNL     1      35.739 -21.998 -17.775  0.00  0.00    -0.000 C 
ATOM     18  C   UNL     1      34.702 -22.339 -18.645  0.00  0.00    -0.000 C 
ENDBRANCH   5  13
BRANCH   7  19
ATOM     19  C   UNL     1      32.283 -23.973 -14.299  0.00  0.00    +0.013 C 
ATOM     20  C   UNL     1      31.810 -22.674 -14.468  0.00  0.00    +0.001 C 
ATOM     21  C   UNL     1      31.416 -25.057 -14.419  0.00  0.00    +0.001 C 
ATOM     22  C   UNL     1      30.463 -22.458 -14.758  0.00  0.00    +0.000 C 
ATOM     23  C   UNL     1      30.069 -24.841 -14.710  0.00  0.00    +0.000 C 
ATOM     24  C   UNL     1      29.592 -23.542 -14.879  0.00  0.00    +0.000 C 
ENDBRANCH   7  19
BRANCH   2  25
ATOM     25  C   UNL     1      39.336 -23.975 -15.524  0.00  0.00    +0.120 C 
BRANCH  25  26
ATOM     26  C   UNL     1      39.865 -25.392 -15.381  0.00  0.00    +0.158 C 
BRANCH  26  27
ATOM     27  O   UNL     1      41.004 -25.390 -14.530  0.00  0.00    -0.380 OA
ATOM     28  H   UNL     1      40.858 -24.773 -13.796  0.00  0.00    +0.211 HD
ENDBRANCH  26  27
ENDBRANCH  25  26
ENDBRANCH   2  25
TORSDOF 5
ENDMDL
MODEL 4
REMARK VINA RESULT:      -8.5     12.521     15.540
REMARK  Name = 4369433
REMARK  5 active torsions:
REMARK  status: ('A' for Active; 'I' for Inactive)
REMARK    1  A    between atoms: N_2  and  C_25
REMARK    2  A    between atoms: C_5  and  C_13
REMARK    3  A    between atoms: C_7  and  C_19
REMARK    4  A    between atoms: C_25  and  C_26
REMARK    5  A    between atoms: C_26  and  O_27
REMARK                            x       y       z     vdW  Elec       q    Type
REMARK                         _______ _______ _______ _____ _____    ______ ____
ROOT
ATOM      1  N   UNL     1      33.630 -24.941 -13.433  0.00  0.00    -0.301 N 
ATOM      2  N   UNL     1      30.861 -22.796 -16.522  0.00  0.00    -0.319 N 
ATOM      3  N   UNL     1      31.285 -24.891 -12.873  0.00  0.00    -0.233 NA
ATOM      4  N   UNL     1      29.932 -23.753 -14.547  0.00  0.00    -0.233 NA
ATOM      5  C   UNL     1      33.604 -23.856 -15.376  0.00  0.00    +0.005 C 
ATOM      6  C   UNL     1      32.276 -23.925 -14.887  0.00  0.00    +0.131 C 
ATOM      7  C   UNL     1      34.417 -24.491 -14.462  0.00  0.00    +0.046 C 
ATOM      8  C   UNL     1      32.325 -24.605 -13.676  0.00  0.00    +0.117 C 
ATOM      9  C   UNL     1      31.019 -23.495 -15.311  0.00  0.00    +0.113 C 
ATOM     10  C   UNL     1      30.130 -24.425 -13.391  0.00  0.00    +0.252 C 
ATOM     11  H   UNL     1      33.953 -25.430 -12.642  0.00  0.00    +0.153 HD
ATOM     12  H   UNL     1      31.659 -22.614 -17.068  0.00  0.00    +0.148 HD
ENDROOT
BRANCH   5  13
ATOM     13  C   UNL     1      34.105 -23.260 -16.586  0.00  0.00    -0.002 C 
ATOM     14  C   UNL     1      35.302 -22.544 -16.565  0.00  0.00    -0.000 C 
ATOM     15  C   UNL     1      33.393 -23.399 -17.776  0.00  0.00    -0.000 C 
ATOM     16  C   UNL     1      35.786 -21.966 -17.738  0.00  0.00    -0.000 C 
ATOM     17  C   UNL     1      33.879 -22.821 -18.949  0.00  0.00    -0.000 C 
ATOM     18  C   UNL     1      35.076 -22.104 -18.930  0.00  0.00    -0.000 C 
ENDBRANCH   5  13
BRANCH   7  19
ATOM     19  C   UNL     1      35.847 -24.712 -14.456  0.00  0.00    +0.013 C 
ATOM     20  C   UNL     1      36.686 -23.813 -13.802  0.00  0.00    +0.001 C 
ATOM     21  C   UNL     1      36.378 -25.824 -15.105  0.00  0.00    +0.001 C 
ATOM     22  C   UNL     1      38.064 -24.027 -13.798  0.00  0.00    +0.000 C 
ATOM     23  C   UNL     1      37.757 -26.038 -15.100  0.00  0.00    +0.000 C 
ATOM     24  C   UNL     1      38.600 -25.140 -14.447  0.00  0.00    +0.000 C 
ENDBRANCH   7  19
BRANCH   2  25
ATOM     25  C   UNL     1      29.590 -22.337 -16.997  0.00  0.00    +0.120 C 
BRANCH  25  26
ATOM     26  C   UNL     1      28.626 -23.506 -17.113  0.00  0.00    +0.158 C 
BRANCH  26  27
ATOM     27  O   UNL     1      27.551 -23.151 -17.973  0.00  0.00    -0.380 OA
ATOM     28  H   UNL     1      27.399 -23.864 -18.612  0.00  0.00    +0.211 HD
ENDBRANCH  26  27
ENDBRANCH  25  26
ENDBRANCH   2  25
TORSDOF 5
ENDMDL
MODEL 5
REMARK VINA RESULT:      -8.1      2.475      6.052
REMARK  Name = 4369433
REMARK  5 active torsions:
REMARK  status: ('A' for Active; 'I' for Inactive)
REMARK    1  A    between atoms: N_2  and  C_25
REMARK    2  A    between atoms: C_5  and  C_13
REMARK    3  A    between atoms: C_7  and  C_19
REMARK    4  A    between atoms: C_25  and  C_26
REMARK    5  A    between atoms: C_26  and  O_27
REMARK                            x       y       z     vdW  Elec       q    Type
REMARK                         _______ _______ _______ _____ _____    ______ ____
ROOT
ATOM      1  N   UNL     1      32.753 -13.735 -20.571  0.00  0.00    -0.301 N 
ATOM      2  N   UNL     1      31.704 -10.033 -23.218  0.00  0.00    -0.319 N 
ATOM      3  N   UNL     1      31.684 -11.902 -19.424  0.00  0.00    -0.233 NA
ATOM      4  N   UNL     1      31.179 -10.027 -20.893  0.00  0.00    -0.233 NA
ATOM      5  C   UNL     1      32.853 -12.915 -22.638  0.00  0.00    +0.005 C 
ATOM      6  C   UNL     1      32.236 -11.949 -21.804  0.00  0.00    +0.131 C 
ATOM      7  C   UNL     1      33.160 -14.006 -21.852  0.00  0.00    +0.046 C 
ATOM      8  C   UNL     1      32.189 -12.487 -20.524  0.00  0.00    +0.117 C 
ATOM      9  C   UNL     1      31.704 -10.669 -21.963  0.00  0.00    +0.113 C 
ATOM     10  C   UNL     1      31.202 -10.675 -19.707  0.00  0.00    +0.252 C 
ATOM     11  H   UNL     1      32.851 -14.343 -19.803  0.00  0.00    +0.153 HD
ATOM     12  H   UNL     1      32.089 -10.511 -23.987  0.00  0.00    +0.148 HD
ENDROOT
BRANCH   5  13
ATOM     13  C   UNL     1      33.144 -12.859 -24.045  0.00  0.00    -0.002 C 
ATOM     14  C   UNL     1      32.609 -13.818 -24.905  0.00  0.00    -0.000 C 
ATOM     15  C   UNL     1      33.960 -11.847 -24.546  0.00  0.00    -0.000 C 
ATOM     16  C   UNL     1      32.892 -13.763 -26.270  0.00  0.00    -0.000 C 
ATOM     17  C   UNL     1      34.243 -11.793 -25.911  0.00  0.00    -0.000 C 
ATOM     18  C   UNL     1      33.709 -12.751 -26.773  0.00  0.00    -0.000 C 
ENDBRANCH   5  13
BRANCH   7  19
ATOM     19  C   UNL     1      33.794 -15.263 -22.182  0.00  0.00    +0.013 C 
ATOM     20  C   UNL     1      34.602 -15.359 -23.312  0.00  0.00    +0.001 C 
ATOM     21  C   UNL     1      33.594 -16.375 -21.366  0.00  0.00    +0.001 C 
ATOM     22  C   UNL     1      35.213 -16.572 -23.628  0.00  0.00    +0.000 C 
ATOM     23  C   UNL     1      34.205 -17.588 -21.682  0.00  0.00    +0.000 C 
ATOM     24  C   UNL     1      35.014 -17.687 -22.814  0.00  0.00    +0.000 C 
ENDBRANCH   7  19
BRANCH   2  25
ATOM     25  C   UNL     1      31.168  -8.721 -23.427  0.00  0.00    +0.120 C 
BRANCH  25  26
ATOM     26  C   UNL     1      32.250  -7.678 -23.208  0.00  0.00    +0.158 C 
BRANCH  26  27
ATOM     27  O   UNL     1      32.140  -7.149 -21.892  0.00  0.00    -0.380 OA
ATOM     28  H   UNL     1      32.379  -6.209 -21.900  0.00  0.00    +0.211 HD
ENDBRANCH  26  27
ENDBRANCH  25  26
ENDBRANCH   2  25
TORSDOF 5
ENDMDL
MODEL 6
REMARK VINA RESULT:      -7.9      2.499      4.702
REMARK  Name = 4369433
REMARK  5 active torsions:
REMARK  status: ('A' for Active; 'I' for Inactive)
REMARK    1  A    between atoms: N_2  and  C_25
REMARK    2  A    between atoms: C_5  and  C_13
REMARK    3  A    between atoms: C_7  and  C_19
REMARK    4  A    between atoms: C_25  and  C_26
REMARK    5  A    between atoms: C_26  and  O_27
REMARK                            x       y       z     vdW  Elec       q    Type
REMARK                         _______ _______ _______ _____ _____    ______ ____
ROOT
ATOM      1  N   UNL     1      32.732 -11.739 -24.755  0.00  0.00    -0.301 N 
ATOM      2  N   UNL     1      34.014 -16.230 -24.731  0.00  0.00    -0.319 N 
ATOM      3  N   UNL     1      33.157 -12.714 -26.919  0.00  0.00    -0.233 NA
ATOM      4  N   UNL     1      33.816 -15.054 -26.795  0.00  0.00    -0.233 NA
ATOM      5  C   UNL     1      33.142 -13.485 -23.438  0.00  0.00    +0.005 C 
ATOM      6  C   UNL     1      33.346 -13.884 -24.783  0.00  0.00    +0.131 C 
ATOM      7  C   UNL     1      32.764 -12.160 -23.450  0.00  0.00    +0.046 C 
ATOM      8  C   UNL     1      33.084 -12.776 -25.578  0.00  0.00    +0.117 C 
ATOM      9  C   UNL     1      33.724 -15.052 -25.444  0.00  0.00    +0.113 C 
ATOM     10  C   UNL     1      33.531 -13.901 -27.439  0.00  0.00    +0.252 C 
ATOM     11  H   UNL     1      32.493 -10.832 -25.054  0.00  0.00    +0.153 HD
ATOM     12  H   UNL     1      33.944 -16.214 -23.749  0.00  0.00    +0.148 HD
ENDROOT
BRANCH   5  13
ATOM     13  C   UNL     1      33.279 -14.247 -22.226  0.00  0.00    -0.002 C 
ATOM     14  C   UNL     1      34.530 -14.380 -21.624  0.00  0.00    -0.000 C 
ATOM     15  C   UNL     1      32.160 -14.852 -21.655  0.00  0.00    -0.000 C 
ATOM     16  C   UNL     1      34.661 -15.120 -20.448  0.00  0.00    -0.000 C 
ATOM     17  C   UNL     1      32.292 -15.592 -20.479  0.00  0.00    -0.000 C 
ATOM     18  C   UNL     1      33.543 -15.725 -19.876  0.00  0.00    -0.000 C 
ENDBRANCH   5  13
BRANCH   7  19
ATOM     19  C   UNL     1      32.435 -11.257 -22.369  0.00  0.00    +0.013 C 
ATOM     20  C   UNL     1      31.853 -11.752 -21.204  0.00  0.00    +0.001 C 
ATOM     21  C   UNL     1      32.702  -9.896 -22.497  0.00  0.00    +0.001 C 
ATOM     22  C   UNL     1      31.537 -10.881 -20.162  0.00  0.00    +0.000 C 
ATOM     23  C   UNL     1      32.385  -9.025 -21.455  0.00  0.00    +0.000 C 
ATOM     24  C   UNL     1      31.802  -9.517 -20.287  0.00  0.00    +0.000 C 
ENDBRANCH   7  19
BRANCH   2  25
ATOM     25  C   UNL     1      34.405 -17.451 -25.369  0.00  0.00    +0.120 C 
BRANCH  25  26
ATOM     26  C   UNL     1      34.926 -18.434 -24.334  0.00  0.00    +0.158 C 
BRANCH  26  27
ATOM     27  O   UNL     1      35.831 -17.769 -23.462  0.00  0.00    -0.380 OA
ATOM     28  H   UNL     1      36.727 -17.814 -23.830  0.00  0.00    +0.211 HD
ENDBRANCH  26  27
ENDBRANCH  25  26
ENDBRANCH   2  25
TORSDOF 5
ENDMDL
MODEL 7
REMARK VINA RESULT:      -7.9      2.076      4.268
REMARK  Name = 4369433
REMARK  5 active torsions:
REMARK  status: ('A' for Active; 'I' for Inactive)
REMARK    1  A    between atoms: N_2  and  C_25
REMARK    2  A    between atoms: C_5  and  C_13
REMARK    3  A    between atoms: C_7  and  C_19
REMARK    4  A    between atoms: C_25  and  C_26
REMARK    5  A    between atoms: C_26  and  O_27
REMARK                            x       y       z     vdW  Elec       q    Type
REMARK                         _______ _______ _______ _____ _____    ______ ____
ROOT
ATOM      1  N   UNL     1      33.266 -10.781 -24.902  0.00  0.00    -0.301 N 
ATOM      2  N   UNL     1      32.560 -13.850 -21.453  0.00  0.00    -0.319 N 
ATOM      3  N   UNL     1      33.807 -13.073 -25.419  0.00  0.00    -0.233 NA
ATOM      4  N   UNL     1      33.402 -14.589 -23.557  0.00  0.00    -0.233 NA
ATOM      5  C   UNL     1      32.573 -10.994 -22.797  0.00  0.00    +0.005 C 
ATOM      6  C   UNL     1      32.940 -12.276 -23.278  0.00  0.00    +0.131 C 
ATOM      7  C   UNL     1      32.782 -10.092 -23.819  0.00  0.00    +0.046 C 
ATOM      8  C   UNL     1      33.368 -12.111 -24.589  0.00  0.00    +0.117 C 
ATOM      9  C   UNL     1      32.971 -13.575 -22.771  0.00  0.00    +0.113 C 
ATOM     10  C   UNL     1      33.788 -14.279 -24.815  0.00  0.00    +0.252 C 
ATOM     11  H   UNL     1      33.502 -10.381 -25.770  0.00  0.00    +0.153 HD
ATOM     12  H   UNL     1      32.250 -13.104 -20.892  0.00  0.00    +0.148 HD
ENDROOT
BRANCH   5  13
ATOM     13  C   UNL     1      32.068 -10.610 -21.507  0.00  0.00    -0.002 C 
ATOM     14  C   UNL     1      31.024 -11.328 -20.926  0.00  0.00    -0.000 C 
ATOM     15  C   UNL     1      32.623  -9.518 -20.840  0.00  0.00    -0.000 C 
ATOM     16  C   UNL     1      30.534 -10.954 -19.674  0.00  0.00    -0.000 C 
ATOM     17  C   UNL     1      32.132  -9.145 -19.589  0.00  0.00    -0.000 C 
ATOM     18  C   UNL     1      31.088  -9.863 -19.006  0.00  0.00    -0.000 C 
ENDBRANCH   5  13
BRANCH   7  19
ATOM     19  C   UNL     1      32.579  -8.662 -23.877  0.00  0.00    +0.013 C 
ATOM     20  C   UNL     1      33.676  -7.805 -23.924  0.00  0.00    +0.001 C 
ATOM     21  C   UNL     1      31.285  -8.146 -23.888  0.00  0.00    +0.001 C 
ATOM     22  C   UNL     1      33.478  -6.426 -23.981  0.00  0.00    +0.000 C 
ATOM     23  C   UNL     1      31.087  -6.766 -23.944  0.00  0.00    +0.000 C 
ATOM     24  C   UNL     1      32.184  -5.906 -23.991  0.00  0.00    +0.000 C 
ENDBRANCH   7  19
BRANCH   2  25
ATOM     25  C   UNL     1      32.574 -15.168 -20.891  0.00  0.00    +0.120 C 
BRANCH  25  26
ATOM     26  C   UNL     1      33.954 -15.483 -20.339  0.00  0.00    +0.158 C 
BRANCH  26  27
ATOM     27  O   UNL     1      34.680 -16.254 -21.288  0.00  0.00    -0.380 OA
ATOM     28  H   UNL     1      35.540 -16.501 -20.914  0.00  0.00    +0.211 HD
ENDBRANCH  26  27
ENDBRANCH  25  26
ENDBRANCH   2  25
TORSDOF 5
ENDMDL
MODEL 8
REMARK VINA RESULT:      -7.5      2.316      4.529
REMARK  Name = 4369433
REMARK  5 active torsions:
REMARK  status: ('A' for Active; 'I' for Inactive)
REMARK    1  A    between atoms: N_2  and  C_25
REMARK    2  A    between atoms: C_5  and  C_13
REMARK    3  A    between atoms: C_7  and  C_19
REMARK    4  A    between atoms: C_25  and  C_26
REMARK    5  A    between atoms: C_26  and  O_27
REMARK                            x       y       z     vdW  Elec       q    Type
REMARK                         _______ _______ _______ _____ _____    ______ ____
ROOT
ATOM      1  N   UNL     1      33.136  -9.622 -24.685  0.00  0.00    -0.301 N 
ATOM      2  N   UNL     1      32.811 -13.518 -22.132  0.00  0.00    -0.319 N 
ATOM      3  N   UNL     1      33.996 -11.623 -25.721  0.00  0.00    -0.233 NA
ATOM      4  N   UNL     1      33.777 -13.593 -24.309  0.00  0.00    -0.233 NA
ATOM      5  C   UNL     1      32.449 -10.441 -22.733  0.00  0.00    +0.005 C 
ATOM      6  C   UNL     1      32.997 -11.504 -23.495  0.00  0.00    +0.131 C 
ATOM      7  C   UNL     1      32.547  -9.294 -23.491  0.00  0.00    +0.046 C 
ATOM      8  C   UNL     1      33.416 -10.963 -24.704  0.00  0.00    +0.117 C 
ATOM      9  C   UNL     1      33.199 -12.873 -23.320  0.00  0.00    +0.113 C 
ATOM     10  C   UNL     1      34.135 -12.933 -25.433  0.00  0.00    +0.252 C 
ATOM     11  H   UNL     1      33.328  -8.991 -25.417  0.00  0.00    +0.153 HD
ATOM     12  H   UNL     1      32.393 -12.982 -21.420  0.00  0.00    +0.148 HD
ENDROOT
BRANCH   5  13
ATOM     13  C   UNL     1      31.877 -10.459 -21.414  0.00  0.00    -0.002 C 
ATOM     14  C   UNL     1      32.553  -9.856 -20.354  0.00  0.00    -0.000 C 
ATOM     15  C   UNL     1      30.648 -11.081 -21.198  0.00  0.00    -0.000 C 
ATOM     16  C   UNL     1      31.997  -9.874 -19.074  0.00  0.00    -0.000 C 
ATOM     17  C   UNL     1      30.093 -11.099 -19.918  0.00  0.00    -0.000 C 
ATOM     18  C   UNL     1      30.768 -10.495 -18.856  0.00  0.00    -0.000 C 
ENDBRANCH   5  13
BRANCH   7  19
ATOM     19  C   UNL     1      32.148  -7.933 -23.207  0.00  0.00    +0.013 C 
ATOM     20  C   UNL     1      31.192  -7.309 -24.005  0.00  0.00    +0.001 C 
ATOM     21  C   UNL     1      32.722  -7.251 -22.136  0.00  0.00    +0.001 C 
ATOM     22  C   UNL     1      30.809  -5.996 -23.730  0.00  0.00    +0.000 C 
ATOM     23  C   UNL     1      32.339  -5.939 -21.862  0.00  0.00    +0.000 C 
ATOM     24  C   UNL     1      31.382  -5.310 -22.659  0.00  0.00    +0.000 C 
ENDBRANCH   7  19
BRANCH   2  25
ATOM     25  C   UNL     1      32.999 -14.921 -21.910  0.00  0.00    +0.120 C 
BRANCH  25  26
ATOM     26  C   UNL     1      33.409 -15.168 -20.468  0.00  0.00    +0.158 C 
BRANCH  26  27
ATOM     27  O   UNL     1      34.826 -15.245 -20.384  0.00  0.00    -0.380 OA
ATOM     28  H   UNL     1      35.164 -14.472 -19.907  0.00  0.00    +0.211 HD
ENDBRANCH  26  27
ENDBRANCH  25  26
ENDBRANCH   2  25
TORSDOF 5
ENDMDL
MODEL 9
REMARK VINA RESULT:      -7.5     11.263     14.593
REMARK  Name = 4369433
REMARK  5 active torsions:
REMARK  status: ('A' for Active; 'I' for Inactive)
REMARK    1  A    between atoms: N_2  and  C_25
REMARK    2  A    between atoms: C_5  and  C_13
REMARK    3  A    between atoms: C_7  and  C_19
REMARK    4  A    between atoms: C_25  and  C_26
REMARK    5  A    between atoms: C_26  and  O_27
REMARK                            x       y       z     vdW  Elec       q    Type
REMARK                         _______ _______ _______ _____ _____    ______ ____
ROOT
ATOM      1  N   UNL     1      32.048 -23.074 -17.017  0.00  0.00    -0.301 N 
ATOM      2  N   UNL     1      34.516 -24.407 -13.283  0.00  0.00    -0.319 N 
ATOM      3  N   UNL     1      30.779 -24.095 -15.239  0.00  0.00    -0.233 NA
ATOM      4  N   UNL     1      32.158 -24.750 -13.342  0.00  0.00    -0.233 NA
ATOM      5  C   UNL     1      34.096 -23.152 -16.148  0.00  0.00    +0.005 C 
ATOM      6  C   UNL     1      33.194 -23.723 -15.216  0.00  0.00    +0.131 C 
ATOM      7  C   UNL     1      33.363 -22.760 -17.248  0.00  0.00    +0.046 C 
ATOM      8  C   UNL     1      31.928 -23.661 -15.785  0.00  0.00    +0.117 C 
ATOM      9  C   UNL     1      33.280 -24.295 -13.947  0.00  0.00    +0.113 C 
ATOM     10  C   UNL     1      30.993 -24.624 -14.017  0.00  0.00    +0.252 C 
ATOM     11  H   UNL     1      31.305 -22.904 -17.640  0.00  0.00    +0.153 HD
ATOM     12  H   UNL     1      35.324 -24.074 -13.734  0.00  0.00    +0.148 HD
ENDROOT
BRANCH   5  13
ATOM     13  C   UNL     1      35.520 -22.972 -16.054  0.00  0.00    -0.002 C 
ATOM     14  C   UNL     1      36.090 -21.747 -16.394  0.00  0.00    -0.000 C 
ATOM     15  C   UNL     1      36.326 -24.025 -15.623  0.00  0.00    -0.000 C 
ATOM     16  C   UNL     1      37.472 -21.573 -16.302  0.00  0.00    -0.000 C 
ATOM     17  C   UNL     1      37.707 -23.850 -15.531  0.00  0.00    -0.000 C 
ATOM     18  C   UNL     1      38.280 -22.624 -15.871  0.00  0.00    -0.000 C 
ENDBRANCH   5  13
BRANCH   7  19
ATOM     19  C   UNL     1      33.771 -22.128 -18.484  0.00  0.00    +0.013 C 
ATOM     20  C   UNL     1      35.046 -22.361 -18.995  0.00  0.00    +0.001 C 
ATOM     21  C   UNL     1      32.886 -21.290 -19.158  0.00  0.00    +0.001 C 
ATOM     22  C   UNL     1      35.438 -21.751 -20.186  0.00  0.00    +0.000 C 
ATOM     23  C   UNL     1      33.279 -20.680 -20.350  0.00  0.00    +0.000 C 
ATOM     24  C   UNL     1      34.555 -20.910 -20.864  0.00  0.00    +0.000 C 
ENDBRANCH   7  19
BRANCH   2  25
ATOM     25  C   UNL     1      34.651 -24.986 -11.980  0.00  0.00    +0.120 C 
BRANCH  25  26
ATOM     26  C   UNL     1      35.743 -24.271 -11.204  0.00  0.00    +0.158 C 
BRANCH  26  27
ATOM     27  O   UNL     1      35.505 -24.411  -9.809  0.00  0.00    -0.380 OA
ATOM     28  H   UNL     1      35.024 -23.634  -9.484  0.00  0.00    +0.211 HD
ENDBRANCH  26  27
ENDBRANCH  25  26
ENDBRANCH   2  25
TORSDOF 5
ENDMDL
