MODEL 1
REMARK VINA RESULT:      -7.5      0.000      0.000
REMARK  Name = 5734
REMARK  3 active torsions:
REMARK  status: ('A' for Active; 'I' for Inactive)
REMARK    1  A    between atoms: C_3  and  C_10
REMARK    2  A    between atoms: C_10  and  S_11
REMARK    3  A    between atoms: S_11  and  N_14
REMARK                            x       y       z     vdW  Elec       q    Type
REMARK                         _______ _______ _______ _____ _____    ______ ____
ROOT
ATOM      1  O   UNL     1      36.679 -19.362 -20.965  0.00  0.00    -0.354 OA
ATOM      2  N   UNL     1      36.366 -18.249 -21.736  0.00  0.00    -0.080 NA
ATOM      3  C   UNL     1      35.031 -18.218 -21.784  0.00  0.00    +0.126 A 
ATOM      4  C   UNL     1      34.443 -19.277 -21.066  0.00  0.00    +0.056 A 
ATOM      5  C   UNL     1      35.530 -19.973 -20.568  0.00  0.00    +0.177 A 
ATOM      6  C   UNL     1      33.149 -19.735 -20.776  0.00  0.00    +0.004 C 
ATOM      7  C   UNL     1      35.434 -21.118 -19.782  0.00  0.00    +0.040 C 
ATOM      8  C   UNL     1      33.016 -20.886 -19.987  0.00  0.00    +0.000 C 
ATOM      9  C   UNL     1      34.139 -21.564 -19.501  0.00  0.00    +0.003 C 
ENDROOT
BRANCH   3  10
ATOM     10  C   UNL     1      34.353 -17.146 -22.534  0.00  0.00    +0.217 C 
BRANCH  10  11
ATOM     11  S   UNL     1      34.004 -15.743 -21.510  0.00  0.00    +0.044 S 
ATOM     12  O   UNL     1      34.478 -14.558 -22.200  0.00  0.00    -0.157 OA
ATOM     13  O   UNL     1      32.629 -15.849 -21.061  0.00  0.00    -0.157 OA
BRANCH  11  14
ATOM     14  N   UNL     1      35.043 -16.078 -20.203  0.00  0.00    -0.207 NA
ATOM     15  H   UNL     1      36.003 -16.142 -20.539  0.00  0.00    +0.144 HD
ATOM     16  H   UNL     1      34.774 -16.964 -19.773  0.00  0.00    +0.144 HD
ENDBRANCH  11  14
ENDBRANCH  10  11
ENDBRANCH   3  10
TORSDOF 3
ENDMDL
MODEL 2
REMARK VINA RESULT:      -7.3      8.843      9.961
REMARK  Name = 5734
REMARK  3 active torsions:
REMARK  status: ('A' for Active; 'I' for Inactive)
REMARK    1  A    between atoms: C_3  and  C_10
REMARK    2  A    between atoms: C_10  and  S_11
REMARK    3  A    between atoms: S_11  and  N_14
REMARK                            x       y       z     vdW  Elec       q    Type
REMARK                         _______ _______ _______ _____ _____    ______ ____
ROOT
ATOM      1  O   UNL     1      33.774 -24.193 -12.790  0.00  0.00    -0.354 OA
ATOM      2  N   UNL     1      35.132 -24.475 -12.877  0.00  0.00    -0.080 NA
ATOM      3  C   UNL     1      35.445 -24.305 -14.166  0.00  0.00    +0.126 A 
ATOM      4  C   UNL     1      34.334 -23.917 -14.941  0.00  0.00    +0.056 A 
ATOM      5  C   UNL     1      33.301 -23.861 -14.022  0.00  0.00    +0.177 A 
ATOM      6  C   UNL     1      34.070 -23.610 -16.284  0.00  0.00    +0.004 C 
ATOM      7  C   UNL     1      31.990 -23.515 -14.337  0.00  0.00    +0.040 C 
ATOM      8  C   UNL     1      32.759 -23.257 -16.636  0.00  0.00    +0.000 C 
ATOM      9  C   UNL     1      31.741 -23.211 -15.679  0.00  0.00    +0.003 C 
ENDROOT
BRANCH   3  10
ATOM     10  C   UNL     1      36.830 -24.526 -14.615  0.00  0.00    +0.217 C 
BRANCH  10  11
ATOM     11  S   UNL     1      37.184 -26.248 -14.837  0.00  0.00    +0.044 S 
ATOM     12  O   UNL     1      36.228 -26.781 -15.788  0.00  0.00    -0.157 OA
ATOM     13  O   UNL     1      38.612 -26.386 -15.052  0.00  0.00    -0.157 OA
BRANCH  11  14
ATOM     14  N   UNL     1      36.799 -26.822 -13.280  0.00  0.00    -0.207 NA
ATOM     15  H   UNL     1      35.786 -26.869 -13.176  0.00  0.00    +0.144 HD
ATOM     16  H   UNL     1      37.182 -26.187 -12.579  0.00  0.00    +0.144 HD
ENDBRANCH  11  14
ENDBRANCH  10  11
ENDBRANCH   3  10
TORSDOF 3
ENDMDL
MODEL 3
REMARK VINA RESULT:      -7.2      2.610      3.508
REMARK  Name = 5734
REMARK  3 active torsions:
REMARK  status: ('A' for Active; 'I' for Inactive)
REMARK    1  A    between atoms: C_3  and  C_10
REMARK    2  A    between atoms: C_10  and  S_11
REMARK    3  A    between atoms: S_11  and  N_14
REMARK                            x       y       z     vdW  Elec       q    Type
REMARK                         _______ _______ _______ _____ _____    ______ ____
ROOT
ATOM      1  O   UNL     1      35.241 -17.758 -20.758  0.00  0.00    -0.354 OA
ATOM      2  N   UNL     1      35.019 -16.428 -20.424  0.00  0.00    -0.080 NA
ATOM      3  C   UNL     1      34.709 -15.823 -21.574  0.00  0.00    +0.126 A 
ATOM      4  C   UNL     1      34.716 -16.711 -22.667  0.00  0.00    +0.056 A 
ATOM      5  C   UNL     1      35.060 -17.924 -22.096  0.00  0.00    +0.177 A 
ATOM      6  C   UNL     1      34.481 -16.650 -24.049  0.00  0.00    +0.004 C 
ATOM      7  C   UNL     1      35.193 -19.114 -22.806  0.00  0.00    +0.040 C 
ATOM      8  C   UNL     1      34.606 -17.831 -24.794  0.00  0.00    +0.000 C 
ATOM      9  C   UNL     1      34.955 -19.039 -24.181  0.00  0.00    +0.003 C 
ENDROOT
BRANCH   3  10
ATOM     10  C   UNL     1      34.409 -14.381 -21.582  0.00  0.00    +0.217 C 
BRANCH  10  11
ATOM     11  S   UNL     1      32.665 -14.069 -21.607  0.00  0.00    +0.044 S 
ATOM     12  O   UNL     1      32.377 -13.064 -20.602  0.00  0.00    -0.157 OA
ATOM     13  O   UNL     1      32.264 -13.884 -22.988  0.00  0.00    -0.157 OA
BRANCH  11  14
ATOM     14  N   UNL     1      32.097 -15.579 -21.061  0.00  0.00    -0.207 NA
ATOM     15  H   UNL     1      32.131 -15.608 -20.043  0.00  0.00    +0.144 HD
ATOM     16  H   UNL     1      32.686 -16.322 -21.442  0.00  0.00    +0.144 HD
ENDBRANCH  11  14
ENDBRANCH  10  11
ENDBRANCH   3  10
TORSDOF 3
ENDMDL
MODEL 4
REMARK VINA RESULT:      -7.2      2.017      2.616
REMARK  Name = 5734
REMARK  3 active torsions:
REMARK  status: ('A' for Active; 'I' for Inactive)
REMARK    1  A    between atoms: C_3  and  C_10
REMARK    2  A    between atoms: C_10  and  S_11
REMARK    3  A    between atoms: S_11  and  N_14
REMARK                            x       y       z     vdW  Elec       q    Type
REMARK                         _______ _______ _______ _____ _____    ______ ____
ROOT
ATOM      1  O   UNL     1      32.590 -20.500 -20.364  0.00  0.00    -0.354 OA
ATOM      2  N   UNL     1      32.766 -19.501 -21.315  0.00  0.00    -0.080 NA
ATOM      3  C   UNL     1      34.089 -19.332 -21.407  0.00  0.00    +0.126 A 
ATOM      4  C   UNL     1      34.801 -20.190 -20.547  0.00  0.00    +0.056 A 
ATOM      5  C   UNL     1      33.806 -20.908 -19.908  0.00  0.00    +0.177 A 
ATOM      6  C   UNL     1      36.142 -20.449 -20.227  0.00  0.00    +0.004 C 
ATOM      7  C   UNL     1      34.040 -21.891 -18.951  0.00  0.00    +0.040 C 
ATOM      8  C   UNL     1      36.414 -21.434 -19.266  0.00  0.00    +0.000 C 
ATOM      9  C   UNL     1      35.381 -22.140 -18.641  0.00  0.00    +0.003 C 
ENDROOT
BRANCH   3  10
ATOM     10  C   UNL     1      34.632 -18.330 -22.341  0.00  0.00    +0.217 C 
BRANCH  10  11
ATOM     11  S   UNL     1      34.734 -16.724 -21.599  0.00  0.00    +0.044 S 
ATOM     12  O   UNL     1      35.422 -16.862 -20.330  0.00  0.00    -0.157 OA
ATOM     13  O   UNL     1      35.202 -15.794 -22.609  0.00  0.00    -0.157 OA
BRANCH  11  14
ATOM     14  N   UNL     1      33.080 -16.440 -21.306  0.00  0.00    -0.207 NA
ATOM     15  H   UNL     1      32.968 -15.985 -20.400  0.00  0.00    +0.144 HD
ATOM     16  H   UNL     1      32.577 -17.328 -21.304  0.00  0.00    +0.144 HD
ENDBRANCH  11  14
ENDBRANCH  10  11
ENDBRANCH   3  10
TORSDOF 3
ENDMDL
MODEL 5
REMARK VINA RESULT:      -7.1      7.520      9.388
REMARK  Name = 5734
REMARK  3 active torsions:
REMARK  status: ('A' for Active; 'I' for Inactive)
REMARK    1  A    between atoms: C_3  and  C_10
REMARK    2  A    between atoms: C_10  and  S_11
REMARK    3  A    between atoms: S_11  and  N_14
REMARK                            x       y       z     vdW  Elec       q    Type
REMARK                         _______ _______ _______ _____ _____    ______ ____
ROOT
ATOM      1  O   UNL     1      34.623 -23.190 -16.956  0.00  0.00    -0.354 OA
ATOM      2  N   UNL     1      35.678 -23.690 -16.203  0.00  0.00    -0.080 NA
ATOM      3  C   UNL     1      35.118 -24.181 -15.093  0.00  0.00    +0.126 A 
ATOM      4  C   UNL     1      33.719 -24.023 -15.083  0.00  0.00    +0.056 A 
ATOM      5  C   UNL     1      33.456 -23.389 -16.285  0.00  0.00    +0.177 A 
ATOM      6  C   UNL     1      32.652 -24.329 -14.225  0.00  0.00    +0.004 C 
ATOM      7  C   UNL     1      32.183 -23.025 -16.716  0.00  0.00    +0.040 C 
ATOM      8  C   UNL     1      31.357 -23.976 -14.629  0.00  0.00    +0.000 C 
ATOM      9  C   UNL     1      31.129 -23.336 -15.852  0.00  0.00    +0.003 C 
ENDROOT
BRANCH   3  10
ATOM     10  C   UNL     1      35.968 -24.797 -14.060  0.00  0.00    +0.217 C 
BRANCH  10  11
ATOM     11  S   UNL     1      36.909 -26.155 -14.702  0.00  0.00    +0.044 S 
ATOM     12  O   UNL     1      37.355 -26.958 -13.580  0.00  0.00    -0.157 OA
ATOM     13  O   UNL     1      36.156 -26.743 -15.793  0.00  0.00    -0.157 OA
BRANCH  11  14
ATOM     14  N   UNL     1      38.239 -25.304 -15.340  0.00  0.00    -0.207 NA
ATOM     15  H   UNL     1      38.749 -25.905 -15.987  0.00  0.00    +0.144 HD
ATOM     16  H   UNL     1      38.858 -25.020 -14.580  0.00  0.00    +0.144 HD
ENDBRANCH  11  14
ENDBRANCH  10  11
ENDBRANCH   3  10
TORSDOF 3
ENDMDL
MODEL 6
REMARK VINA RESULT:      -7.1      3.297      5.384
REMARK  Name = 5734
REMARK  3 active torsions:
REMARK  status: ('A' for Active; 'I' for Inactive)
REMARK    1  A    between atoms: C_3  and  C_10
REMARK    2  A    between atoms: C_10  and  S_11
REMARK    3  A    between atoms: S_11  and  N_14
REMARK                            x       y       z     vdW  Elec       q    Type
REMARK                         _______ _______ _______ _____ _____    ______ ____
ROOT
ATOM      1  O   UNL     1      33.996 -17.475 -25.690  0.00  0.00    -0.354 OA
ATOM      2  N   UNL     1      34.779 -18.274 -24.866  0.00  0.00    -0.080 NA
ATOM      3  C   UNL     1      35.122 -17.490 -23.839  0.00  0.00    +0.126 A 
ATOM      4  C   UNL     1      34.589 -16.192 -23.953  0.00  0.00    +0.056 A 
ATOM      5  C   UNL     1      33.884 -16.234 -25.143  0.00  0.00    +0.177 A 
ATOM      6  C   UNL     1      34.610 -14.999 -23.215  0.00  0.00    +0.004 C 
ATOM      7  C   UNL     1      33.179 -15.159 -25.675  0.00  0.00    +0.040 C 
ATOM      8  C   UNL     1      33.909 -13.895 -23.722  0.00  0.00    +0.000 C 
ATOM      9  C   UNL     1      33.208 -13.976 -24.930  0.00  0.00    +0.003 C 
ENDROOT
BRANCH   3  10
ATOM     10  C   UNL     1      35.968 -18.031 -22.761  0.00  0.00    +0.217 C 
BRANCH  10  11
ATOM     11  S   UNL     1      35.061 -18.240 -21.252  0.00  0.00    +0.044 S 
ATOM     12  O   UNL     1      35.138 -16.997 -20.509  0.00  0.00    -0.157 OA
ATOM     13  O   UNL     1      33.782 -18.841 -21.579  0.00  0.00    -0.157 OA
BRANCH  11  14
ATOM     14  N   UNL     1      36.043 -19.405 -20.489  0.00  0.00    -0.207 NA
ATOM     15  H   UNL     1      36.553 -18.970 -19.721  0.00  0.00    +0.144 HD
ATOM     16  H   UNL     1      36.706 -19.786 -21.165  0.00  0.00    +0.144 HD
ENDBRANCH  11  14
ENDBRANCH  10  11
ENDBRANCH   3  10
TORSDOF 3
ENDMDL
MODEL 7
REMARK VINA RESULT:      -7.0      7.372      9.267
REMARK  Name = 5734
REMARK  3 active torsions:
REMARK  status: ('A' for Active; 'I' for Inactive)
REMARK    1  A    between atoms: C_3  and  C_10
REMARK    2  A    between atoms: C_10  and  S_11
REMARK    3  A    between atoms: S_11  and  N_14
REMARK                            x       y       z     vdW  Elec       q    Type
REMARK                         _______ _______ _______ _____ _____    ______ ____
ROOT
ATOM      1  O   UNL     1      35.093 -23.194 -17.070  0.00  0.00    -0.354 OA
ATOM      2  N   UNL     1      36.048 -23.567 -16.132  0.00  0.00    -0.080 NA
ATOM      3  C   UNL     1      35.358 -23.880 -15.031  0.00  0.00    +0.126 A 
ATOM      4  C   UNL     1      33.969 -23.727 -15.207  0.00  0.00    +0.056 A 
ATOM      5  C   UNL     1      33.854 -23.290 -16.515  0.00  0.00    +0.177 A 
ATOM      6  C   UNL     1      32.807 -23.898 -14.440  0.00  0.00    +0.004 C 
ATOM      7  C   UNL     1      32.645 -23.001 -17.141  0.00  0.00    +0.040 C 
ATOM      8  C   UNL     1      31.571 -23.616 -15.040  0.00  0.00    +0.000 C 
ATOM      9  C   UNL     1      31.494 -23.176 -16.366  0.00  0.00    +0.003 C 
ENDROOT
BRANCH   3  10
ATOM     10  C   UNL     1      36.075 -24.324 -13.824  0.00  0.00    +0.217 C 
BRANCH  10  11
ATOM     11  S   UNL     1      37.010 -25.801 -14.117  0.00  0.00    +0.044 S 
ATOM     12  O   UNL     1      38.284 -25.415 -14.692  0.00  0.00    -0.157 OA
ATOM     13  O   UNL     1      36.944 -26.617 -12.920  0.00  0.00    -0.157 OA
BRANCH  11  14
ATOM     14  N   UNL     1      36.046 -26.513 -15.328  0.00  0.00    -0.207 NA
ATOM     15  H   UNL     1      35.072 -26.517 -15.029  0.00  0.00    +0.144 HD
ATOM     16  H   UNL     1      36.356 -27.472 -15.489  0.00  0.00    +0.144 HD
ENDBRANCH  11  14
ENDBRANCH  10  11
ENDBRANCH   3  10
TORSDOF 3
ENDMDL
MODEL 8
REMARK VINA RESULT:      -6.9      6.550      8.246
REMARK  Name = 5734
REMARK  3 active torsions:
REMARK  status: ('A' for Active; 'I' for Inactive)
REMARK    1  A    between atoms: C_3  and  C_10
REMARK    2  A    between atoms: C_10  and  S_11
REMARK    3  A    between atoms: S_11  and  N_14
REMARK                            x       y       z     vdW  Elec       q    Type
REMARK                         _______ _______ _______ _____ _____    ______ ____
ROOT
ATOM      1  O   UNL     1      33.728 -23.418 -16.624  0.00  0.00    -0.354 OA
ATOM      2  N   UNL     1      34.360 -23.606 -15.401  0.00  0.00    -0.080 NA
ATOM      3  C   UNL     1      35.565 -23.045 -15.537  0.00  0.00    +0.126 A 
ATOM      4  C   UNL     1      35.756 -22.487 -16.815  0.00  0.00    +0.056 A 
ATOM      5  C   UNL     1      34.563 -22.750 -17.466  0.00  0.00    +0.177 A 
ATOM      6  C   UNL     1      36.770 -21.801 -17.501  0.00  0.00    +0.004 C 
ATOM      7  C   UNL     1      34.287 -22.378 -18.778  0.00  0.00    +0.040 C 
ATOM      8  C   UNL     1      36.525 -21.411 -18.826  0.00  0.00    +0.000 C 
ATOM      9  C   UNL     1      35.306 -21.695 -19.450  0.00  0.00    +0.003 C 
ENDROOT
BRANCH   3  10
ATOM     10  C   UNL     1      36.510 -23.067 -14.407  0.00  0.00    +0.217 C 
BRANCH  10  11
ATOM     11  S   UNL     1      37.728 -24.341 -14.590  0.00  0.00    +0.044 S 
ATOM     12  O   UNL     1      38.792 -23.825 -15.429  0.00  0.00    -0.157 OA
ATOM     13  O   UNL     1      38.007 -24.885 -13.275  0.00  0.00    -0.157 OA
BRANCH  11  14
ATOM     14  N   UNL     1      36.821 -25.477 -15.479  0.00  0.00    -0.207 NA
ATOM     15  H   UNL     1      36.765 -26.351 -14.957  0.00  0.00    +0.144 HD
ATOM     16  H   UNL     1      37.275 -25.646 -16.377  0.00  0.00    +0.144 HD
ENDBRANCH  11  14
ENDBRANCH  10  11
ENDBRANCH   3  10
TORSDOF 3
ENDMDL
MODEL 9
REMARK VINA RESULT:      -6.8      6.365      8.184
REMARK  Name = 5734
REMARK  3 active torsions:
REMARK  status: ('A' for Active; 'I' for Inactive)
REMARK    1  A    between atoms: C_3  and  C_10
REMARK    2  A    between atoms: C_10  and  S_11
REMARK    3  A    between atoms: S_11  and  N_14
REMARK                            x       y       z     vdW  Elec       q    Type
REMARK                         _______ _______ _______ _____ _____    ______ ____
ROOT
ATOM      1  O   UNL     1      37.276 -21.776 -17.319  0.00  0.00    -0.354 OA
ATOM      2  N   UNL     1      37.460 -22.339 -16.061  0.00  0.00    -0.080 NA
ATOM      3  C   UNL     1      36.297 -22.926 -15.764  0.00  0.00    +0.126 A 
ATOM      4  C   UNL     1      35.341 -22.772 -16.787  0.00  0.00    +0.056 A 
ATOM      5  C   UNL     1      36.011 -22.036 -17.749  0.00  0.00    +0.177 A 
ATOM      6  C   UNL     1      34.012 -23.154 -17.023  0.00  0.00    +0.004 C 
ATOM      7  C   UNL     1      35.453 -21.638 -18.960  0.00  0.00    +0.040 C 
ATOM      8  C   UNL     1      33.419 -22.769 -18.234  0.00  0.00    +0.000 C 
ATOM      9  C   UNL     1      34.128 -22.025 -19.183  0.00  0.00    +0.003 C 
ENDROOT
BRANCH   3  10
ATOM     10  C   UNL     1      36.143 -23.628 -14.478  0.00  0.00    +0.217 C 
BRANCH  10  11
ATOM     11  S   UNL     1      36.721 -25.301 -14.567  0.00  0.00    +0.044 S 
ATOM     12  O   UNL     1      36.833 -25.807 -13.212  0.00  0.00    -0.157 OA
ATOM     13  O   UNL     1      35.929 -25.996 -15.564  0.00  0.00    -0.157 OA
BRANCH  11  14
ATOM     14  N   UNL     1      38.283 -25.030 -15.190  0.00  0.00    -0.207 NA
ATOM     15  H   UNL     1      38.668 -24.177 -14.785  0.00  0.00    +0.144 HD
ATOM     16  H   UNL     1      38.233 -24.931 -16.205  0.00  0.00    +0.144 HD
ENDBRANCH  11  14
ENDBRANCH  10  11
ENDBRANCH   3  10
TORSDOF 3
ENDMDL
