MODEL 1
REMARK VINA RESULT:      -9.8      0.000      0.000
REMARK  Name = 223368
REMARK  1 active torsions:
REMARK  status: ('A' for Active; 'I' for Inactive)
REMARK    1  A    between atoms: C_19  and  O_20
REMARK                            x       y       z     vdW  Elec       q    Type
REMARK                         _______ _______ _______ _____ _____    ______ ____
ROOT
ATOM      1  O   UNL     1      32.285 -13.162 -22.507  0.00  0.00    -0.296 OA
ATOM      2  C   UNL     1      33.418 -15.195 -21.797  0.00  0.00    +0.056 C 
ATOM      3  C   UNL     1      34.035 -16.156 -22.837  0.00  0.00    +0.029 C 
ATOM      4  C   UNL     1      32.200 -15.882 -21.175  0.00  0.00    +0.012 C 
ATOM      5  C   UNL     1      33.394 -18.169 -21.467  0.00  0.00    -0.026 C 
ATOM      6  C   UNL     1      34.521 -17.403 -22.151  0.00  0.00    -0.026 C 
ATOM      7  C   UNL     1      34.938 -15.255 -23.679  0.00  0.00    +0.012 C 
ATOM      8  C   UNL     1      32.587 -17.227 -20.527  0.00  0.00    +0.026 C 
ATOM      9  C   UNL     1      33.131 -14.021 -22.717  0.00  0.00    +0.150 C 
ATOM     10  C   UNL     1      34.050 -14.027 -23.927  0.00  0.00    +0.065 C 
ATOM     11  C   UNL     1      34.388 -14.691 -20.712  0.00  0.00    +0.008 C 
ATOM     12  C   UNL     1      33.840 -19.436 -20.752  0.00  0.00    -0.004 C 
ATOM     13  C   UNL     1      35.801 -17.801 -22.117  0.00  0.00    -0.005 C 
ATOM     14  C   UNL     1      36.271 -19.021 -21.396  0.00  0.00    -0.000 C 
ATOM     15  C   UNL     1      35.192 -19.827 -20.722  0.00  0.00    +0.003 C 
ATOM     16  C   UNL     1      32.884 -20.267 -20.140  0.00  0.00    +0.003 C 
ATOM     17  C   UNL     1      35.560 -21.008 -20.056  0.00  0.00    +0.037 C 
ATOM     18  C   UNL     1      33.261 -21.439 -19.484  0.00  0.00    +0.037 C 
ATOM     19  C   UNL     1      34.601 -21.808 -19.438  0.00  0.00    +0.134 C 
ENDROOT
BRANCH  19  20
ATOM     20  O   UNL     1      34.973 -22.950 -18.799  0.00  0.00    -0.506 OA
ATOM     21  H   UNL     1      35.676 -23.468 -19.137  0.00  0.00    +0.292 HD
ENDBRANCH  19  20
TORSDOF 1
ENDMDL
MODEL 2
REMARK VINA RESULT:      -9.1      7.375     10.810
REMARK  Name = 223368
REMARK  1 active torsions:
REMARK  status: ('A' for Active; 'I' for Inactive)
REMARK    1  A    between atoms: C_19  and  O_20
REMARK                            x       y       z     vdW  Elec       q    Type
REMARK                         _______ _______ _______ _____ _____    ______ ____
ROOT
ATOM      1  O   UNL     1      39.904 -24.573 -13.652  0.00  0.00    -0.296 OA
ATOM      2  C   UNL     1      37.529 -24.085 -13.862  0.00  0.00    +0.056 C 
ATOM      3  C   UNL     1      36.478 -25.207 -13.699  0.00  0.00    +0.029 C 
ATOM      4  C   UNL     1      37.553 -23.663 -15.332  0.00  0.00    +0.012 C 
ATOM      5  C   UNL     1      35.016 -24.196 -15.482  0.00  0.00    -0.026 C 
ATOM      6  C   UNL     1      35.113 -24.676 -14.038  0.00  0.00    -0.026 C 
ATOM      7  C   UNL     1      36.823 -25.839 -12.351  0.00  0.00    +0.012 C 
ATOM      8  C   UNL     1      36.160 -23.192 -15.801  0.00  0.00    +0.026 C 
ATOM      9  C   UNL     1      38.746 -24.843 -13.360  0.00  0.00    +0.150 C 
ATOM     10  C   UNL     1      38.351 -25.970 -12.421  0.00  0.00    +0.065 C 
ATOM     11  C   UNL     1      37.341 -22.870 -12.935  0.00  0.00    +0.008 C 
ATOM     12  C   UNL     1      33.652 -23.644 -15.870  0.00  0.00    -0.004 C 
ATOM     13  C   UNL     1      34.090 -24.607 -13.175  0.00  0.00    -0.005 C 
ATOM     14  C   UNL     1      32.752 -24.039 -13.518  0.00  0.00    -0.000 C 
ATOM     15  C   UNL     1      32.597 -23.572 -14.942  0.00  0.00    +0.003 C 
ATOM     16  C   UNL     1      33.416 -23.232 -17.194  0.00  0.00    +0.003 C 
ATOM     17  C   UNL     1      31.351 -23.061 -15.343  0.00  0.00    +0.037 C 
ATOM     18  C   UNL     1      32.173 -22.729 -17.582  0.00  0.00    +0.037 C 
ATOM     19  C   UNL     1      31.142 -22.639 -16.654  0.00  0.00    +0.134 C 
ENDROOT
BRANCH  19  20
ATOM     20  O   UNL     1      29.929 -22.148 -17.028  0.00  0.00    -0.506 OA
ATOM     21  H   UNL     1      29.152 -22.436 -16.591  0.00  0.00    +0.292 HD
ENDBRANCH  19  20
TORSDOF 1
ENDMDL
MODEL 3
REMARK VINA RESULT:      -9.1      7.732     10.058
REMARK  Name = 223368
REMARK  1 active torsions:
REMARK  status: ('A' for Active; 'I' for Inactive)
REMARK    1  A    between atoms: C_19  and  O_20
REMARK                            x       y       z     vdW  Elec       q    Type
REMARK                         _______ _______ _______ _____ _____    ______ ____
ROOT
ATOM      1  O   UNL     1      38.351 -25.000 -13.302  0.00  0.00    -0.296 OA
ATOM      2  C   UNL     1      36.242 -24.578 -14.440  0.00  0.00    +0.056 C 
ATOM      3  C   UNL     1      35.991 -23.234 -15.159  0.00  0.00    +0.029 C 
ATOM      4  C   UNL     1      35.346 -24.633 -13.202  0.00  0.00    +0.012 C 
ATOM      5  C   UNL     1      33.567 -23.240 -14.480  0.00  0.00    -0.026 C 
ATOM      6  C   UNL     1      34.565 -23.169 -15.631  0.00  0.00    -0.026 C 
ATOM      7  C   UNL     1      37.192 -23.087 -16.093  0.00  0.00    +0.012 C 
ATOM      8  C   UNL     1      33.859 -24.474 -13.580  0.00  0.00    +0.026 C 
ATOM      9  C   UNL     1      37.731 -24.423 -14.186  0.00  0.00    +0.150 C 
ATOM     10  C   UNL     1      38.371 -23.478 -15.189  0.00  0.00    +0.065 C 
ATOM     11  C   UNL     1      36.062 -25.834 -15.315  0.00  0.00    +0.008 C 
ATOM     12  C   UNL     1      32.108 -23.184 -14.910  0.00  0.00    -0.004 C 
ATOM     13  C   UNL     1      34.194 -23.079 -16.916  0.00  0.00    -0.005 C 
ATOM     14  C   UNL     1      32.770 -23.056 -17.368  0.00  0.00    -0.000 C 
ATOM     15  C   UNL     1      31.744 -23.100 -16.267  0.00  0.00    +0.003 C 
ATOM     16  C   UNL     1      31.092 -23.172 -13.937  0.00  0.00    +0.003 C 
ATOM     17  C   UNL     1      30.385 -23.045 -16.621  0.00  0.00    +0.037 C 
ATOM     18  C   UNL     1      29.746 -23.113 -14.300  0.00  0.00    +0.037 C 
ATOM     19  C   UNL     1      29.392 -23.055 -15.643  0.00  0.00    +0.134 C 
ENDROOT
BRANCH  19  20
ATOM     20  O   UNL     1      28.081 -22.998 -16.002  0.00  0.00    -0.506 OA
ATOM     21  H   UNL     1      27.707 -23.683 -16.520  0.00  0.00    +0.292 HD
ENDBRANCH  19  20
TORSDOF 1
ENDMDL
MODEL 4
REMARK VINA RESULT:      -9.1      4.802      7.690
REMARK  Name = 223368
REMARK  1 active torsions:
REMARK  status: ('A' for Active; 'I' for Inactive)
REMARK    1  A    between atoms: C_19  and  O_20
REMARK                            x       y       z     vdW  Elec       q    Type
REMARK                         _______ _______ _______ _____ _____    ______ ____
ROOT
ATOM      1  O   UNL     1      31.197  -5.906 -21.000  0.00  0.00    -0.296 OA
ATOM      2  C   UNL     1      32.161  -7.982 -21.822  0.00  0.00    +0.056 C 
ATOM      3  C   UNL     1      31.719  -8.572 -23.180  0.00  0.00    +0.029 C 
ATOM      4  C   UNL     1      31.629  -8.890 -20.711  0.00  0.00    +0.012 C 
ATOM      5  C   UNL     1      31.900 -10.924 -22.301  0.00  0.00    -0.026 C 
ATOM      6  C   UNL     1      32.338  -9.929 -23.370  0.00  0.00    -0.026 C 
ATOM      7  C   UNL     1      31.911  -7.416 -24.162  0.00  0.00    +0.012 C 
ATOM      8  C   UNL     1      32.136 -10.337 -20.880  0.00  0.00    +0.026 C 
ATOM      9  C   UNL     1      31.508  -6.617 -21.946  0.00  0.00    +0.150 C 
ATOM     10  C   UNL     1      31.311  -6.225 -23.401  0.00  0.00    +0.065 C 
ATOM     11  C   UNL     1      33.676  -7.746 -21.671  0.00  0.00    +0.008 C 
ATOM     12  C   UNL     1      32.508 -12.312 -22.449  0.00  0.00    -0.004 C 
ATOM     13  C   UNL     1      33.196 -10.241 -24.352  0.00  0.00    -0.005 C 
ATOM     14  C   UNL     1      33.832 -11.584 -24.501  0.00  0.00    -0.000 C 
ATOM     15  C   UNL     1      33.414 -12.612 -23.482  0.00  0.00    +0.003 C 
ATOM     16  C   UNL     1      32.130 -13.338 -21.564  0.00  0.00    +0.003 C 
ATOM     17  C   UNL     1      33.947 -13.907 -23.587  0.00  0.00    +0.037 C 
ATOM     18  C   UNL     1      32.663 -14.623 -21.680  0.00  0.00    +0.037 C 
ATOM     19  C   UNL     1      33.576 -14.906 -22.689  0.00  0.00    +0.134 C 
ENDROOT
BRANCH  19  20
ATOM     20  O   UNL     1      34.099 -16.157 -22.804  0.00  0.00    -0.506 OA
ATOM     21  H   UNL     1      33.974 -16.782 -22.118  0.00  0.00    +0.292 HD
ENDBRANCH  19  20
TORSDOF 1
ENDMDL
MODEL 5
REMARK VINA RESULT:      -8.7      7.696      9.476
REMARK  Name = 223368
REMARK  1 active torsions:
REMARK  status: ('A' for Active; 'I' for Inactive)
REMARK    1  A    between atoms: C_19  and  O_20
REMARK                            x       y       z     vdW  Elec       q    Type
REMARK                         _______ _______ _______ _____ _____    ______ ____
ROOT
ATOM      1  O   UNL     1      29.143 -22.636 -17.309  0.00  0.00    -0.296 OA
ATOM      2  C   UNL     1      31.164 -23.381 -16.179  0.00  0.00    +0.056 C 
ATOM      3  C   UNL     1      31.585 -22.760 -14.828  0.00  0.00    +0.029 C 
ATOM      4  C   UNL     1      32.158 -22.920 -17.247  0.00  0.00    +0.012 C 
ATOM      5  C   UNL     1      34.023 -22.896 -15.441  0.00  0.00    -0.026 C 
ATOM      6  C   UNL     1      32.942 -23.273 -14.433  0.00  0.00    -0.026 C 
ATOM      7  C   UNL     1      30.342 -22.912 -13.951  0.00  0.00    +0.012 C 
ATOM      8  C   UNL     1      33.601 -23.319 -16.877  0.00  0.00    +0.026 C 
ATOM      9  C   UNL     1      29.764 -22.800 -16.268  0.00  0.00    +0.150 C 
ATOM     10  C   UNL     1      29.211 -22.470 -14.891  0.00  0.00    +0.065 C 
ATOM     11  C   UNL     1      31.017 -24.914 -16.179  0.00  0.00    +0.008 C 
ATOM     12  C   UNL     1      35.415 -23.400 -15.086  0.00  0.00    -0.004 C 
ATOM     13  C   UNL     1      33.188 -23.999 -13.334  0.00  0.00    -0.005 C 
ATOM     14  C   UNL     1      34.537 -24.535 -12.980  0.00  0.00    -0.000 C 
ATOM     15  C   UNL     1      35.646 -24.170 -13.932  0.00  0.00    +0.003 C 
ATOM     16  C   UNL     1      36.510 -23.060 -15.901  0.00  0.00    +0.003 C 
ATOM     17  C   UNL     1      36.947 -24.611 -13.638  0.00  0.00    +0.037 C 
ATOM     18  C   UNL     1      37.799 -23.500 -15.598  0.00  0.00    +0.037 C 
ATOM     19  C   UNL     1      38.017 -24.280 -14.468  0.00  0.00    +0.134 C 
ENDROOT
BRANCH  19  20
ATOM     20  O   UNL     1      39.272 -24.713 -14.169  0.00  0.00    -0.506 OA
ATOM     21  H   UNL     1      39.515 -25.601 -14.343  0.00  0.00    +0.292 HD
ENDBRANCH  19  20
TORSDOF 1
ENDMDL
MODEL 6
REMARK VINA RESULT:      -8.7      5.362     10.140
REMARK  Name = 223368
REMARK  1 active torsions:
REMARK  status: ('A' for Active; 'I' for Inactive)
REMARK    1  A    between atoms: C_19  and  O_20
REMARK                            x       y       z     vdW  Elec       q    Type
REMARK                         _______ _______ _______ _____ _____    ______ ____
ROOT
ATOM      1  O   UNL     1      36.864 -26.541 -11.881  0.00  0.00    -0.296 OA
ATOM      2  C   UNL     1      36.760 -25.169 -13.888  0.00  0.00    +0.056 C 
ATOM      3  C   UNL     1      36.896 -23.633 -13.798  0.00  0.00    +0.029 C 
ATOM      4  C   UNL     1      35.316 -25.500 -14.267  0.00  0.00    +0.012 C 
ATOM      5  C   UNL     1      35.220 -23.303 -15.648  0.00  0.00    -0.026 C 
ATOM      6  C   UNL     1      36.632 -23.020 -15.145  0.00  0.00    -0.026 C 
ATOM      7  C   UNL     1      38.195 -23.424 -13.020  0.00  0.00    +0.012 C 
ATOM      8  C   UNL     1      34.920 -24.828 -15.599  0.00  0.00    +0.026 C 
ATOM      9  C   UNL     1      37.179 -25.515 -12.470  0.00  0.00    +0.150 C 
ATOM     10  C   UNL     1      38.068 -24.437 -11.873  0.00  0.00    +0.065 C 
ATOM     11  C   UNL     1      37.758 -25.862 -14.834  0.00  0.00    +0.008 C 
ATOM     12  C   UNL     1      34.908 -22.707 -17.013  0.00  0.00    -0.004 C 
ATOM     13  C   UNL     1      37.531 -22.318 -15.849  0.00  0.00    -0.005 C 
ATOM     14  C   UNL     1      37.263 -21.751 -17.205  0.00  0.00    -0.000 C 
ATOM     15  C   UNL     1      35.873 -21.983 -17.737  0.00  0.00    +0.003 C 
ATOM     16  C   UNL     1      33.617 -22.841 -17.556  0.00  0.00    +0.003 C 
ATOM     17  C   UNL     1      35.542 -21.444 -18.992  0.00  0.00    +0.037 C 
ATOM     18  C   UNL     1      33.299 -22.298 -18.802  0.00  0.00    +0.037 C 
ATOM     19  C   UNL     1      34.264 -21.604 -19.522  0.00  0.00    +0.134 C 
ENDROOT
BRANCH  19  20
ATOM     20  O   UNL     1      33.958 -21.075 -20.738  0.00  0.00    -0.506 OA
ATOM     21  H   UNL     1      34.426 -20.328 -21.055  0.00  0.00    +0.292 HD
ENDBRANCH  19  20
TORSDOF 1
ENDMDL
MODEL 7
REMARK VINA RESULT:      -8.6      3.743      8.714
REMARK  Name = 223368
REMARK  1 active torsions:
REMARK  status: ('A' for Active; 'I' for Inactive)
REMARK    1  A    between atoms: C_19  and  O_20
REMARK                            x       y       z     vdW  Elec       q    Type
REMARK                         _______ _______ _______ _____ _____    ______ ____
ROOT
ATOM      1  O   UNL     1      34.357 -16.820 -22.714  0.00  0.00    -0.296 OA
ATOM      2  C   UNL     1      33.736 -14.564 -22.046  0.00  0.00    +0.056 C 
ATOM      3  C   UNL     1      32.310 -14.260 -21.533  0.00  0.00    +0.029 C 
ATOM      4  C   UNL     1      33.900 -13.909 -23.418  0.00  0.00    +0.012 C 
ATOM      5  C   UNL     1      32.310 -12.005 -22.653  0.00  0.00    -0.026 C 
ATOM      6  C   UNL     1      32.143 -12.777 -21.348  0.00  0.00    -0.026 C 
ATOM      7  C   UNL     1      32.100 -15.275 -20.410  0.00  0.00    +0.012 C 
ATOM      8  C   UNL     1      33.648 -12.389 -23.346  0.00  0.00    +0.026 C 
ATOM      9  C   UNL     1      33.662 -16.081 -22.029  0.00  0.00    +0.150 C 
ATOM     10  C   UNL     1      32.631 -16.576 -21.028  0.00  0.00    +0.065 C 
ATOM     11  C   UNL     1      34.877 -14.158 -21.094  0.00  0.00    +0.008 C 
ATOM     12  C   UNL     1      32.155 -10.497 -22.514  0.00  0.00    -0.004 C 
ATOM     13  C   UNL     1      31.895 -12.182 -20.173  0.00  0.00    -0.005 C 
ATOM     14  C   UNL     1      31.772 -10.703 -20.002  0.00  0.00    -0.000 C 
ATOM     15  C   UNL     1      31.905  -9.895 -21.267  0.00  0.00    +0.003 C 
ATOM     16  C   UNL     1      32.219  -9.680 -23.657  0.00  0.00    +0.003 C 
ATOM     17  C   UNL     1      31.763  -8.500 -21.183  0.00  0.00    +0.037 C 
ATOM     18  C   UNL     1      32.073  -8.295 -23.562  0.00  0.00    +0.037 C 
ATOM     19  C   UNL     1      31.850  -7.704 -22.324  0.00  0.00    +0.134 C 
ENDROOT
BRANCH  19  20
ATOM     20  O   UNL     1      31.708  -6.354 -22.228  0.00  0.00    -0.506 OA
ATOM     21  H   UNL     1      32.275  -5.788 -22.712  0.00  0.00    +0.292 HD
ENDBRANCH  19  20
TORSDOF 1
ENDMDL
MODEL 8
REMARK VINA RESULT:      -8.5      2.475      3.680
REMARK  Name = 223368
REMARK  1 active torsions:
REMARK  status: ('A' for Active; 'I' for Inactive)
REMARK    1  A    between atoms: C_19  and  O_20
REMARK                            x       y       z     vdW  Elec       q    Type
REMARK                         _______ _______ _______ _____ _____    ______ ____
ROOT
ATOM      1  O   UNL     1      33.814 -17.295 -23.614  0.00  0.00    -0.296 OA
ATOM      2  C   UNL     1      34.440 -18.607 -21.663  0.00  0.00    +0.056 C 
ATOM      3  C   UNL     1      35.487 -19.738 -21.778  0.00  0.00    +0.029 C 
ATOM      4  C   UNL     1      33.072 -19.246 -21.419  0.00  0.00    +0.012 C 
ATOM      5  C   UNL     1      34.245 -21.157 -20.111  0.00  0.00    -0.026 C 
ATOM      6  C   UNL     1      35.566 -20.491 -20.479  0.00  0.00    -0.026 C 
ATOM      7  C   UNL     1      36.691 -19.058 -22.429  0.00  0.00    +0.012 C 
ATOM      8  C   UNL     1      33.083 -20.124 -20.151  0.00  0.00    +0.026 C 
ATOM      9  C   UNL     1      34.650 -17.966 -23.024  0.00  0.00    +0.150 C 
ATOM     10  C   UNL     1      36.047 -18.239 -23.557  0.00  0.00    +0.065 C 
ATOM     11  C   UNL     1      34.750 -17.531 -20.606  0.00  0.00    +0.008 C 
ATOM     12  C   UNL     1      34.274 -21.927 -18.798  0.00  0.00    -0.004 C 
ATOM     13  C   UNL     1      36.660 -20.562 -19.708  0.00  0.00    -0.005 C 
ATOM     14  C   UNL     1      36.708 -21.282 -18.400  0.00  0.00    -0.000 C 
ATOM     15  C   UNL     1      35.433 -21.978 -18.002  0.00  0.00    +0.003 C 
ATOM     16  C   UNL     1      33.137 -22.643 -18.383  0.00  0.00    +0.003 C 
ATOM     17  C   UNL     1      35.420 -22.705 -16.800  0.00  0.00    +0.037 C 
ATOM     18  C   UNL     1      33.137 -23.365 -17.188  0.00  0.00    +0.037 C 
ATOM     19  C   UNL     1      34.277 -23.392 -16.394  0.00  0.00    +0.134 C 
ENDROOT
BRANCH  19  20
ATOM     20  O   UNL     1      34.280 -24.094 -15.228  0.00  0.00    -0.506 OA
ATOM     21  H   UNL     1      35.089 -24.265 -14.787  0.00  0.00    +0.292 HD
ENDBRANCH  19  20
TORSDOF 1
ENDMDL
MODEL 9
REMARK VINA RESULT:      -8.3      7.948      9.677
REMARK  Name = 223368
REMARK  1 active torsions:
REMARK  status: ('A' for Active; 'I' for Inactive)
REMARK    1  A    between atoms: C_19  and  O_20
REMARK                            x       y       z     vdW  Elec       q    Type
REMARK                         _______ _______ _______ _____ _____    ______ ____
ROOT
ATOM      1  O   UNL     1      29.626 -23.972 -14.435  0.00  0.00    -0.296 OA
ATOM      2  C   UNL     1      32.028 -23.663 -14.670  0.00  0.00    +0.056 C 
ATOM      3  C   UNL     1      32.702 -23.759 -16.058  0.00  0.00    +0.029 C 
ATOM      4  C   UNL     1      32.456 -24.880 -13.848  0.00  0.00    +0.012 C 
ATOM      5  C   UNL     1      34.745 -24.851 -15.073  0.00  0.00    -0.026 C 
ATOM      6  C   UNL     1      34.196 -23.696 -15.903  0.00  0.00    -0.026 C 
ATOM      7  C   UNL     1      31.905 -22.779 -16.920  0.00  0.00    +0.012 C 
ATOM      8  C   UNL     1      33.991 -24.954 -13.716  0.00  0.00    +0.026 C 
ATOM      9  C   UNL     1      30.580 -23.634 -15.125  0.00  0.00    +0.150 C 
ATOM     10  C   UNL     1      30.452 -23.104 -16.543  0.00  0.00    +0.065 C 
ATOM     11  C   UNL     1      32.287 -22.352 -13.904  0.00  0.00    +0.008 C 
ATOM     12  C   UNL     1      36.255 -24.826 -14.883  0.00  0.00    -0.004 C 
ATOM     13  C   UNL     1      34.972 -22.729 -16.412  0.00  0.00    -0.005 C 
ATOM     14  C   UNL     1      36.451 -22.661 -16.213  0.00  0.00    -0.000 C 
ATOM     15  C   UNL     1      37.046 -23.794 -15.419  0.00  0.00    +0.003 C 
ATOM     16  C   UNL     1      36.890 -25.876 -14.194  0.00  0.00    +0.003 C 
ATOM     17  C   UNL     1      38.438 -23.812 -15.226  0.00  0.00    +0.037 C 
ATOM     18  C   UNL     1      38.273 -25.884 -14.011  0.00  0.00    +0.037 C 
ATOM     19  C   UNL     1      39.047 -24.850 -14.523  0.00  0.00    +0.134 C 
ENDROOT
BRANCH  19  20
ATOM     20  O   UNL     1      40.396 -24.854 -14.345  0.00  0.00    -0.506 OA
ATOM     21  H   UNL     1      40.959 -24.534 -15.023  0.00  0.00    +0.292 HD
ENDBRANCH  19  20
TORSDOF 1
ENDMDL
