MODEL 1
REMARK VINA RESULT:     -10.3      0.000      0.000
REMARK  Name = 40589
REMARK  7 active torsions:
REMARK  status: ('A' for Active; 'I' for Inactive)
REMARK    1  A    between atoms: N_1  and  C_15
REMARK    2  A    between atoms: N_2  and  C_9
REMARK    3  A    between atoms: C_15  and  C_16
REMARK    4  A    between atoms: C_16  and  C_17
REMARK    5  A    between atoms: C_17  and  N_19
REMARK    6  A    between atoms: N_20  and  C_24
REMARK    7  A    between atoms: C_23  and  C_26
REMARK                            x       y       z     vdW  Elec       q    Type
REMARK                         _______ _______ _______ _____ _____    ______ ____
ROOT
ATOM      1  N   UNL     1      34.520 -15.592 -23.379  0.00  0.00    +0.389 N 
ATOM      2  N   UNL     1      34.931 -17.969 -21.848  0.00  0.00    -0.312 N 
ATOM      3  C   UNL     1      33.981 -15.701 -22.018  0.00  0.00    -0.055 C 
ATOM      4  C   UNL     1      34.502 -16.907 -24.030  0.00  0.00    -0.055 C 
ATOM      5  C   UNL     1      34.811 -16.671 -21.174  0.00  0.00    +0.068 C 
ATOM      6  C   UNL     1      35.350 -17.917 -23.253  0.00  0.00    +0.068 C 
ATOM      7  H   UNL     1      35.484 -15.264 -23.325  0.00  0.00    -0.080 HD
ENDROOT
BRANCH   2   9
ATOM      8 CL   UNL     1      33.302 -22.085 -19.227  0.00  0.00    -0.082 Cl
ATOM      9  C   UNL     1      35.247 -19.088 -21.070  0.00  0.00    +0.049 C 
ATOM     10  C   UNL     1      34.239 -19.942 -20.583  0.00  0.00    +0.026 C 
ATOM     11  C   UNL     1      36.586 -19.393 -20.750  0.00  0.00    +0.015 C 
ATOM     12  C   UNL     1      34.555 -21.058 -19.809  0.00  0.00    +0.059 C 
ATOM     13  C   UNL     1      36.901 -20.509 -19.975  0.00  0.00    +0.002 C 
ATOM     14  C   UNL     1      35.887 -21.342 -19.504  0.00  0.00    +0.011 C 
ENDBRANCH   2   9
BRANCH   1  15
ATOM     15  C   UNL     1      33.752 -14.623 -24.158  0.00  0.00    -0.075 C 
BRANCH  15  16
ATOM     16  C   UNL     1      33.804 -13.222 -23.542  0.00  0.00    +0.004 C 
BRANCH  16  17
ATOM     17  C   UNL     1      33.753 -12.083 -24.559  0.00  0.00    +0.130 C 
BRANCH  17  19
ATOM     18  O   UNL     1      31.662 -11.031 -22.631  0.00  0.00    -0.245 OA
ATOM     19  N   UNL     1      33.606 -10.796 -23.937  0.00  0.00    -0.201 N 
ATOM     20  N   UNL     1      32.926  -9.063 -22.750  0.00  0.00    -0.267 N 
ATOM     21  N   UNL     1      34.495  -9.780 -24.170  0.00  0.00    -0.152 NA
ATOM     22  C   UNL     1      32.605 -10.374 -23.047  0.00  0.00    +0.348 A 
ATOM     23  C   UNL     1      34.046  -8.792 -23.453  0.00  0.00    +0.144 A 
BRANCH  20  24
ATOM     24  C   UNL     1      32.187  -8.185 -21.862  0.00  0.00    +0.112 C 
ATOM     25  C   UNL     1      32.569  -8.424 -20.411  0.00  0.00    +0.027 C 
ENDBRANCH  20  24
BRANCH  23  26
ATOM     26  C   UNL     1      34.704  -7.454 -23.387  0.00  0.00    +0.066 C 
ATOM     27  C   UNL     1      34.467  -6.684 -24.670  0.00  0.00    +0.008 C 
ENDBRANCH  23  26
ENDBRANCH  17  19
ENDBRANCH  16  17
ENDBRANCH  15  16
ENDBRANCH   1  15
TORSDOF 7
ENDMDL
MODEL 2
REMARK VINA RESULT:     -10.3      4.100     10.165
REMARK  Name = 40589
REMARK  7 active torsions:
REMARK  status: ('A' for Active; 'I' for Inactive)
REMARK    1  A    between atoms: N_1  and  C_15
REMARK    2  A    between atoms: N_2  and  C_9
REMARK    3  A    between atoms: C_15  and  C_16
REMARK    4  A    between atoms: C_16  and  C_17
REMARK    5  A    between atoms: C_17  and  N_19
REMARK    6  A    between atoms: N_20  and  C_24
REMARK    7  A    between atoms: C_23  and  C_26
REMARK                            x       y       z     vdW  Elec       q    Type
REMARK                         _______ _______ _______ _____ _____    ______ ____
ROOT
ATOM      1  N   UNL     1      31.940 -12.932 -22.246  0.00  0.00    +0.389 N 
ATOM      2  N   UNL     1      32.025 -10.087 -22.009  0.00  0.00    -0.312 N 
ATOM      3  C   UNL     1      31.626 -12.284 -20.967  0.00  0.00    -0.055 C 
ATOM      4  C   UNL     1      32.961 -12.157 -22.961  0.00  0.00    -0.055 C 
ATOM      5  C   UNL     1      31.093 -10.866 -21.186  0.00  0.00    +0.068 C 
ATOM      6  C   UNL     1      32.474 -10.734 -23.246  0.00  0.00    +0.068 C 
ATOM      7  H   UNL     1      31.094 -12.964 -22.816  0.00  0.00    -0.080 HD
ENDROOT
BRANCH   2   9
ATOM      8 CL   UNL     1      31.051  -5.634 -24.395  0.00  0.00    -0.082 Cl
ATOM      9  C   UNL     1      31.952  -8.691 -21.944  0.00  0.00    +0.049 C 
ATOM     10  C   UNL     1      31.581  -7.930 -23.070  0.00  0.00    +0.026 C 
ATOM     11  C   UNL     1      32.248  -8.004 -20.749  0.00  0.00    +0.015 C 
ATOM     12  C   UNL     1      31.507  -6.539 -23.004  0.00  0.00    +0.059 C 
ATOM     13  C   UNL     1      32.175  -6.613 -20.684  0.00  0.00    +0.002 C 
ATOM     14  C   UNL     1      31.805  -5.880 -21.810  0.00  0.00    +0.011 C 
ENDBRANCH   2   9
BRANCH   1  15
ATOM     15  C   UNL     1      32.395 -14.304 -22.028  0.00  0.00    -0.075 C 
BRANCH  15  16
ATOM     16  C   UNL     1      33.102 -14.465 -20.679  0.00  0.00    +0.004 C 
BRANCH  16  17
ATOM     17  C   UNL     1      34.562 -14.901 -20.780  0.00  0.00    +0.130 C 
BRANCH  17  19
ATOM     18  O   UNL     1      35.393 -15.754 -23.569  0.00  0.00    -0.245 OA
ATOM     19  N   UNL     1      34.709 -16.206 -21.363  0.00  0.00    -0.201 N 
ATOM     20  N   UNL     1      35.082 -17.912 -22.714  0.00  0.00    -0.267 N 
ATOM     21  N   UNL     1      34.462 -17.345 -20.643  0.00  0.00    -0.152 NA
ATOM     22  C   UNL     1      35.100 -16.531 -22.671  0.00  0.00    +0.348 A 
ATOM     23  C   UNL     1      34.693 -18.311 -21.484  0.00  0.00    +0.144 A 
BRANCH  20  24
ATOM     24  C   UNL     1      35.416 -18.734 -23.862  0.00  0.00    +0.112 C 
ATOM     25  C   UNL     1      34.291 -18.733 -24.883  0.00  0.00    +0.027 C 
ENDBRANCH  20  24
BRANCH  23  26
ATOM     26  C   UNL     1      34.556 -19.756 -21.140  0.00  0.00    +0.066 C 
ATOM     27  C   UNL     1      33.168 -20.044 -20.605  0.00  0.00    +0.008 C 
ENDBRANCH  23  26
ENDBRANCH  17  19
ENDBRANCH  16  17
ENDBRANCH  15  16
ENDBRANCH   1  15
TORSDOF 7
ENDMDL
MODEL 3
REMARK VINA RESULT:     -10.3      1.556      2.446
REMARK  Name = 40589
REMARK  7 active torsions:
REMARK  status: ('A' for Active; 'I' for Inactive)
REMARK    1  A    between atoms: N_1  and  C_15
REMARK    2  A    between atoms: N_2  and  C_9
REMARK    3  A    between atoms: C_15  and  C_16
REMARK    4  A    between atoms: C_16  and  C_17
REMARK    5  A    between atoms: C_17  and  N_19
REMARK    6  A    between atoms: N_20  and  C_24
REMARK    7  A    between atoms: C_23  and  C_26
REMARK                            x       y       z     vdW  Elec       q    Type
REMARK                         _______ _______ _______ _____ _____    ______ ____
ROOT
ATOM      1  N   UNL     1      34.760 -16.533 -23.767  0.00  0.00    +0.389 N 
ATOM      2  N   UNL     1      35.002 -18.655 -21.871  0.00  0.00    -0.312 N 
ATOM      3  C   UNL     1      34.306 -16.348 -22.384  0.00  0.00    -0.055 C 
ATOM      4  C   UNL     1      34.549 -17.925 -24.180  0.00  0.00    -0.055 C 
ATOM      5  C   UNL     1      35.076 -17.259 -21.426  0.00  0.00    +0.068 C 
ATOM      6  C   UNL     1      35.327 -18.890 -23.282  0.00  0.00    +0.068 C 
ATOM      7  H   UNL     1      35.757 -16.323 -23.817  0.00  0.00    -0.080 HD
ENDROOT
BRANCH   2   9
ATOM      8 CL   UNL     1      33.104 -22.294 -18.768  0.00  0.00    -0.082 Cl
ATOM      9  C   UNL     1      35.241 -19.660 -20.928  0.00  0.00    +0.049 C 
ATOM     10  C   UNL     1      34.180 -20.401 -20.370  0.00  0.00    +0.026 C 
ATOM     11  C   UNL     1      36.552 -19.962 -20.505  0.00  0.00    +0.015 C 
ATOM     12  C   UNL     1      34.419 -21.404 -19.431  0.00  0.00    +0.059 C 
ATOM     13  C   UNL     1      36.791 -20.964 -19.565  0.00  0.00    +0.002 C 
ATOM     14  C   UNL     1      35.725 -21.685 -19.028  0.00  0.00    +0.011 C 
ENDBRANCH   2   9
BRANCH   1  15
ATOM     15  C   UNL     1      34.056 -15.619 -24.665  0.00  0.00    -0.075 C 
BRANCH  15  16
ATOM     16  C   UNL     1      33.318 -14.518 -23.898  0.00  0.00    +0.004 C 
BRANCH  16  17
ATOM     17  C   UNL     1      33.720 -13.098 -24.290  0.00  0.00    +0.130 C 
BRANCH  17  19
ATOM     18  O   UNL     1      33.943 -10.073 -24.307  0.00  0.00    -0.245 OA
ATOM     19  N   UNL     1      33.057 -12.099 -23.499  0.00  0.00    -0.201 N 
ATOM     20  N   UNL     1      32.350 -10.212 -22.596  0.00  0.00    -0.267 N 
ATOM     21  N   UNL     1      32.143 -12.436 -22.536  0.00  0.00    -0.152 NA
ATOM     22  C   UNL     1      33.209 -10.704 -23.560  0.00  0.00    +0.348 A 
ATOM     23  C   UNL     1      31.765 -11.294 -22.040  0.00  0.00    +0.144 A 
BRANCH  20  24
ATOM     24  C   UNL     1      32.143  -8.812 -22.273  0.00  0.00    +0.112 C 
ATOM     25  C   UNL     1      31.203  -8.153 -23.268  0.00  0.00    +0.027 C 
ENDBRANCH  20  24
BRANCH  23  26
ATOM     26  C   UNL     1      30.759 -11.161 -20.946  0.00  0.00    +0.066 C 
ATOM     27  C   UNL     1      31.433 -11.254 -19.592  0.00  0.00    +0.008 C 
ENDBRANCH  23  26
ENDBRANCH  17  19
ENDBRANCH  16  17
ENDBRANCH  15  16
ENDBRANCH   1  15
TORSDOF 7
ENDMDL
MODEL 4
REMARK VINA RESULT:     -10.0      3.615      9.044
REMARK  Name = 40589
REMARK  7 active torsions:
REMARK  status: ('A' for Active; 'I' for Inactive)
REMARK    1  A    between atoms: N_1  and  C_15
REMARK    2  A    between atoms: N_2  and  C_9
REMARK    3  A    between atoms: C_15  and  C_16
REMARK    4  A    between atoms: C_16  and  C_17
REMARK    5  A    between atoms: C_17  and  N_19
REMARK    6  A    between atoms: N_20  and  C_24
REMARK    7  A    between atoms: C_23  and  C_26
REMARK                            x       y       z     vdW  Elec       q    Type
REMARK                         _______ _______ _______ _____ _____    ______ ____
ROOT
ATOM      1  N   UNL     1      33.563 -13.887 -25.779  0.00  0.00    +0.389 N 
ATOM      2  N   UNL     1      33.581 -11.314 -24.537  0.00  0.00    -0.312 N 
ATOM      3  C   UNL     1      33.574 -12.668 -26.596  0.00  0.00    -0.055 C 
ATOM      4  C   UNL     1      32.806 -13.653 -24.544  0.00  0.00    -0.055 C 
ATOM      5  C   UNL     1      34.224 -11.506 -25.842  0.00  0.00    +0.068 C 
ATOM      6  C   UNL     1      33.430 -12.523 -23.721  0.00  0.00    +0.068 C 
ATOM      7  H   UNL     1      34.524 -14.128 -25.534  0.00  0.00    -0.080 HD
ENDROOT
BRANCH   2   9
ATOM      8 CL   UNL     1      31.825  -7.936 -21.077  0.00  0.00    -0.082 Cl
ATOM      9  C   UNL     1      33.714 -10.068 -23.915  0.00  0.00    +0.049 C 
ATOM     10  C   UNL     1      32.810  -9.655 -22.916  0.00  0.00    +0.026 C 
ATOM     11  C   UNL     1      34.756  -9.188 -24.269  0.00  0.00    +0.015 C 
ATOM     12  C   UNL     1      32.943  -8.414 -22.295  0.00  0.00    +0.059 C 
ATOM     13  C   UNL     1      34.889  -7.946 -23.649  0.00  0.00    +0.002 C 
ATOM     14  C   UNL     1      33.984  -7.559 -22.661  0.00  0.00    +0.011 C 
ENDBRANCH   2   9
BRANCH   1  15
ATOM     15  C   UNL     1      32.991 -15.003 -26.528  0.00  0.00    -0.075 C 
BRANCH  15  16
ATOM     16  C   UNL     1      33.229 -16.345 -25.830  0.00  0.00    +0.004 C 
BRANCH  16  17
ATOM     17  C   UNL     1      34.671 -16.576 -25.382  0.00  0.00    +0.130 C 
BRANCH  17  19
ATOM     18  O   UNL     1      34.951 -19.332 -24.148  0.00  0.00    -0.245 OA
ATOM     19  N   UNL     1      34.761 -16.990 -24.009  0.00  0.00    -0.201 N 
ATOM     20  N   UNL     1      34.934 -18.139 -22.132  0.00  0.00    -0.267 N 
ATOM     21  N   UNL     1      34.727 -16.083 -22.982  0.00  0.00    -0.152 NA
ATOM     22  C   UNL     1      34.890 -18.294 -23.504  0.00  0.00    +0.348 A 
ATOM     23  C   UNL     1      34.829 -16.812 -21.909  0.00  0.00    +0.144 A 
BRANCH  20  24
ATOM     24  C   UNL     1      35.066 -19.207 -21.158  0.00  0.00    +0.112 C 
ATOM     25  C   UNL     1      33.715 -19.815 -20.824  0.00  0.00    +0.027 C 
ENDBRANCH  20  24
BRANCH  23  26
ATOM     26  C   UNL     1      34.841 -16.250 -20.527  0.00  0.00    +0.066 C 
ATOM     27  C   UNL     1      34.295 -14.836 -20.526  0.00  0.00    +0.008 C 
ENDBRANCH  23  26
ENDBRANCH  17  19
ENDBRANCH  16  17
ENDBRANCH  15  16
ENDBRANCH   1  15
TORSDOF 7
ENDMDL
MODEL 5
REMARK VINA RESULT:      -9.9      1.377      2.317
REMARK  Name = 40589
REMARK  7 active torsions:
REMARK  status: ('A' for Active; 'I' for Inactive)
REMARK    1  A    between atoms: N_1  and  C_15
REMARK    2  A    between atoms: N_2  and  C_9
REMARK    3  A    between atoms: C_15  and  C_16
REMARK    4  A    between atoms: C_16  and  C_17
REMARK    5  A    between atoms: C_17  and  N_19
REMARK    6  A    between atoms: N_20  and  C_24
REMARK    7  A    between atoms: C_23  and  C_26
REMARK                            x       y       z     vdW  Elec       q    Type
REMARK                         _______ _______ _______ _____ _____    ______ ____
ROOT
ATOM      1  N   UNL     1      34.642 -15.510 -23.279  0.00  0.00    +0.389 N 
ATOM      2  N   UNL     1      34.325 -17.964 -21.852  0.00  0.00    -0.312 N 
ATOM      3  C   UNL     1      33.761 -15.579 -22.107  0.00  0.00    -0.055 C 
ATOM      4  C   UNL     1      34.617 -16.789 -23.998  0.00  0.00    -0.055 C 
ATOM      5  C   UNL     1      34.209 -16.683 -21.146  0.00  0.00    +0.068 C 
ATOM      6  C   UNL     1      35.094 -17.934 -23.100  0.00  0.00    +0.068 C 
ATOM      7  H   UNL     1      35.595 -15.328 -22.964  0.00  0.00    -0.080 HD
ENDROOT
BRANCH   2   9
ATOM      8 CL   UNL     1      36.869 -21.641 -19.307  0.00  0.00    -0.082 Cl
ATOM      9  C   UNL     1      34.278 -19.139 -21.094  0.00  0.00    +0.049 C 
ATOM     10  C   UNL     1      35.458 -19.749 -20.624  0.00  0.00    +0.026 C 
ATOM     11  C   UNL     1      33.047 -19.750 -20.778  0.00  0.00    +0.015 C 
ATOM     12  C   UNL     1      35.411 -20.919 -19.868  0.00  0.00    +0.059 C 
ATOM     13  C   UNL     1      33.000 -20.921 -20.023  0.00  0.00    +0.002 C 
ATOM     14  C   UNL     1      34.181 -21.506 -19.568  0.00  0.00    +0.011 C 
ENDBRANCH   2   9
BRANCH   1  15
ATOM     15  C   UNL     1      34.237 -14.418 -24.162  0.00  0.00    -0.075 C 
BRANCH  15  16
ATOM     16  C   UNL     1      33.867 -13.155 -23.378  0.00  0.00    +0.004 C 
BRANCH  16  17
ATOM     17  C   UNL     1      33.029 -12.148 -24.163  0.00  0.00    +0.130 C 
BRANCH  17  19
ATOM     18  O   UNL     1      35.199 -10.149 -24.867  0.00  0.00    -0.245 OA
ATOM     19  N   UNL     1      33.243 -10.795 -23.727  0.00  0.00    -0.201 N 
ATOM     20  N   UNL     1      34.018  -8.754 -23.401  0.00  0.00    -0.267 N 
ATOM     21  N   UNL     1      32.394 -10.183 -22.843  0.00  0.00    -0.152 NA
ATOM     22  C   UNL     1      34.277  -9.920 -24.096  0.00  0.00    +0.348 A 
ATOM     23  C   UNL     1      32.898  -8.994 -22.687  0.00  0.00    +0.144 A 
BRANCH  20  24
ATOM     24  C   UNL     1      34.810  -7.539 -23.450  0.00  0.00    +0.112 C 
ATOM     25  C   UNL     1      34.509  -6.738 -24.705  0.00  0.00    +0.027 C 
ENDBRANCH  20  24
BRANCH  23  26
ATOM     26  C   UNL     1      32.300  -7.954 -21.801  0.00  0.00    +0.066 C 
ATOM     27  C   UNL     1      31.315  -7.101 -22.575  0.00  0.00    +0.008 C 
ENDBRANCH  23  26
ENDBRANCH  17  19
ENDBRANCH  16  17
ENDBRANCH  15  16
ENDBRANCH   1  15
TORSDOF 7
ENDMDL
MODEL 6
REMARK VINA RESULT:      -9.9      6.713     12.886
REMARK  Name = 40589
REMARK  7 active torsions:
REMARK  status: ('A' for Active; 'I' for Inactive)
REMARK    1  A    between atoms: N_1  and  C_15
REMARK    2  A    between atoms: N_2  and  C_9
REMARK    3  A    between atoms: C_15  and  C_16
REMARK    4  A    between atoms: C_16  and  C_17
REMARK    5  A    between atoms: C_17  and  N_19
REMARK    6  A    between atoms: N_20  and  C_24
REMARK    7  A    between atoms: C_23  and  C_26
REMARK                            x       y       z     vdW  Elec       q    Type
REMARK                         _______ _______ _______ _____ _____    ______ ____
ROOT
ATOM      1  N   UNL     1      34.466 -21.522 -19.128  0.00  0.00    +0.389 N 
ATOM      2  N   UNL     1      34.547 -19.711 -21.336  0.00  0.00    -0.312 N 
ATOM      3  C   UNL     1      35.649 -21.459 -19.994  0.00  0.00    -0.055 C 
ATOM      4  C   UNL     1      33.256 -21.256 -19.916  0.00  0.00    -0.055 C 
ATOM      5  C   UNL     1      35.785 -20.079 -20.640  0.00  0.00    +0.068 C 
ATOM      6  C   UNL     1      33.312 -19.869 -20.560  0.00  0.00    +0.068 C 
ATOM      7  H   UNL     1      34.550 -20.808 -18.404  0.00  0.00    -0.080 HD
ENDROOT
BRANCH   2   9
ATOM      8 CL   UNL     1      34.603 -14.720 -22.587  0.00  0.00    -0.082 Cl
ATOM      9  C   UNL     1      34.618 -18.733 -22.334  0.00  0.00    +0.049 C 
ATOM     10  C   UNL     1      34.579 -17.362 -22.013  0.00  0.00    +0.026 C 
ATOM     11  C   UNL     1      34.730 -19.092 -23.693  0.00  0.00    +0.015 C 
ATOM     12  C   UNL     1      34.651 -16.389 -23.008  0.00  0.00    +0.059 C 
ATOM     13  C   UNL     1      34.801 -18.118 -24.688  0.00  0.00    +0.002 C 
ATOM     14  C   UNL     1      34.762 -16.767 -24.347  0.00  0.00    +0.011 C 
ENDBRANCH   2   9
BRANCH   1  15
ATOM     15  C   UNL     1      34.376 -22.826 -18.475  0.00  0.00    -0.075 C 
BRANCH  15  16
ATOM     16  C   UNL     1      34.804 -22.762 -17.005  0.00  0.00    +0.004 C 
BRANCH  16  17
ATOM     17  C   UNL     1      34.100 -23.769 -16.099  0.00  0.00    +0.130 C 
BRANCH  17  19
ATOM     18  O   UNL     1      35.979 -26.135 -15.835  0.00  0.00    -0.245 OA
ATOM     19  N   UNL     1      34.928 -24.198 -15.006  0.00  0.00    -0.201 N 
ATOM     20  N   UNL     1      36.339 -25.270 -13.688  0.00  0.00    -0.267 N 
ATOM     21  N   UNL     1      34.969 -23.510 -13.822  0.00  0.00    -0.152 NA
ATOM     22  C   UNL     1      35.780 -25.313 -14.951  0.00  0.00    +0.348 A 
ATOM     23  C   UNL     1      35.807 -24.183 -13.089  0.00  0.00    +0.144 A 
BRANCH  20  24
ATOM     24  C   UNL     1      37.297 -26.216 -13.147  0.00  0.00    +0.112 C 
ATOM     25  C   UNL     1      38.720 -25.818 -13.500  0.00  0.00    +0.027 C 
ENDBRANCH  20  24
BRANCH  23  26
ATOM     26  C   UNL     1      36.176 -23.802 -11.695  0.00  0.00    +0.066 C 
ATOM     27  C   UNL     1      37.346 -22.839 -11.701  0.00  0.00    +0.008 C 
ENDBRANCH  23  26
ENDBRANCH  17  19
ENDBRANCH  16  17
ENDBRANCH  15  16
ENDBRANCH   1  15
TORSDOF 7
ENDMDL
MODEL 7
REMARK VINA RESULT:      -9.8      6.367     12.247
REMARK  Name = 40589
REMARK  7 active torsions:
REMARK  status: ('A' for Active; 'I' for Inactive)
REMARK    1  A    between atoms: N_1  and  C_15
REMARK    2  A    between atoms: N_2  and  C_9
REMARK    3  A    between atoms: C_15  and  C_16
REMARK    4  A    between atoms: C_16  and  C_17
REMARK    5  A    between atoms: C_17  and  N_19
REMARK    6  A    between atoms: N_20  and  C_24
REMARK    7  A    between atoms: C_23  and  C_26
REMARK                            x       y       z     vdW  Elec       q    Type
REMARK                         _______ _______ _______ _____ _____    ______ ____
ROOT
ATOM      1  N   UNL     1      35.291 -20.680 -19.416  0.00  0.00    +0.389 N 
ATOM      2  N   UNL     1      34.932 -19.093 -21.764  0.00  0.00    -0.312 N 
ATOM      3  C   UNL     1      36.430 -20.383 -20.293  0.00  0.00    -0.055 C 
ATOM      4  C   UNL     1      34.065 -20.800 -20.213  0.00  0.00    -0.055 C 
ATOM      5  C   UNL     1      36.214 -19.071 -21.049  0.00  0.00    +0.068 C 
ATOM      6  C   UNL     1      33.769 -19.502 -20.968  0.00  0.00    +0.068 C 
ATOM      7  H   UNL     1      35.178 -19.913 -18.752  0.00  0.00    -0.080 HD
ENDROOT
BRANCH   2   9
ATOM      8 CL   UNL     1      34.322 -14.260 -23.418  0.00  0.00    -0.082 Cl
ATOM      9  C   UNL     1      34.762 -18.215 -22.839  0.00  0.00    +0.049 C 
ATOM     10  C   UNL     1      34.638 -16.827 -22.630  0.00  0.00    +0.026 C 
ATOM     11  C   UNL     1      34.709 -18.692 -24.164  0.00  0.00    +0.015 C 
ATOM     12  C   UNL     1      34.470 -15.951 -23.702  0.00  0.00    +0.059 C 
ATOM     13  C   UNL     1      34.540 -17.816 -25.236  0.00  0.00    +0.002 C 
ATOM     14  C   UNL     1      34.421 -16.446 -25.006  0.00  0.00    +0.011 C 
ENDBRANCH   2   9
BRANCH   1  15
ATOM     15  C   UNL     1      35.533 -21.906 -18.658  0.00  0.00    -0.075 C 
BRANCH  15  16
ATOM     16  C   UNL     1      36.931 -21.927 -18.033  0.00  0.00    +0.004 C 
BRANCH  16  17
ATOM     17  C   UNL     1      36.974 -21.492 -16.569  0.00  0.00    +0.130 C 
BRANCH  17  19
ATOM     18  O   UNL     1      38.676 -23.725 -15.422  0.00  0.00    -0.245 OA
ATOM     19  N   UNL     1      36.644 -22.561 -15.667  0.00  0.00    -0.201 N 
ATOM     20  N   UNL     1      36.684 -24.333 -14.351  0.00  0.00    -0.267 N 
ATOM     21  N   UNL     1      35.379 -22.712 -15.164  0.00  0.00    -0.152 NA
ATOM     22  C   UNL     1      37.489 -23.568 -15.174  0.00  0.00    +0.348 A 
ATOM     23  C   UNL     1      35.461 -23.765 -14.404  0.00  0.00    +0.144 A 
BRANCH  20  24
ATOM     24  C   UNL     1      37.100 -25.503 -13.599  0.00  0.00    +0.112 C 
ATOM     25  C   UNL     1      37.855 -25.108 -12.342  0.00  0.00    +0.027 C 
ENDBRANCH  20  24
BRANCH  23  26
ATOM     26  C   UNL     1      34.310 -24.317 -13.632  0.00  0.00    +0.066 C 
ATOM     27  C   UNL     1      33.007 -23.713 -14.118  0.00  0.00    +0.008 C 
ENDBRANCH  23  26
ENDBRANCH  17  19
ENDBRANCH  16  17
ENDBRANCH  15  16
ENDBRANCH   1  15
TORSDOF 7
ENDMDL
MODEL 8
REMARK VINA RESULT:      -9.7      5.670     11.583
REMARK  Name = 40589
REMARK  7 active torsions:
REMARK  status: ('A' for Active; 'I' for Inactive)
REMARK    1  A    between atoms: N_1  and  C_15
REMARK    2  A    between atoms: N_2  and  C_9
REMARK    3  A    between atoms: C_15  and  C_16
REMARK    4  A    between atoms: C_16  and  C_17
REMARK    5  A    between atoms: C_17  and  N_19
REMARK    6  A    between atoms: N_20  and  C_24
REMARK    7  A    between atoms: C_23  and  C_26
REMARK                            x       y       z     vdW  Elec       q    Type
REMARK                         _______ _______ _______ _____ _____    ______ ____
ROOT
ATOM      1  N   UNL     1      35.202 -20.969 -20.371  0.00  0.00    +0.389 N 
ATOM      2  N   UNL     1      34.814 -18.285 -21.269  0.00  0.00    -0.312 N 
ATOM      3  C   UNL     1      33.893 -20.320 -20.228  0.00  0.00    -0.055 C 
ATOM      4  C   UNL     1      36.271 -19.974 -20.224  0.00  0.00    -0.055 C 
ATOM      5  C   UNL     1      33.697 -19.237 -21.291  0.00  0.00    +0.068 C 
ATOM      6  C   UNL     1      36.155 -18.879 -21.287  0.00  0.00    +0.068 C 
ATOM      7  H   UNL     1      35.264 -21.383 -21.301  0.00  0.00    -0.080 HD
ENDROOT
BRANCH   2   9
ATOM      8 CL   UNL     1      33.816 -15.438 -25.437  0.00  0.00    -0.082 Cl
ATOM      9  C   UNL     1      34.609 -17.018 -21.825  0.00  0.00    +0.049 C 
ATOM     10  C   UNL     1      34.344 -16.862 -23.200  0.00  0.00    +0.026 C 
ATOM     11  C   UNL     1      34.664 -15.858 -21.026  0.00  0.00    +0.015 C 
ATOM     12  C   UNL     1      34.139 -15.598 -23.754  0.00  0.00    +0.059 C 
ATOM     13  C   UNL     1      34.460 -14.594 -21.580  0.00  0.00    +0.002 C 
ATOM     14  C   UNL     1      34.198 -14.463 -22.943  0.00  0.00    +0.011 C 
ENDBRANCH   2   9
BRANCH   1  15
ATOM     15  C   UNL     1      35.356 -22.037 -19.385  0.00  0.00    -0.075 C 
BRANCH  15  16
ATOM     16  C   UNL     1      34.024 -22.400 -18.722  0.00  0.00    +0.004 C 
BRANCH  16  17
ATOM     17  C   UNL     1      34.162 -23.141 -17.393  0.00  0.00    +0.130 C 
BRANCH  17  19
ATOM     18  O   UNL     1      33.659 -23.657 -14.448  0.00  0.00    -0.245 OA
ATOM     19  N   UNL     1      32.946 -23.132 -16.629  0.00  0.00    -0.201 N 
ATOM     20  N   UNL     1      31.427 -23.247 -15.030  0.00  0.00    -0.267 N 
ATOM     21  N   UNL     1      31.735 -22.858 -17.209  0.00  0.00    -0.152 NA
ATOM     22  C   UNL     1      32.784 -23.382 -15.257  0.00  0.00    +0.348 A 
ATOM     23  C   UNL     1      30.884 -22.942 -16.228  0.00  0.00    +0.144 A 
BRANCH  20  24
ATOM     24  C   UNL     1      30.756 -23.408 -13.754  0.00  0.00    +0.112 C 
ATOM     25  C   UNL     1      30.581 -24.876 -13.407  0.00  0.00    +0.027 C 
ENDBRANCH  20  24
BRANCH  23  26
ATOM     26  C   UNL     1      29.418 -22.716 -16.385  0.00  0.00    +0.066 C 
ATOM     27  C   UNL     1      28.700 -24.031 -16.613  0.00  0.00    +0.008 C 
ENDBRANCH  23  26
ENDBRANCH  17  19
ENDBRANCH  16  17
ENDBRANCH  15  16
ENDBRANCH   1  15
TORSDOF 7
ENDMDL
MODEL 9
REMARK VINA RESULT:      -9.7      1.330      1.947
REMARK  Name = 40589
REMARK  7 active torsions:
REMARK  status: ('A' for Active; 'I' for Inactive)
REMARK    1  A    between atoms: N_1  and  C_15
REMARK    2  A    between atoms: N_2  and  C_9
REMARK    3  A    between atoms: C_15  and  C_16
REMARK    4  A    between atoms: C_16  and  C_17
REMARK    5  A    between atoms: C_17  and  N_19
REMARK    6  A    between atoms: N_20  and  C_24
REMARK    7  A    between atoms: C_23  and  C_26
REMARK                            x       y       z     vdW  Elec       q    Type
REMARK                         _______ _______ _______ _____ _____    ______ ____
ROOT
ATOM      1  N   UNL     1      33.961 -16.338 -23.419  0.00  0.00    +0.389 N 
ATOM      2  N   UNL     1      34.862 -18.452 -21.722  0.00  0.00    -0.312 N 
ATOM      3  C   UNL     1      34.695 -17.478 -23.980  0.00  0.00    -0.055 C 
ATOM      4  C   UNL     1      34.448 -16.048 -22.065  0.00  0.00    -0.055 C 
ATOM      5  C   UNL     1      34.508 -18.730 -23.119  0.00  0.00    +0.068 C 
ATOM      6  C   UNL     1      34.254 -17.251 -21.140  0.00  0.00    +0.068 C 
ATOM      7  H   UNL     1      32.971 -16.577 -23.367  0.00  0.00    -0.080 HD
ENDROOT
BRANCH   2   9
ATOM      8 CL   UNL     1      33.256 -22.382 -18.816  0.00  0.00    -0.082 Cl
ATOM      9  C   UNL     1      35.186 -19.535 -20.898  0.00  0.00    +0.049 C 
ATOM     10  C   UNL     1      34.181 -20.338 -20.324  0.00  0.00    +0.026 C 
ATOM     11  C   UNL     1      36.530 -19.854 -20.616  0.00  0.00    +0.015 C 
ATOM     12  C   UNL     1      34.505 -21.417 -19.503  0.00  0.00    +0.059 C 
ATOM     13  C   UNL     1      36.854 -20.933 -19.794  0.00  0.00    +0.002 C 
ATOM     14  C   UNL     1      35.842 -21.715 -19.237  0.00  0.00    +0.011 C 
ENDBRANCH   2   9
BRANCH   1  15
ATOM     15  C   UNL     1      34.103 -15.164 -24.278  0.00  0.00    -0.075 C 
BRANCH  15  16
ATOM     16  C   UNL     1      34.166 -13.865 -23.468  0.00  0.00    +0.004 C 
BRANCH  16  17
ATOM     17  C   UNL     1      33.546 -12.656 -24.166  0.00  0.00    +0.130 C 
BRANCH  17  19
ATOM     18  O   UNL     1      31.841 -13.284 -21.738  0.00  0.00    -0.245 OA
ATOM     19  N   UNL     1      32.850 -11.792 -23.253  0.00  0.00    -0.201 N 
ATOM     20  N   UNL     1      31.635 -10.954 -21.611  0.00  0.00    -0.267 N 
ATOM     21  N   UNL     1      32.880 -10.429 -23.390  0.00  0.00    -0.152 NA
ATOM     22  C   UNL     1      32.073 -12.153 -22.141  0.00  0.00    +0.348 A 
ATOM     23  C   UNL     1      32.151  -9.992 -22.405  0.00  0.00    +0.144 A 
BRANCH  20  24
ATOM     24  C   UNL     1      30.793 -10.797 -20.439  0.00  0.00    +0.112 C 
ATOM     25  C   UNL     1      31.616 -10.830 -19.163  0.00  0.00    +0.027 C 
ENDBRANCH  20  24
BRANCH  23  26
ATOM     26  C   UNL     1      31.895  -8.546 -22.145  0.00  0.00    +0.066 C 
ATOM     27  C   UNL     1      33.203  -7.787 -22.038  0.00  0.00    +0.008 C 
ENDBRANCH  23  26
ENDBRANCH  17  19
ENDBRANCH  16  17
ENDBRANCH  15  16
ENDBRANCH   1  15
TORSDOF 7
ENDMDL
