MODEL 1
REMARK VINA RESULT:      -7.3      0.000      0.000
REMARK  Name = 178052
REMARK  3 active torsions:
REMARK  status: ('A' for Active; 'I' for Inactive)
REMARK    1  A    between atoms: O_1  and  C_3
REMARK    2  A    between atoms: O_1  and  C_9
REMARK    3  A    between atoms: C_9  and  C_11
REMARK                            x       y       z     vdW  Elec       q    Type
REMARK                         _______ _______ _______ _____ _____    ______ ____
ROOT
ATOM      1  O   UNL     1      35.383 -17.982 -22.281  0.00  0.00    -0.476 OA
ENDROOT
BRANCH   1   3
ATOM      2  N   UNL     1      34.025 -17.167 -25.573  0.00  0.00    -0.245 NA
ATOM      3  C   UNL     1      34.847 -17.255 -23.314  0.00  0.00    +0.152 C 
ATOM      4  C   UNL     1      34.554 -17.841 -24.527  0.00  0.00    +0.093 C 
ATOM      5  C   UNL     1      34.592 -15.906 -23.143  0.00  0.00    +0.040 C 
ATOM      6  C   UNL     1      34.816 -19.293 -24.751  0.00  0.00    +0.055 C 
ATOM      7  C   UNL     1      34.049 -15.179 -24.196  0.00  0.00    +0.024 C 
ATOM      8  C   UNL     1      33.787 -15.850 -25.380  0.00  0.00    +0.099 C 
ENDBRANCH   1   3
BRANCH   1   9
ATOM      9  C   UNL     1      34.525 -18.284 -21.194  0.00  0.00    +0.184 C 
BRANCH   9  11
ATOM     10  N   UNL     1      35.407 -20.552 -20.675  0.00  0.00    +0.388 N 
ATOM     11  C   UNL     1      34.260 -19.783 -21.181  0.00  0.00    -0.017 C 
ATOM     12  C   UNL     1      33.069 -20.162 -20.303  0.00  0.00    -0.020 C 
ATOM     13  C   UNL     1      33.485 -21.483 -19.691  0.00  0.00    -0.025 C 
ATOM     14  C   UNL     1      34.972 -21.285 -19.485  0.00  0.00    -0.082 C 
ATOM     15  H   UNL     1      36.168 -19.918 -20.431  0.00  0.00    -0.084 HD
ATOM     16  H   UNL     1      35.741 -21.200 -21.387  0.00  0.00    -0.084 HD
ENDBRANCH   9  11
ENDBRANCH   1   9
TORSDOF 3
ENDMDL
MODEL 2
REMARK VINA RESULT:      -7.3      1.322      5.500
REMARK  Name = 178052
REMARK  3 active torsions:
REMARK  status: ('A' for Active; 'I' for Inactive)
REMARK    1  A    between atoms: O_1  and  C_3
REMARK    2  A    between atoms: O_1  and  C_9
REMARK    3  A    between atoms: C_9  and  C_11
REMARK                            x       y       z     vdW  Elec       q    Type
REMARK                         _______ _______ _______ _____ _____    ______ ____
ROOT
ATOM      1  O   UNL     1      34.395 -18.089 -21.928  0.00  0.00    -0.476 OA
ENDROOT
BRANCH   1   3
ATOM      2  N   UNL     1      34.734 -21.042 -19.804  0.00  0.00    -0.245 NA
ATOM      3  C   UNL     1      34.973 -19.075 -21.169  0.00  0.00    +0.152 C 
ATOM      4  C   UNL     1      34.212 -20.051 -20.561  0.00  0.00    +0.093 C 
ATOM      5  C   UNL     1      36.345 -19.098 -21.004  0.00  0.00    +0.040 C 
ATOM      6  C   UNL     1      32.726 -20.059 -20.713  0.00  0.00    +0.055 C 
ATOM      7  C   UNL     1      36.920 -20.102 -20.232  0.00  0.00    +0.024 C 
ATOM      8  C   UNL     1      36.078 -21.041 -19.658  0.00  0.00    +0.099 C 
ENDBRANCH   1   3
BRANCH   1   9
ATOM      9  C   UNL     1      34.810 -16.757 -21.675  0.00  0.00    +0.184 C 
BRANCH   9  11
ATOM     10  N   UNL     1      35.457 -16.944 -24.070  0.00  0.00    +0.388 N 
ATOM     11  C   UNL     1      34.995 -16.041 -23.005  0.00  0.00    -0.017 C 
ATOM     12  C   UNL     1      33.704 -15.402 -23.515  0.00  0.00    -0.020 C 
ATOM     13  C   UNL     1      33.784 -15.588 -25.015  0.00  0.00    -0.025 C 
ATOM     14  C   UNL     1      34.451 -16.942 -25.134  0.00  0.00    -0.082 C 
ATOM     15  H   UNL     1      35.567 -17.887 -23.700  0.00  0.00    -0.084 HD
ATOM     16  H   UNL     1      36.357 -16.632 -24.434  0.00  0.00    -0.084 HD
ENDBRANCH   9  11
ENDBRANCH   1   9
TORSDOF 3
ENDMDL
MODEL 3
REMARK VINA RESULT:      -7.2      1.553      5.675
REMARK  Name = 178052
REMARK  3 active torsions:
REMARK  status: ('A' for Active; 'I' for Inactive)
REMARK    1  A    between atoms: O_1  and  C_3
REMARK    2  A    between atoms: O_1  and  C_9
REMARK    3  A    between atoms: C_9  and  C_11
REMARK                            x       y       z     vdW  Elec       q    Type
REMARK                         _______ _______ _______ _____ _____    ______ ____
ROOT
ATOM      1  O   UNL     1      35.730 -19.218 -21.491  0.00  0.00    -0.476 OA
ENDROOT
BRANCH   1   3
ATOM      2  N   UNL     1      34.746 -21.851 -19.159  0.00  0.00    -0.245 NA
ATOM      3  C   UNL     1      34.939 -20.038 -20.728  0.00  0.00    +0.152 C 
ATOM      4  C   UNL     1      35.484 -21.019 -19.928  0.00  0.00    +0.093 C 
ATOM      5  C   UNL     1      33.564 -19.885 -20.756  0.00  0.00    +0.040 C 
ATOM      6  C   UNL     1      36.963 -21.218 -19.872  0.00  0.00    +0.055 C 
ATOM      7  C   UNL     1      32.772 -20.722 -19.979  0.00  0.00    +0.024 C 
ATOM      8  C   UNL     1      33.405 -21.681 -19.205  0.00  0.00    +0.099 C 
ENDBRANCH   1   3
BRANCH   1   9
ATOM      9  C   UNL     1      35.094 -18.499 -22.534  0.00  0.00    +0.184 C 
BRANCH   9  11
ATOM     10  N   UNL     1      35.361 -16.314 -23.693  0.00  0.00    +0.388 N 
ATOM     11  C   UNL     1      35.463 -17.027 -22.411  0.00  0.00    -0.017 C 
ATOM     12  C   UNL     1      34.566 -16.276 -21.429  0.00  0.00    -0.020 C 
ATOM     13  C   UNL     1      34.414 -14.909 -22.062  0.00  0.00    -0.025 C 
ATOM     14  C   UNL     1      34.374 -15.243 -23.538  0.00  0.00    -0.082 C 
ATOM     15  H   UNL     1      35.061 -16.957 -24.424  0.00  0.00    -0.084 HD
ATOM     16  H   UNL     1      36.266 -15.925 -23.956  0.00  0.00    -0.084 HD
ENDBRANCH   9  11
ENDBRANCH   1   9
TORSDOF 3
ENDMDL
MODEL 4
REMARK VINA RESULT:      -7.1      2.408      3.529
REMARK  Name = 178052
REMARK  3 active torsions:
REMARK  status: ('A' for Active; 'I' for Inactive)
REMARK    1  A    between atoms: O_1  and  C_3
REMARK    2  A    between atoms: O_1  and  C_9
REMARK    3  A    between atoms: C_9  and  C_11
REMARK                            x       y       z     vdW  Elec       q    Type
REMARK                         _______ _______ _______ _____ _____    ______ ____
ROOT
ATOM      1  O   UNL     1      35.324 -16.001 -23.224  0.00  0.00    -0.476 OA
ENDROOT
BRANCH   1   3
ATOM      2  N   UNL     1      32.960 -14.003 -21.285  0.00  0.00    -0.245 NA
ATOM      3  C   UNL     1      34.329 -15.104 -22.928  0.00  0.00    +0.152 C 
ATOM      4  C   UNL     1      33.934 -14.876 -21.627  0.00  0.00    +0.093 C 
ATOM      5  C   UNL     1      33.705 -14.410 -23.948  0.00  0.00    +0.040 C 
ATOM      6  C   UNL     1      34.582 -15.607 -20.498  0.00  0.00    +0.055 C 
ATOM      7  C   UNL     1      32.698 -13.504 -23.636  0.00  0.00    +0.024 C 
ATOM      8  C   UNL     1      32.365 -13.339 -22.301  0.00  0.00    +0.099 C 
ENDBRANCH   1   3
BRANCH   1   9
ATOM      9  C   UNL     1      34.994 -17.057 -24.112  0.00  0.00    +0.184 C 
BRANCH   9  11
ATOM     10  N   UNL     1      36.613 -18.214 -22.620  0.00  0.00    +0.388 N 
ATOM     11  C   UNL     1      35.442 -18.374 -23.495  0.00  0.00    -0.017 C 
ATOM     12  C   UNL     1      34.354 -19.025 -22.643  0.00  0.00    -0.020 C 
ATOM     13  C   UNL     1      35.127 -19.653 -21.502  0.00  0.00    -0.025 C 
ATOM     14  C   UNL     1      36.234 -18.647 -21.273  0.00  0.00    -0.082 C 
ATOM     15  H   UNL     1      36.900 -17.236 -22.601  0.00  0.00    -0.084 HD
ATOM     16  H   UNL     1      37.393 -18.774 -22.964  0.00  0.00    -0.084 HD
ENDBRANCH   9  11
ENDBRANCH   1   9
TORSDOF 3
ENDMDL
MODEL 5
REMARK VINA RESULT:      -7.1      1.651      2.495
REMARK  Name = 178052
REMARK  3 active torsions:
REMARK  status: ('A' for Active; 'I' for Inactive)
REMARK    1  A    between atoms: O_1  and  C_3
REMARK    2  A    between atoms: O_1  and  C_9
REMARK    3  A    between atoms: C_9  and  C_11
REMARK                            x       y       z     vdW  Elec       q    Type
REMARK                         _______ _______ _______ _____ _____    ______ ____
ROOT
ATOM      1  O   UNL     1      35.117 -18.522 -20.804  0.00  0.00    -0.476 OA
ENDROOT
BRANCH   1   3
ATOM      2  N   UNL     1      34.649 -15.683 -23.054  0.00  0.00    -0.245 NA
ATOM      3  C   UNL     1      34.996 -17.799 -21.963  0.00  0.00    +0.152 C 
ATOM      4  C   UNL     1      34.775 -16.438 -21.940  0.00  0.00    +0.093 C 
ATOM      5  C   UNL     1      35.095 -18.439 -23.185  0.00  0.00    +0.040 C 
ATOM      6  C   UNL     1      34.659 -15.711 -20.641  0.00  0.00    +0.055 C 
ATOM      7  C   UNL     1      34.971 -17.696 -24.354  0.00  0.00    +0.024 C 
ATOM      8  C   UNL     1      34.750 -16.333 -24.235  0.00  0.00    +0.099 C 
ENDBRANCH   1   3
BRANCH   1   9
ATOM      9  C   UNL     1      36.273 -19.333 -20.669  0.00  0.00    +0.184 C 
BRANCH   9  11
ATOM     10  N   UNL     1      36.664 -21.467 -19.453  0.00  0.00    +0.388 N 
ATOM     11  C   UNL     1      35.838 -20.775 -20.454  0.00  0.00    -0.017 C 
ATOM     12  C   UNL     1      34.393 -20.888 -19.971  0.00  0.00    -0.020 C 
ATOM     13  C   UNL     1      34.431 -22.058 -19.010  0.00  0.00    -0.025 C 
ATOM     14  C   UNL     1      35.788 -21.892 -18.359  0.00  0.00    -0.082 C 
ATOM     15  H   UNL     1      37.379 -20.833 -19.096  0.00  0.00    -0.084 HD
ATOM     16  H   UNL     1      37.126 -22.274 -19.870  0.00  0.00    -0.084 HD
ENDBRANCH   9  11
ENDBRANCH   1   9
TORSDOF 3
ENDMDL
MODEL 6
REMARK VINA RESULT:      -7.0      2.201      5.840
REMARK  Name = 178052
REMARK  3 active torsions:
REMARK  status: ('A' for Active; 'I' for Inactive)
REMARK    1  A    between atoms: O_1  and  C_3
REMARK    2  A    between atoms: O_1  and  C_9
REMARK    3  A    between atoms: C_9  and  C_11
REMARK                            x       y       z     vdW  Elec       q    Type
REMARK                         _______ _______ _______ _____ _____    ______ ____
ROOT
ATOM      1  O   UNL     1      35.260 -19.262 -21.705  0.00  0.00    -0.476 OA
ENDROOT
BRANCH   1   3
ATOM      2  N   UNL     1      33.924 -21.554 -19.195  0.00  0.00    -0.245 NA
ATOM      3  C   UNL     1      35.217 -20.181 -20.688  0.00  0.00    +0.152 C 
ATOM      4  C   UNL     1      34.018 -20.650 -20.196  0.00  0.00    +0.093 C 
ATOM      5  C   UNL     1      36.396 -20.651 -20.138  0.00  0.00    +0.040 C 
ATOM      6  C   UNL     1      32.724 -20.165 -20.761  0.00  0.00    +0.055 C 
ATOM      7  C   UNL     1      36.340 -21.582 -19.107  0.00  0.00    +0.024 C 
ATOM      8  C   UNL     1      35.091 -21.997 -18.675  0.00  0.00    +0.099 C 
ENDBRANCH   1   3
BRANCH   1   9
ATOM      9  C   UNL     1      35.669 -17.947 -21.367  0.00  0.00    +0.184 C 
BRANCH   9  11
ATOM     10  N   UNL     1      34.228 -16.028 -20.713  0.00  0.00    +0.388 N 
ATOM     11  C   UNL     1      34.578 -16.971 -21.785  0.00  0.00    -0.017 C 
ATOM     12  C   UNL     1      34.978 -16.122 -22.991  0.00  0.00    -0.020 C 
ATOM     13  C   UNL     1      34.350 -14.776 -22.700  0.00  0.00    -0.025 C 
ATOM     14  C   UNL     1      34.497 -14.672 -21.196  0.00  0.00    -0.082 C 
ATOM     15  H   UNL     1      34.793 -16.218 -19.886  0.00  0.00    -0.084 HD
ATOM     16  H   UNL     1      33.244 -16.125 -20.462  0.00  0.00    -0.084 HD
ENDBRANCH   9  11
ENDBRANCH   1   9
TORSDOF 3
ENDMDL
MODEL 7
REMARK VINA RESULT:      -7.0      4.169      6.156
REMARK  Name = 178052
REMARK  3 active torsions:
REMARK  status: ('A' for Active; 'I' for Inactive)
REMARK    1  A    between atoms: O_1  and  C_3
REMARK    2  A    between atoms: O_1  and  C_9
REMARK    3  A    between atoms: C_9  and  C_11
REMARK                            x       y       z     vdW  Elec       q    Type
REMARK                         _______ _______ _______ _____ _____    ______ ____
ROOT
ATOM      1  O   UNL     1      33.051 -22.304 -19.069  0.00  0.00    -0.476 OA
ENDROOT
BRANCH   1   3
ATOM      2  N   UNL     1      35.113 -19.716 -20.615  0.00  0.00    -0.245 NA
ATOM      3  C   UNL     1      34.160 -21.592 -19.449  0.00  0.00    +0.152 C 
ATOM      4  C   UNL     1      34.051 -20.451 -20.216  0.00  0.00    +0.093 C 
ATOM      5  C   UNL     1      35.417 -22.020 -19.061  0.00  0.00    +0.040 C 
ATOM      6  C   UNL     1      32.713 -19.958 -20.657  0.00  0.00    +0.055 C 
ATOM      7  C   UNL     1      36.534 -21.290 -19.453  0.00  0.00    +0.024 C 
ATOM      8  C   UNL     1      36.330 -20.156 -20.223  0.00  0.00    +0.099 C 
ENDBRANCH   1   3
BRANCH   1   9
ATOM      9  C   UNL     1      33.203 -23.196 -17.976  0.00  0.00    +0.184 C 
BRANCH   9  11
ATOM     10  N   UNL     1      30.956 -22.724 -17.019  0.00  0.00    +0.388 N 
ATOM     11  C   UNL     1      32.408 -22.661 -16.794  0.00  0.00    -0.017 C 
ATOM     12  C   UNL     1      32.676 -23.437 -15.505  0.00  0.00    -0.020 C 
ATOM     13  C   UNL     1      31.328 -23.455 -14.816  0.00  0.00    -0.025 C 
ATOM     14  C   UNL     1      30.373 -23.580 -15.985  0.00  0.00    -0.082 C 
ATOM     15  H   UNL     1      30.766 -23.117 -17.941  0.00  0.00    -0.084 HD
ATOM     16  H   UNL     1      30.549 -21.790 -16.976  0.00  0.00    -0.084 HD
ENDBRANCH   9  11
ENDBRANCH   1   9
TORSDOF 3
ENDMDL
MODEL 8
REMARK VINA RESULT:      -7.0      1.353      2.227
REMARK  Name = 178052
REMARK  3 active torsions:
REMARK  status: ('A' for Active; 'I' for Inactive)
REMARK    1  A    between atoms: O_1  and  C_3
REMARK    2  A    between atoms: O_1  and  C_9
REMARK    3  A    between atoms: C_9  and  C_11
REMARK                            x       y       z     vdW  Elec       q    Type
REMARK                         _______ _______ _______ _____ _____    ______ ____
ROOT
ATOM      1  O   UNL     1      35.579 -18.024 -22.738  0.00  0.00    -0.476 OA
ENDROOT
BRANCH   1   3
ATOM      2  N   UNL     1      33.740 -14.914 -23.273  0.00  0.00    -0.245 NA
ATOM      3  C   UNL     1      34.895 -17.021 -23.378  0.00  0.00    +0.152 C 
ATOM      4  C   UNL     1      34.418 -15.926 -22.689  0.00  0.00    +0.093 C 
ATOM      5  C   UNL     1      34.675 -17.102 -24.740  0.00  0.00    +0.040 C 
ATOM      6  C   UNL     1      34.634 -15.803 -21.216  0.00  0.00    +0.055 C 
ATOM      7  C   UNL     1      33.980 -16.079 -25.378  0.00  0.00    +0.024 C 
ATOM      8  C   UNL     1      33.537 -15.017 -24.606  0.00  0.00    +0.099 C 
ENDBRANCH   1   3
BRANCH   1   9
ATOM      9  C   UNL     1      34.887 -19.245 -22.535  0.00  0.00    +0.184 C 
BRANCH   9  11
ATOM     10  N   UNL     1      33.383 -19.815 -20.637  0.00  0.00    +0.388 N 
ATOM     11  C   UNL     1      34.761 -19.493 -21.039  0.00  0.00    -0.017 C 
ATOM     12  C   UNL     1      35.630 -20.654 -20.559  0.00  0.00    -0.020 C 
ATOM     13  C   UNL     1      34.787 -21.307 -19.483  0.00  0.00    -0.025 C 
ATOM     14  C   UNL     1      33.386 -21.149 -20.036  0.00  0.00    -0.082 C 
ATOM     15  H   UNL     1      32.773 -19.805 -21.454  0.00  0.00    -0.084 HD
ATOM     16  H   UNL     1      33.038 -19.126 -19.968  0.00  0.00    -0.084 HD
ENDBRANCH   9  11
ENDBRANCH   1   9
TORSDOF 3
ENDMDL
MODEL 9
REMARK VINA RESULT:      -6.9      4.446      8.830
REMARK  Name = 178052
REMARK  3 active torsions:
REMARK  status: ('A' for Active; 'I' for Inactive)
REMARK    1  A    between atoms: O_1  and  C_3
REMARK    2  A    between atoms: O_1  and  C_9
REMARK    3  A    between atoms: C_9  and  C_11
REMARK                            x       y       z     vdW  Elec       q    Type
REMARK                         _______ _______ _______ _____ _____    ______ ____
ROOT
ATOM      1  O   UNL     1      35.065 -22.775 -17.393  0.00  0.00    -0.476 OA
ENDROOT
BRANCH   1   3
ATOM      2  N   UNL     1      36.278 -23.454 -14.015  0.00  0.00    -0.245 NA
ATOM      3  C   UNL     1      35.070 -23.146 -16.072  0.00  0.00    +0.152 C 
ATOM      4  C   UNL     1      36.223 -23.099 -15.318  0.00  0.00    +0.093 C 
ATOM      5  C   UNL     1      33.899 -23.579 -15.477  0.00  0.00    +0.040 C 
ATOM      6  C   UNL     1      37.508 -22.640 -15.925  0.00  0.00    +0.055 C 
ATOM      7  C   UNL     1      33.916 -23.954 -14.138  0.00  0.00    +0.024 C 
ATOM      8  C   UNL     1      35.120 -23.874 -13.458  0.00  0.00    +0.099 C 
ENDBRANCH   1   3
BRANCH   1   9
ATOM      9  C   UNL     1      33.814 -22.793 -18.061  0.00  0.00    +0.184 C 
BRANCH   9  11
ATOM     10  N   UNL     1      32.805 -21.605 -20.000  0.00  0.00    +0.388 N 
ATOM     11  C   UNL     1      34.008 -22.271 -19.478  0.00  0.00    -0.017 C 
ATOM     12  C   UNL     1      35.142 -21.252 -19.579  0.00  0.00    -0.020 C 
ATOM     13  C   UNL     1      34.638 -20.263 -20.609  0.00  0.00    -0.025 C 
ATOM     14  C   UNL     1      33.154 -20.218 -20.309  0.00  0.00    -0.082 C 
ATOM     15  H   UNL     1      32.065 -21.628 -19.299  0.00  0.00    -0.084 HD
ATOM     16  H   UNL     1      32.472 -22.081 -20.838  0.00  0.00    -0.084 HD
ENDBRANCH   9  11
ENDBRANCH   1   9
TORSDOF 3
ENDMDL
