MODEL 1
REMARK VINA RESULT:      -5.1      0.000      0.000
REMARK  Name = 49866644
REMARK  5 active torsions:
REMARK  status: ('A' for Active; 'I' for Inactive)
REMARK    1  A    between atoms: CA_1  and  N_2
REMARK    2  A    between atoms: CA_1  and  C_7
REMARK    3  A    between atoms: CA_1  and  C_10
REMARK    4  A    between atoms: C_7  and  O_8
REMARK    5  A    between atoms: C_10  and  C_12
REMARK                            x       y       z     vdW  Elec       q    Type
REMARK                         _______ _______ _______ _____ _____    ______ ____
ROOT
ATOM      1  CA  UNL     1      38.719 -25.654 -14.451  0.00  0.00    +0.044 C 
ENDROOT
BRANCH   1   2
ATOM      2  N   UNL     1      37.890 -24.637 -15.106  0.00  0.00    +0.389 N 
ATOM      3  H1  UNL     1      38.267 -24.435 -16.031  0.00  0.00    -0.088 HD
ATOM      4  H2  UNL     1      37.889 -23.786 -14.545  0.00  0.00    -0.088 HD
ATOM      5  H3  UNL     1      36.935 -24.984 -15.197  0.00  0.00    -0.088 HD
ENDBRANCH   1   2
BRANCH   1   7
ATOM      6  OXT UNL     1      40.966 -24.713 -14.258  0.00  0.00    -0.253 OA
ATOM      7  C   UNL     1      40.153 -25.383 -14.881  0.00  0.00    +0.293 C 
BRANCH   7   8
ATOM      8  O   UNL     1      40.445 -25.962 -16.075  0.00  0.00    -0.482 OA
ATOM      9  H   UNL     1      40.539 -25.432 -16.841  0.00  0.00    +0.295 HD
ENDBRANCH   7   8
ENDBRANCH   1   7
BRANCH   1  10
ATOM     10  C   UNL     1      38.580 -25.542 -12.931  0.00  0.00    +0.061 C 
BRANCH  10  12
ATOM     11  O   UNL     1      38.708 -23.432 -11.724  0.00  0.00    -0.288 OA
ATOM     12  C   UNL     1      38.088 -24.190 -12.462  0.00  0.00    +0.206 C 
ENDBRANCH  10  12
ENDBRANCH   1  10
TORSDOF 5
ENDMDL
MODEL 2
REMARK VINA RESULT:      -4.8      2.206      3.425
REMARK  Name = 49866644
REMARK  5 active torsions:
REMARK  status: ('A' for Active; 'I' for Inactive)
REMARK    1  A    between atoms: CA_1  and  N_2
REMARK    2  A    between atoms: CA_1  and  C_7
REMARK    3  A    between atoms: CA_1  and  C_10
REMARK    4  A    between atoms: C_7  and  O_8
REMARK    5  A    between atoms: C_10  and  C_12
REMARK                            x       y       z     vdW  Elec       q    Type
REMARK                         _______ _______ _______ _____ _____    ______ ____
ROOT
ATOM      1  CA  UNL     1      37.932 -25.223 -14.194  0.00  0.00    +0.044 C 
ENDROOT
BRANCH   1   2
ATOM      2  N   UNL     1      38.039 -24.415 -15.413  0.00  0.00    +0.389 N 
ATOM      3  H1  UNL     1      38.968 -24.530 -15.817  0.00  0.00    -0.088 HD
ATOM      4  H2  UNL     1      37.887 -23.432 -15.184  0.00  0.00    -0.088 HD
ATOM      5  H3  UNL     1      37.336 -24.718 -16.086  0.00  0.00    -0.088 HD
ENDBRANCH   1   2
BRANCH   1   7
ATOM      6  OXT UNL     1      37.069 -26.911 -15.736  0.00  0.00    -0.253 OA
ATOM      7  C   UNL     1      37.220 -26.507 -14.590  0.00  0.00    +0.293 C 
BRANCH   7   8
ATOM      8  O   UNL     1      36.734 -27.175 -13.510  0.00  0.00    -0.482 OA
ATOM      9  H   UNL     1      37.006 -28.055 -13.343  0.00  0.00    +0.295 HD
ENDBRANCH   7   8
ENDBRANCH   1   7
BRANCH   1  10
ATOM     10  C   UNL     1      39.326 -25.525 -13.642  0.00  0.00    +0.061 C 
BRANCH  10  12
ATOM     11  O   UNL     1      40.575 -26.096 -15.652  0.00  0.00    -0.288 OA
ATOM     12  C   UNL     1      40.431 -25.381 -14.666  0.00  0.00    +0.206 C 
ENDBRANCH  10  12
ENDBRANCH   1  10
TORSDOF 5
ENDMDL
MODEL 3
REMARK VINA RESULT:      -4.8      2.184      2.645
REMARK  Name = 49866644
REMARK  5 active torsions:
REMARK  status: ('A' for Active; 'I' for Inactive)
REMARK    1  A    between atoms: CA_1  and  N_2
REMARK    2  A    between atoms: CA_1  and  C_7
REMARK    3  A    between atoms: CA_1  and  C_10
REMARK    4  A    between atoms: C_7  and  O_8
REMARK    5  A    between atoms: C_10  and  C_12
REMARK                            x       y       z     vdW  Elec       q    Type
REMARK                         _______ _______ _______ _____ _____    ______ ____
ROOT
ATOM      1  CA  UNL     1      37.158 -26.332 -13.527  0.00  0.00    +0.044 C 
ENDROOT
BRANCH   1   2
ATOM      2  N   UNL     1      35.998 -25.475 -13.269  0.00  0.00    +0.389 N 
ATOM      3  H1  UNL     1      36.234 -24.507 -13.484  0.00  0.00    -0.088 HD
ATOM      4  H2  UNL     1      35.732 -25.550 -12.287  0.00  0.00    -0.088 HD
ATOM      5  H3  UNL     1      35.218 -25.772 -13.854  0.00  0.00    -0.088 HD
ENDBRANCH   1   2
BRANCH   1   7
ATOM      6  OXT UNL     1      36.350 -26.881 -15.767  0.00  0.00    -0.253 OA
ATOM      7  C   UNL     1      37.251 -26.488 -15.037  0.00  0.00    +0.293 C 
BRANCH   7   8
ATOM      8  O   UNL     1      38.481 -26.156 -15.510  0.00  0.00    -0.482 OA
ATOM      9  H   UNL     1      39.240 -26.293 -14.978  0.00  0.00    +0.295 HD
ENDBRANCH   7   8
ENDBRANCH   1   7
BRANCH   1  10
ATOM     10  C   UNL     1      38.426 -25.679 -12.972  0.00  0.00    +0.061 C 
BRANCH  10  12
ATOM     11  O   UNL     1      37.675 -24.318 -11.099  0.00  0.00    -0.288 OA
ATOM     12  C   UNL     1      38.167 -24.392 -12.219  0.00  0.00    +0.206 C 
ENDBRANCH  10  12
ENDBRANCH   1  10
TORSDOF 5
ENDMDL
MODEL 4
REMARK VINA RESULT:      -4.8      2.497      3.398
REMARK  Name = 49866644
REMARK  5 active torsions:
REMARK  status: ('A' for Active; 'I' for Inactive)
REMARK    1  A    between atoms: CA_1  and  N_2
REMARK    2  A    between atoms: CA_1  and  C_7
REMARK    3  A    between atoms: CA_1  and  C_10
REMARK    4  A    between atoms: C_7  and  O_8
REMARK    5  A    between atoms: C_10  and  C_12
REMARK                            x       y       z     vdW  Elec       q    Type
REMARK                         _______ _______ _______ _____ _____    ______ ____
ROOT
ATOM      1  CA  UNL     1      37.791 -26.474 -14.005  0.00  0.00    +0.044 C 
ENDROOT
BRANCH   1   2
ATOM      2  N   UNL     1      36.865 -26.372 -12.873  0.00  0.00    +0.389 N 
ATOM      3  H1  UNL     1      36.079 -25.774 -13.128  0.00  0.00    -0.088 HD
ATOM      4  H2  UNL     1      37.351 -25.970 -12.071  0.00  0.00    -0.088 HD
ATOM      5  H3  UNL     1      36.520 -27.300 -12.630  0.00  0.00    -0.088 HD
ENDBRANCH   1   2
BRANCH   1   7
ATOM      6  OXT UNL     1      36.460 -25.042 -15.470  0.00  0.00    -0.253 OA
ATOM      7  C   UNL     1      36.991 -26.123 -15.249  0.00  0.00    +0.293 C 
BRANCH   7   8
ATOM      8  O   UNL     1      36.904 -27.169 -16.112  0.00  0.00    -0.482 OA
ATOM      9  H   UNL     1      37.351 -27.137 -16.934  0.00  0.00    +0.295 HD
ENDBRANCH   7   8
ENDBRANCH   1   7
BRANCH   1  10
ATOM     10  C   UNL     1      38.956 -25.499 -13.817  0.00  0.00    +0.061 C 
BRANCH  10  12
ATOM     11  O   UNL     1      41.085 -26.561 -14.332  0.00  0.00    -0.288 OA
ATOM     12  C   UNL     1      40.164 -25.824 -14.668  0.00  0.00    +0.206 C 
ENDBRANCH  10  12
ENDBRANCH   1  10
TORSDOF 5
ENDMDL
MODEL 5
REMARK VINA RESULT:      -4.6      2.032      4.023
REMARK  Name = 49866644
REMARK  5 active torsions:
REMARK  status: ('A' for Active; 'I' for Inactive)
REMARK    1  A    between atoms: CA_1  and  N_2
REMARK    2  A    between atoms: CA_1  and  C_7
REMARK    3  A    between atoms: CA_1  and  C_10
REMARK    4  A    between atoms: C_7  and  O_8
REMARK    5  A    between atoms: C_10  and  C_12
REMARK                            x       y       z     vdW  Elec       q    Type
REMARK                         _______ _______ _______ _____ _____    ______ ____
ROOT
ATOM      1  CA  UNL     1      37.427 -24.539 -12.963  0.00  0.00    +0.044 C 
ENDROOT
BRANCH   1   2
ATOM      2  N   UNL     1      36.411 -25.588 -12.833  0.00  0.00    +0.389 N 
ATOM      3  H1  UNL     1      36.569 -26.111 -11.972  0.00  0.00    -0.088 HD
ATOM      4  H2  UNL     1      36.471 -26.220 -13.631  0.00  0.00    -0.088 HD
ATOM      5  H3  UNL     1      35.484 -25.162 -12.807  0.00  0.00    -0.088 HD
ENDBRANCH   1   2
BRANCH   1   7
ATOM      6  OXT UNL     1      36.759 -24.060 -10.662  0.00  0.00    -0.253 OA
ATOM      7  C   UNL     1      37.465 -23.808 -11.630  0.00  0.00    +0.293 C 
BRANCH   7   8
ATOM      8  O   UNL     1      38.376 -22.800 -11.626  0.00  0.00    -0.482 OA
ATOM      9  H   UNL     1      39.291 -22.997 -11.588  0.00  0.00    +0.295 HD
ENDBRANCH   7   8
ENDBRANCH   1   7
BRANCH   1  10
ATOM     10  C   UNL     1      38.788 -25.165 -13.276  0.00  0.00    +0.061 C 
BRANCH  10  12
ATOM     11  O   UNL     1      38.312 -27.101 -14.672  0.00  0.00    -0.288 OA
ATOM     12  C   UNL     1      38.803 -25.984 -14.548  0.00  0.00    +0.206 C 
ENDBRANCH  10  12
ENDBRANCH   1  10
TORSDOF 5
ENDMDL
MODEL 6
REMARK VINA RESULT:      -4.6     10.399     11.107
REMARK  Name = 49866644
REMARK  5 active torsions:
REMARK  status: ('A' for Active; 'I' for Inactive)
REMARK    1  A    between atoms: CA_1  and  N_2
REMARK    2  A    between atoms: CA_1  and  C_7
REMARK    3  A    between atoms: CA_1  and  C_10
REMARK    4  A    between atoms: C_7  and  O_8
REMARK    5  A    between atoms: C_10  and  C_12
REMARK                            x       y       z     vdW  Elec       q    Type
REMARK                         _______ _______ _______ _____ _____    ______ ____
ROOT
ATOM      1  CA  UNL     1      41.908 -14.337 -16.196  0.00  0.00    +0.044 C 
ENDROOT
BRANCH   1   2
ATOM      2  N   UNL     1      42.083 -12.908 -15.917  0.00  0.00    +0.389 N 
ATOM      3  H1  UNL     1      41.614 -12.360 -16.637  0.00  0.00    -0.088 HD
ATOM      4  H2  UNL     1      43.078 -12.683 -15.912  0.00  0.00    -0.088 HD
ATOM      5  H3  UNL     1      41.681 -12.688 -15.006  0.00  0.00    -0.088 HD
ENDBRANCH   1   2
BRANCH   1   7
ATOM      6  OXT UNL     1      40.688 -14.324 -14.079  0.00  0.00    -0.253 OA
ATOM      7  C   UNL     1      40.942 -14.866 -15.147  0.00  0.00    +0.293 C 
BRANCH   7   8
ATOM      8  O   UNL     1      40.386 -16.050 -15.516  0.00  0.00    -0.482 OA
ATOM      9  H   UNL     1      40.458 -16.796 -14.955  0.00  0.00    +0.295 HD
ENDBRANCH   7   8
ENDBRANCH   1   7
BRANCH   1  10
ATOM     10  C   UNL     1      41.337 -14.529 -17.603  0.00  0.00    +0.061 C 
BRANCH  10  12
ATOM     11  O   UNL     1      42.051 -16.794 -18.135  0.00  0.00    -0.288 OA
ATOM     12  C   UNL     1      42.044 -15.598 -18.406  0.00  0.00    +0.206 C 
ENDBRANCH  10  12
ENDBRANCH   1  10
TORSDOF 5
ENDMDL
MODEL 7
REMARK VINA RESULT:      -4.6      9.628     10.261
REMARK  Name = 49866644
REMARK  5 active torsions:
REMARK  status: ('A' for Active; 'I' for Inactive)
REMARK    1  A    between atoms: CA_1  and  N_2
REMARK    2  A    between atoms: CA_1  and  C_7
REMARK    3  A    between atoms: CA_1  and  C_10
REMARK    4  A    between atoms: C_7  and  O_8
REMARK    5  A    between atoms: C_10  and  C_12
REMARK                            x       y       z     vdW  Elec       q    Type
REMARK                         _______ _______ _______ _____ _____    ______ ____
ROOT
ATOM      1  CA  UNL     1      29.614 -24.074 -15.846  0.00  0.00    +0.044 C 
ENDROOT
BRANCH   1   2
ATOM      2  N   UNL     1      28.883 -24.957 -14.931  0.00  0.00    +0.389 N 
ATOM      3  H1  UNL     1      27.886 -24.910 -15.137  0.00  0.00    -0.088 HD
ATOM      4  H2  UNL     1      29.047 -24.659 -13.969  0.00  0.00    -0.088 HD
ATOM      5  H3  UNL     1      29.210 -25.915 -15.050  0.00  0.00    -0.088 HD
ENDBRANCH   1   2
BRANCH   1   7
ATOM      6  OXT UNL     1      27.759 -24.225 -17.429  0.00  0.00    -0.253 OA
ATOM      7  C   UNL     1      28.594 -23.548 -16.844  0.00  0.00    +0.293 C 
BRANCH   7   8
ATOM      8  O   UNL     1      28.718 -22.209 -17.042  0.00  0.00    -0.482 OA
ATOM      9  H   UNL     1      28.078 -21.750 -17.549  0.00  0.00    +0.295 HD
ENDBRANCH   7   8
ENDBRANCH   1   7
BRANCH   1  10
ATOM     10  C   UNL     1      30.252 -22.923 -15.066  0.00  0.00    +0.061 C 
BRANCH  10  12
ATOM     11  O   UNL     1      30.798 -23.821 -12.870  0.00  0.00    -0.288 OA
ATOM     12  C   UNL     1      31.169 -23.378 -13.952  0.00  0.00    +0.206 C 
ENDBRANCH  10  12
ENDBRANCH   1  10
TORSDOF 5
ENDMDL
MODEL 8
REMARK VINA RESULT:      -4.6     10.103     10.719
REMARK  Name = 49866644
REMARK  5 active torsions:
REMARK  status: ('A' for Active; 'I' for Inactive)
REMARK    1  A    between atoms: CA_1  and  N_2
REMARK    2  A    between atoms: CA_1  and  C_7
REMARK    3  A    between atoms: CA_1  and  C_10
REMARK    4  A    between atoms: C_7  and  O_8
REMARK    5  A    between atoms: C_10  and  C_12
REMARK                            x       y       z     vdW  Elec       q    Type
REMARK                         _______ _______ _______ _____ _____    ______ ____
ROOT
ATOM      1  CA  UNL     1      29.209 -23.132 -16.064  0.00  0.00    +0.044 C 
ENDROOT
BRANCH   1   2
ATOM      2  N   UNL     1      30.428 -22.738 -16.777  0.00  0.00    +0.389 N 
ATOM      3  H1  UNL     1      31.015 -22.174 -16.163  0.00  0.00    -0.088 HD
ATOM      4  H2  UNL     1      30.178 -22.193 -17.603  0.00  0.00    -0.088 HD
ATOM      5  H3  UNL     1      30.939 -23.572 -17.064  0.00  0.00    -0.088 HD
ENDBRANCH   1   2
BRANCH   1   7
ATOM      6  OXT UNL     1      27.541 -21.625 -17.022  0.00  0.00    -0.253 OA
ATOM      7  C   UNL     1      28.042 -22.740 -16.957  0.00  0.00    +0.293 C 
BRANCH   7   8
ATOM      8  O   UNL     1      27.582 -23.791 -17.686  0.00  0.00    -0.482 OA
ATOM      9  H   UNL     1      27.099 -24.476 -17.267  0.00  0.00    +0.295 HD
ENDBRANCH   7   8
ENDBRANCH   1   7
BRANCH   1  10
ATOM     10  C   UNL     1      29.216 -24.641 -15.812  0.00  0.00    +0.061 C 
BRANCH  10  12
ATOM     11  O   UNL     1      31.331 -24.670 -14.609  0.00  0.00    -0.288 OA
ATOM     12  C   UNL     1      30.180 -25.073 -14.728  0.00  0.00    +0.206 C 
ENDBRANCH  10  12
ENDBRANCH   1  10
TORSDOF 5
ENDMDL
MODEL 9
REMARK VINA RESULT:      -4.6      2.344      4.349
REMARK  Name = 49866644
REMARK  5 active torsions:
REMARK  status: ('A' for Active; 'I' for Inactive)
REMARK    1  A    between atoms: CA_1  and  N_2
REMARK    2  A    between atoms: CA_1  and  C_7
REMARK    3  A    between atoms: CA_1  and  C_10
REMARK    4  A    between atoms: C_7  and  O_8
REMARK    5  A    between atoms: C_10  and  C_12
REMARK                            x       y       z     vdW  Elec       q    Type
REMARK                         _______ _______ _______ _____ _____    ______ ____
ROOT
ATOM      1  CA  UNL     1      36.837 -24.758 -12.920  0.00  0.00    +0.044 C 
ENDROOT
BRANCH   1   2
ATOM      2  N   UNL     1      36.023 -25.626 -13.777  0.00  0.00    +0.389 N 
ATOM      3  H1  UNL     1      35.065 -25.275 -13.805  0.00  0.00    -0.088 HD
ATOM      4  H2  UNL     1      36.026 -26.574 -13.402  0.00  0.00    -0.088 HD
ATOM      5  H3  UNL     1      36.410 -25.633 -14.720  0.00  0.00    -0.088 HD
ENDBRANCH   1   2
BRANCH   1   7
ATOM      6  OXT UNL     1      36.550 -24.209 -10.556  0.00  0.00    -0.253 OA
ATOM      7  C   UNL     1      36.075 -24.606 -11.612  0.00  0.00    +0.293 C 
BRANCH   7   8
ATOM      8  O   UNL     1      34.776 -24.987 -11.731  0.00  0.00    -0.482 OA
ATOM      9  H   UNL     1      34.564 -25.884 -11.896  0.00  0.00    +0.295 HD
ENDBRANCH   7   8
ENDBRANCH   1   7
BRANCH   1  10
ATOM     10  C   UNL     1      38.206 -25.398 -12.678  0.00  0.00    +0.061 C 
BRANCH  10  12
ATOM     11  O   UNL     1      38.755 -26.766 -14.615  0.00  0.00    -0.288 OA
ATOM     12  C   UNL     1      38.944 -25.754 -13.950  0.00  0.00    +0.206 C 
ENDBRANCH  10  12
ENDBRANCH   1  10
TORSDOF 5
ENDMDL
