MODEL 1
REMARK VINA RESULT:      -6.7      0.000      0.000
REMARK  Name = 46424
REMARK  5 active torsions:
REMARK  status: ('A' for Active; 'I' for Inactive)
REMARK    1  A    between atoms: C_1  and  C_13
REMARK    2  A    between atoms: C_2  and  C_4
REMARK    3  A    between atoms: C_2  and  C_9
REMARK    4  A    between atoms: C_13  and  N_15
REMARK    5  A    between atoms: N_15  and  C_18
REMARK                            x       y       z     vdW  Elec       q    Type
REMARK                         _______ _______ _______ _____ _____    ______ ____
ROOT
ATOM      1  C   UNL     1      33.119 -23.244 -16.173  0.00  0.00    -0.046 C 
ATOM      2  C   UNL     1      34.470 -23.171 -16.230  0.00  0.00    +0.006 C 
ENDROOT
BRANCH   2   4
ATOM      3  S   UNL     1      34.243 -22.389 -18.805  0.00  0.00    -0.086 S 
ATOM      4  C   UNL     1      35.111 -22.544 -17.353  0.00  0.00    +0.030 C 
ATOM      5  C   UNL     1      36.374 -22.036 -17.415  0.00  0.00    +0.007 C 
ATOM      6  C   UNL     1      36.648 -21.494 -18.703  0.00  0.00    +0.007 C 
ATOM      7  C   UNL     1      35.575 -21.621 -19.557  0.00  0.00    +0.035 C 
ENDBRANCH   2   4
BRANCH   2   9
ATOM      8  S   UNL     1      35.713 -25.357 -15.244  0.00  0.00    -0.086 S 
ATOM      9  C   UNL     1      35.217 -23.737 -15.135  0.00  0.00    +0.030 C 
ATOM     10  C   UNL     1      35.590 -23.123 -13.982  0.00  0.00    +0.007 C 
ATOM     11  C   UNL     1      36.319 -24.013 -13.140  0.00  0.00    +0.007 C 
ATOM     12  C   UNL     1      36.458 -25.261 -13.705  0.00  0.00    +0.035 C 
ENDBRANCH   2   9
BRANCH   1  13
ATOM     13  C   UNL     1      32.262 -23.858 -15.089  0.00  0.00    -0.035 C 
ATOM     14  C   UNL     1      31.893 -22.806 -14.042  0.00  0.00    -0.018 C 
BRANCH  13  15
ATOM     15  N   UNL     1      31.044 -24.432 -15.669  0.00  0.00    +0.389 N 
ATOM     16  C   UNL     1      30.152 -23.370 -16.127  0.00  0.00    -0.100 C 
ATOM     17  H   UNL     1      31.301 -25.005 -16.473  0.00  0.00    -0.079 HD
BRANCH  15  18
ATOM     18  C   UNL     1      30.370 -25.285 -14.692  0.00  0.00    -0.077 C 
ATOM     19  C   UNL     1      28.865 -25.085 -14.734  0.00  0.00    -0.025 C 
ENDBRANCH  15  18
ENDBRANCH  13  15
ENDBRANCH   1  13
TORSDOF 5
ENDMDL
MODEL 2
REMARK VINA RESULT:      -6.3     13.526     16.341
REMARK  Name = 46424
REMARK  5 active torsions:
REMARK  status: ('A' for Active; 'I' for Inactive)
REMARK    1  A    between atoms: C_1  and  C_13
REMARK    2  A    between atoms: C_2  and  C_4
REMARK    3  A    between atoms: C_2  and  C_9
REMARK    4  A    between atoms: C_13  and  N_15
REMARK    5  A    between atoms: N_15  and  C_18
REMARK                            x       y       z     vdW  Elec       q    Type
REMARK                         _______ _______ _______ _____ _____    ______ ____
ROOT
ATOM      1  C   UNL     1      33.209 -10.566 -23.134  0.00  0.00    -0.046 C 
ATOM      2  C   UNL     1      32.468  -9.628 -22.499  0.00  0.00    +0.006 C 
ENDROOT
BRANCH   2   4
ATOM      3  S   UNL     1      30.980 -11.247 -20.931  0.00  0.00    -0.086 S 
ATOM      4  C   UNL     1      31.961  -9.882 -21.178  0.00  0.00    +0.030 C 
ATOM      5  C   UNL     1      32.166  -9.146 -20.051  0.00  0.00    +0.007 C 
ATOM      6  C   UNL     1      31.497  -9.719 -18.932  0.00  0.00    +0.007 C 
ATOM      7  C   UNL     1      30.812 -10.865 -19.270  0.00  0.00    +0.035 C 
ENDBRANCH   2   4
BRANCH   2   9
ATOM      8  S   UNL     1      33.340  -7.125 -23.021  0.00  0.00    -0.086 S 
ATOM      9  C   UNL     1      32.220  -8.389 -23.194  0.00  0.00    +0.030 C 
ATOM     10  C   UNL     1      31.168  -8.087 -23.999  0.00  0.00    +0.007 C 
ATOM     11  C   UNL     1      31.275  -6.759 -24.505  0.00  0.00    +0.007 C 
ATOM     12  C   UNL     1      32.410  -6.124 -24.051  0.00  0.00    +0.035 C 
ENDBRANCH   2   9
BRANCH   1  13
ATOM     13  C   UNL     1      33.827 -10.492 -24.512  0.00  0.00    -0.035 C 
ATOM     14  C   UNL     1      35.065  -9.595 -24.493  0.00  0.00    -0.018 C 
BRANCH  13  15
ATOM     15  N   UNL     1      34.192 -11.834 -24.977  0.00  0.00    +0.389 N 
ATOM     16  C   UNL     1      33.641 -12.077 -26.308  0.00  0.00    -0.100 C 
ATOM     17  H   UNL     1      35.209 -11.897 -25.035  0.00  0.00    -0.079 HD
BRANCH  15  18
ATOM     18  C   UNL     1      33.721 -12.845 -24.033  0.00  0.00    -0.077 C 
ATOM     19  C   UNL     1      33.125 -14.039 -24.758  0.00  0.00    -0.025 C 
ENDBRANCH  15  18
ENDBRANCH  13  15
ENDBRANCH   1  13
TORSDOF 5
ENDMDL
MODEL 3
REMARK VINA RESULT:      -6.3     12.444     15.688
REMARK  Name = 46424
REMARK  5 active torsions:
REMARK  status: ('A' for Active; 'I' for Inactive)
REMARK    1  A    between atoms: C_1  and  C_13
REMARK    2  A    between atoms: C_2  and  C_4
REMARK    3  A    between atoms: C_2  and  C_9
REMARK    4  A    between atoms: C_13  and  N_15
REMARK    5  A    between atoms: N_15  and  C_18
REMARK                            x       y       z     vdW  Elec       q    Type
REMARK                         _______ _______ _______ _____ _____    ______ ____
ROOT
ATOM      1  C   UNL     1      32.611 -10.594 -23.042  0.00  0.00    -0.046 C 
ATOM      2  C   UNL     1      33.338 -11.591 -23.598  0.00  0.00    +0.006 C 
ENDROOT
BRANCH   2   4
ATOM      3  S   UNL     1      32.162 -13.243 -21.814  0.00  0.00    -0.086 S 
ATOM      4  C   UNL     1      33.290 -12.916 -23.042  0.00  0.00    +0.030 C 
ATOM      5  C   UNL     1      34.058 -13.989 -23.378  0.00  0.00    +0.007 C 
ATOM      6  C   UNL     1      33.713 -15.133 -22.602  0.00  0.00    +0.007 C 
ATOM      7  C   UNL     1      32.696 -14.867 -21.712  0.00  0.00    +0.035 C 
ENDBRANCH   2   4
BRANCH   2   9
ATOM      8  S   UNL     1      33.834 -12.083 -26.207  0.00  0.00    -0.086 S 
ATOM      9  C   UNL     1      34.143 -11.269 -24.749  0.00  0.00    +0.030 C 
ATOM     10  C   UNL     1      35.155 -10.366 -24.826  0.00  0.00    +0.007 C 
ATOM     11  C   UNL     1      35.711 -10.330 -26.138  0.00  0.00    +0.007 C 
ATOM     12  C   UNL     1      35.086 -11.215 -26.988  0.00  0.00    +0.035 C 
ENDBRANCH   2   9
BRANCH   1  13
ATOM     13  C   UNL     1      32.526  -9.148 -23.474  0.00  0.00    -0.035 C 
ATOM     14  C   UNL     1      31.069  -8.688 -23.513  0.00  0.00    -0.018 C 
BRANCH  13  15
ATOM     15  N   UNL     1      33.292  -8.298 -22.555  0.00  0.00    +0.389 N 
ATOM     16  C   UNL     1      32.627  -8.228 -21.257  0.00  0.00    -0.100 C 
ATOM     17  H   UNL     1      34.216  -8.709 -22.421  0.00  0.00    -0.079 HD
BRANCH  15  18
ATOM     18  C   UNL     1      33.459  -6.961 -23.121  0.00  0.00    -0.077 C 
ATOM     19  C   UNL     1      34.388  -6.985 -24.321  0.00  0.00    -0.025 C 
ENDBRANCH  15  18
ENDBRANCH  13  15
ENDBRANCH   1  13
TORSDOF 5
ENDMDL
MODEL 4
REMARK VINA RESULT:      -6.3      2.128      5.700
REMARK  Name = 46424
REMARK  5 active torsions:
REMARK  status: ('A' for Active; 'I' for Inactive)
REMARK    1  A    between atoms: C_1  and  C_13
REMARK    2  A    between atoms: C_2  and  C_4
REMARK    3  A    between atoms: C_2  and  C_9
REMARK    4  A    between atoms: C_13  and  N_15
REMARK    5  A    between atoms: N_15  and  C_18
REMARK                            x       y       z     vdW  Elec       q    Type
REMARK                         _______ _______ _______ _____ _____    ______ ____
ROOT
ATOM      1  C   UNL     1      34.564 -24.208 -13.785  0.00  0.00    -0.046 C 
ATOM      2  C   UNL     1      33.799 -23.678 -14.769  0.00  0.00    +0.006 C 
ENDROOT
BRANCH   2   4
ATOM      3  S   UNL     1      31.584 -25.058 -14.071  0.00  0.00    -0.086 S 
ATOM      4  C   UNL     1      32.368 -23.661 -14.640  0.00  0.00    +0.030 C 
ATOM      5  C   UNL     1      31.518 -22.636 -14.924  0.00  0.00    +0.007 C 
ATOM      6  C   UNL     1      30.165 -23.001 -14.667  0.00  0.00    +0.007 C 
ATOM      7  C   UNL     1      30.058 -24.293 -14.199  0.00  0.00    +0.035 C 
ENDBRANCH   2   4
BRANCH   2   9
ATOM      8  S   UNL     1      33.684 -23.204 -17.426  0.00  0.00    -0.086 S 
ATOM      9  C   UNL     1      34.474 -23.142 -15.924  0.00  0.00    +0.030 C 
ATOM     10  C   UNL     1      35.706 -22.571 -15.973  0.00  0.00    +0.007 C 
ATOM     11  C   UNL     1      36.028 -22.160 -17.300  0.00  0.00    +0.007 C 
ATOM     12  C   UNL     1      35.016 -22.446 -18.189  0.00  0.00    +0.035 C 
ENDBRANCH   2   9
BRANCH   1  13
ATOM     13  C   UNL     1      36.071 -24.319 -13.732  0.00  0.00    -0.035 C 
ATOM     14  C   UNL     1      36.616 -23.590 -12.504  0.00  0.00    -0.018 C 
BRANCH  13  15
ATOM     15  N   UNL     1      36.474 -25.729 -13.693  0.00  0.00    +0.389 N 
ATOM     16  C   UNL     1      37.249 -26.001 -12.485  0.00  0.00    -0.100 C 
ATOM     17  H   UNL     1      35.636 -26.311 -13.675  0.00  0.00    -0.079 HD
BRANCH  15  18
ATOM     18  C   UNL     1      37.246 -26.069 -14.887  0.00  0.00    -0.077 C 
ATOM     19  C   UNL     1      38.727 -25.811 -14.676  0.00  0.00    -0.025 C 
ENDBRANCH  15  18
ENDBRANCH  13  15
ENDBRANCH   1  13
TORSDOF 5
ENDMDL
MODEL 5
REMARK VINA RESULT:      -6.2     14.645     17.069
REMARK  Name = 46424
REMARK  5 active torsions:
REMARK  status: ('A' for Active; 'I' for Inactive)
REMARK    1  A    between atoms: C_1  and  C_13
REMARK    2  A    between atoms: C_2  and  C_4
REMARK    3  A    between atoms: C_2  and  C_9
REMARK    4  A    between atoms: C_13  and  N_15
REMARK    5  A    between atoms: N_15  and  C_18
REMARK                            x       y       z     vdW  Elec       q    Type
REMARK                         _______ _______ _______ _____ _____    ______ ____
ROOT
ATOM      1  C   UNL     1      32.204  -7.660 -22.970  0.00  0.00    -0.046 C 
ATOM      2  C   UNL     1      32.567  -8.944 -22.737  0.00  0.00    +0.006 C 
ENDROOT
BRANCH   2   4
ATOM      3  S   UNL     1      34.839  -8.781 -24.189  0.00  0.00    -0.086 S 
ATOM      4  C   UNL     1      33.464  -9.614 -23.638  0.00  0.00    +0.030 C 
ATOM      5  C   UNL     1      33.358 -10.879 -24.133  0.00  0.00    +0.007 C 
ATOM      6  C   UNL     1      34.446 -11.187 -24.999  0.00  0.00    +0.007 C 
ATOM      7  C   UNL     1      35.325 -10.133 -25.119  0.00  0.00    +0.035 C 
ENDBRANCH   2   4
BRANCH   2   9
ATOM      8  S   UNL     1      30.888 -10.831 -21.782  0.00  0.00    -0.086 S 
ATOM      9  C   UNL     1      32.026  -9.590 -21.568  0.00  0.00    +0.030 C 
ATOM     10  C   UNL     1      32.316  -9.326 -20.267  0.00  0.00    +0.007 C 
ATOM     11  C   UNL     1      31.577 -10.178 -19.395  0.00  0.00    +0.007 C 
ATOM     12  C   UNL     1      30.761 -11.044 -20.088  0.00  0.00    +0.035 C 
ENDBRANCH   2   9
BRANCH   1  13
ATOM     13  C   UNL     1      31.281  -6.788 -22.150  0.00  0.00    -0.035 C 
ATOM     14  C   UNL     1      32.057  -6.097 -21.028  0.00  0.00    -0.018 C 
BRANCH  13  15
ATOM     15  N   UNL     1      30.641  -5.782 -23.005  0.00  0.00    +0.389 N 
ATOM     16  C   UNL     1      31.076  -5.944 -24.390  0.00  0.00    -0.100 C 
ATOM     17  H   UNL     1      29.630  -5.915 -22.968  0.00  0.00    -0.079 HD
BRANCH  15  18
ATOM     18  C   UNL     1      30.947  -4.437 -22.523  0.00  0.00    -0.077 C 
ATOM     19  C   UNL     1      31.371  -3.528 -23.663  0.00  0.00    -0.025 C 
ENDBRANCH  15  18
ENDBRANCH  13  15
ENDBRANCH   1  13
TORSDOF 5
ENDMDL
MODEL 6
REMARK VINA RESULT:      -6.2     10.687     13.949
REMARK  Name = 46424
REMARK  5 active torsions:
REMARK  status: ('A' for Active; 'I' for Inactive)
REMARK    1  A    between atoms: C_1  and  C_13
REMARK    2  A    between atoms: C_2  and  C_4
REMARK    3  A    between atoms: C_2  and  C_9
REMARK    4  A    between atoms: C_13  and  N_15
REMARK    5  A    between atoms: N_15  and  C_18
REMARK                            x       y       z     vdW  Elec       q    Type
REMARK                         _______ _______ _______ _____ _____    ______ ____
ROOT
ATOM      1  C   UNL     1      32.548 -12.721 -22.174  0.00  0.00    -0.046 C 
ATOM      2  C   UNL     1      33.319 -13.483 -22.985  0.00  0.00    +0.006 C 
ENDROOT
BRANCH   2   4
ATOM      3  S   UNL     1      33.938 -14.931 -20.791  0.00  0.00    -0.086 S 
ATOM      4  C   UNL     1      33.977 -14.651 -22.467  0.00  0.00    +0.030 C 
ATOM      5  C   UNL     1      34.657 -15.603 -23.164  0.00  0.00    +0.007 C 
ATOM      6  C   UNL     1      35.170 -16.609 -22.296  0.00  0.00    +0.007 C 
ATOM      7  C   UNL     1      34.853 -16.366 -20.978  0.00  0.00    +0.035 C 
ENDBRANCH   2   4
BRANCH   2   9
ATOM      8  S   UNL     1      32.760 -14.067 -25.562  0.00  0.00    -0.086 S 
ATOM      9  C   UNL     1      33.442 -13.078 -24.363  0.00  0.00    +0.030 C 
ATOM     10  C   UNL     1      34.056 -11.967 -24.848  0.00  0.00    +0.007 C 
ATOM     11  C   UNL     1      33.969 -11.913 -26.270  0.00  0.00    +0.007 C 
ATOM     12  C   UNL     1      33.290 -12.994 -26.787  0.00  0.00    +0.035 C 
ENDBRANCH   2   9
BRANCH   1  13
ATOM     13  C   UNL     1      31.779 -11.467 -22.524  0.00  0.00    -0.035 C 
ATOM     14  C   UNL     1      30.478 -11.399 -21.725  0.00  0.00    -0.018 C 
BRANCH  13  15
ATOM     15  N   UNL     1      32.595 -10.279 -22.250  0.00  0.00    +0.389 N 
ATOM     16  C   UNL     1      32.107  -9.594 -21.055  0.00  0.00    -0.100 C 
ATOM     17  H   UNL     1      33.557 -10.572 -22.081  0.00  0.00    -0.079 HD
BRANCH  15  18
ATOM     18  C   UNL     1      32.582  -9.378 -23.400  0.00  0.00    -0.077 C 
ATOM     19  C   UNL     1      33.821  -8.500 -23.424  0.00  0.00    -0.025 C 
ENDBRANCH  15  18
ENDBRANCH  13  15
ENDBRANCH   1  13
TORSDOF 5
ENDMDL
MODEL 7
REMARK VINA RESULT:      -6.0     14.865     17.586
REMARK  Name = 46424
REMARK  5 active torsions:
REMARK  status: ('A' for Active; 'I' for Inactive)
REMARK    1  A    between atoms: C_1  and  C_13
REMARK    2  A    between atoms: C_2  and  C_4
REMARK    3  A    between atoms: C_2  and  C_9
REMARK    4  A    between atoms: C_13  and  N_15
REMARK    5  A    between atoms: N_15  and  C_18
REMARK                            x       y       z     vdW  Elec       q    Type
REMARK                         _______ _______ _______ _____ _____    ______ ____
ROOT
ATOM      1  C   UNL     1      31.604  -7.637 -22.450  0.00  0.00    -0.046 C 
ATOM      2  C   UNL     1      32.254  -8.803 -22.226  0.00  0.00    +0.006 C 
ENDROOT
BRANCH   2   4
ATOM      3  S   UNL     1      31.207 -11.097 -21.258  0.00  0.00    -0.086 S 
ATOM      4  C   UNL     1      31.954  -9.583 -21.057  0.00  0.00    +0.030 C 
ATOM      5  C   UNL     1      32.194  -9.261 -19.756  0.00  0.00    +0.007 C 
ATOM      6  C   UNL     1      31.752 -10.294 -18.880  0.00  0.00    +0.007 C 
ATOM      7  C   UNL     1      31.195 -11.350 -19.565  0.00  0.00    +0.035 C 
ENDBRANCH   2   4
BRANCH   2   9
ATOM      8  S   UNL     1      34.558  -8.193 -23.498  0.00  0.00    -0.086 S 
ATOM      9  C   UNL     1      33.238  -9.216 -23.195  0.00  0.00    +0.030 C 
ATOM     10  C   UNL     1      33.249 -10.361 -23.927  0.00  0.00    +0.007 C 
ATOM     11  C   UNL     1      34.390 -10.413 -24.780  0.00  0.00    +0.007 C 
ATOM     12  C   UNL     1      35.185  -9.296 -24.647  0.00  0.00    +0.035 C 
ENDBRANCH   2   9
BRANCH   1  13
ATOM     13  C   UNL     1      31.775  -6.680 -23.609  0.00  0.00    -0.035 C 
ATOM     14  C   UNL     1      30.760  -6.990 -24.710  0.00  0.00    -0.018 C 
BRANCH  13  15
ATOM     15  N   UNL     1      31.608  -5.296 -23.154  0.00  0.00    +0.389 N 
ATOM     16  C   UNL     1      30.620  -5.232 -22.080  0.00  0.00    -0.100 C 
ATOM     17  H   UNL     1      32.501  -4.960 -22.790  0.00  0.00    -0.079 HD
BRANCH  15  18
ATOM     18  C   UNL     1      31.213  -4.438 -24.269  0.00  0.00    -0.077 C 
ATOM     19  C   UNL     1      31.466  -2.975 -23.953  0.00  0.00    -0.025 C 
ENDBRANCH  15  18
ENDBRANCH  13  15
ENDBRANCH   1  13
TORSDOF 5
ENDMDL
MODEL 8
REMARK VINA RESULT:      -6.0     12.576     15.656
REMARK  Name = 46424
REMARK  5 active torsions:
REMARK  status: ('A' for Active; 'I' for Inactive)
REMARK    1  A    between atoms: C_1  and  C_13
REMARK    2  A    between atoms: C_2  and  C_4
REMARK    3  A    between atoms: C_2  and  C_9
REMARK    4  A    between atoms: C_13  and  N_15
REMARK    5  A    between atoms: N_15  and  C_18
REMARK                            x       y       z     vdW  Elec       q    Type
REMARK                         _______ _______ _______ _____ _____    ______ ____
ROOT
ATOM      1  C   UNL     1      32.501 -10.413 -22.948  0.00  0.00    -0.046 C 
ATOM      2  C   UNL     1      33.237 -11.408 -23.496  0.00  0.00    +0.006 C 
ENDROOT
BRANCH   2   4
ATOM      3  S   UNL     1      32.116 -13.035 -21.655  0.00  0.00    -0.086 S 
ATOM      4  C   UNL     1      33.125 -12.749 -22.992  0.00  0.00    +0.030 C 
ATOM      5  C   UNL     1      33.744 -13.869 -23.459  0.00  0.00    +0.007 C 
ATOM      6  C   UNL     1      33.380 -15.015 -22.695  0.00  0.00    +0.007 C 
ATOM      7  C   UNL     1      32.501 -14.703 -21.682  0.00  0.00    +0.035 C 
ENDBRANCH   2   4
BRANCH   2   9
ATOM      8  S   UNL     1      33.917 -11.867 -26.070  0.00  0.00    -0.086 S 
ATOM      9  C   UNL     1      34.117 -11.066 -24.586  0.00  0.00    +0.030 C 
ATOM     10  C   UNL     1      35.123 -10.154 -24.583  0.00  0.00    +0.007 C 
ATOM     11  C   UNL     1      35.768 -10.099 -25.853  0.00  0.00    +0.007 C 
ATOM     12  C   UNL     1      35.212 -10.980 -26.754  0.00  0.00    +0.035 C 
ENDBRANCH   2   9
BRANCH   1  13
ATOM     13  C   UNL     1      32.476  -8.950 -23.332  0.00  0.00    -0.035 C 
ATOM     14  C   UNL     1      31.051  -8.513 -23.672  0.00  0.00    -0.018 C 
BRANCH  13  15
ATOM     15  N   UNL     1      33.001  -8.129 -22.235  0.00  0.00    +0.389 N 
ATOM     16  C   UNL     1      32.461  -8.586 -20.957  0.00  0.00    -0.100 C 
ATOM     17  H   UNL     1      34.016  -8.226 -22.209  0.00  0.00    -0.079 HD
BRANCH  15  18
ATOM     18  C   UNL     1      32.678  -6.721 -22.456  0.00  0.00    -0.077 C 
ATOM     19  C   UNL     1      32.006  -6.114 -21.238  0.00  0.00    -0.025 C 
ENDBRANCH  15  18
ENDBRANCH  13  15
ENDBRANCH   1  13
TORSDOF 5
ENDMDL
MODEL 9
REMARK VINA RESULT:      -5.8      2.361      5.017
REMARK  Name = 46424
REMARK  5 active torsions:
REMARK  status: ('A' for Active; 'I' for Inactive)
REMARK    1  A    between atoms: C_1  and  C_13
REMARK    2  A    between atoms: C_2  and  C_4
REMARK    3  A    between atoms: C_2  and  C_9
REMARK    4  A    between atoms: C_13  and  N_15
REMARK    5  A    between atoms: N_15  and  C_18
REMARK                            x       y       z     vdW  Elec       q    Type
REMARK                         _______ _______ _______ _____ _____    ______ ____
ROOT
ATOM      1  C   UNL     1      33.324 -23.117 -17.916  0.00  0.00    -0.046 C 
ATOM      2  C   UNL     1      33.520 -23.225 -16.581  0.00  0.00    +0.006 C 
ENDROOT
BRANCH   2   4
ATOM      3  S   UNL     1      30.841 -22.996 -16.331  0.00  0.00    -0.086 S 
ATOM      4  C   UNL     1      32.401 -23.177 -15.681  0.00  0.00    +0.030 C 
ATOM      5  C   UNL     1      32.420 -23.258 -14.322  0.00  0.00    +0.007 C 
ATOM      6  C   UNL     1      31.104 -23.171 -13.782  0.00  0.00    +0.007 C 
ATOM      7  C   UNL     1      30.151 -23.025 -14.765  0.00  0.00    +0.035 C 
ENDBRANCH   2   4
BRANCH   2   9
ATOM      8  S   UNL     1      35.300 -24.852 -15.363  0.00  0.00    -0.086 S 
ATOM      9  C   UNL     1      34.875 -23.390 -16.116  0.00  0.00    +0.030 C 
ATOM     10  C   UNL     1      35.895 -22.498 -16.203  0.00  0.00    +0.007 C 
ATOM     11  C   UNL     1      37.088 -23.026 -15.629  0.00  0.00    +0.007 C 
ATOM     12  C   UNL     1      36.904 -24.298 -15.134  0.00  0.00    +0.035 C 
ENDBRANCH   2   9
BRANCH   1  13
ATOM     13  C   UNL     1      34.360 -23.144 -19.017  0.00  0.00    -0.035 C 
ATOM     14  C   UNL     1      34.118 -24.332 -19.948  0.00  0.00    -0.018 C 
BRANCH  13  15
ATOM     15  N   UNL     1      34.319 -21.894 -19.784  0.00  0.00    +0.389 N 
ATOM     16  C   UNL     1      35.526 -21.110 -19.541  0.00  0.00    -0.100 C 
ATOM     17  H   UNL     1      34.277 -22.120 -20.779  0.00  0.00    -0.079 HD
BRANCH  15  18
ATOM     18  C   UNL     1      33.126 -21.125 -19.437  0.00  0.00    -0.077 C 
ATOM     19  C   UNL     1      32.826 -20.071 -20.488  0.00  0.00    -0.025 C 
ENDBRANCH  15  18
ENDBRANCH  13  15
ENDBRANCH   1  13
TORSDOF 5
ENDMDL
