MODEL 1
REMARK VINA RESULT:      -9.2      0.000      0.000
REMARK  Name = 5585
REMARK  0 active torsions:
REMARK  status: ('A' for Active; 'I' for Inactive)
REMARK                            x       y       z     vdW  Elec       q    Type
REMARK                         _______ _______ _______ _____ _____    ______ ____
ROOT
ATOM      1  O   UNL     1      35.341 -17.989 -20.750  0.00  0.00    -0.458 OA
ATOM      2  O   UNL     1      33.758 -13.757 -22.447  0.00  0.00    -0.421 OA
ATOM      3  O   UNL     1      33.003 -11.781 -23.315  0.00  0.00    -0.244 OA
ATOM      4  C   UNL     1      33.939 -15.717 -23.899  0.00  0.00    +0.031 C 
ATOM      5  C   UNL     1      34.752 -17.796 -22.922  0.00  0.00    +0.037 C 
ATOM      6  C   UNL     1      34.871 -17.137 -21.704  0.00  0.00    +0.144 C 
ATOM      7  C   UNL     1      34.551 -15.798 -21.510  0.00  0.00    +0.047 C 
ATOM      8  C   UNL     1      34.085 -15.119 -22.642  0.00  0.00    +0.147 C 
ATOM      9  C   UNL     1      34.279 -17.077 -24.038  0.00  0.00    +0.006 C 
ATOM     10  C   UNL     1      33.439 -14.897 -25.013  0.00  0.00    -0.012 C 
ATOM     11  C   UNL     1      35.179 -19.129 -22.682  0.00  0.00    +0.036 C 
ATOM     12  C   UNL     1      35.525 -19.193 -21.352  0.00  0.00    +0.123 C 
ATOM     13  C   UNL     1      34.692 -15.121 -20.189  0.00  0.00    +0.037 C 
ATOM     14  C   UNL     1      33.141 -13.609 -24.794  0.00  0.00    +0.078 C 
ATOM     15  C   UNL     1      33.270 -15.506 -26.375  0.00  0.00    +0.031 C 
ATOM     16  C   UNL     1      33.288 -12.963 -23.479  0.00  0.00    +0.346 C 
ATOM     17  C   UNL     1      36.034 -20.274 -20.498  0.00  0.00    +0.072 C 
ENDROOT
TORSDOF 0
ENDMDL
MODEL 2
REMARK VINA RESULT:      -9.2      0.995      5.212
REMARK  Name = 5585
REMARK  0 active torsions:
REMARK  status: ('A' for Active; 'I' for Inactive)
REMARK                            x       y       z     vdW  Elec       q    Type
REMARK                         _______ _______ _______ _____ _____    ______ ____
ROOT
ATOM      1  O   UNL     1      33.959 -13.262 -22.733  0.00  0.00    -0.458 OA
ATOM      2  O   UNL     1      35.005 -17.626 -20.954  0.00  0.00    -0.421 OA
ATOM      3  O   UNL     1      35.492 -19.719 -20.177  0.00  0.00    -0.244 OA
ATOM      4  C   UNL     1      34.551 -17.303 -23.336  0.00  0.00    +0.031 C 
ATOM      5  C   UNL     1      34.035 -15.051 -24.110  0.00  0.00    +0.037 C 
ATOM      6  C   UNL     1      34.179 -14.605 -22.801  0.00  0.00    +0.144 C 
ATOM      7  C   UNL     1      34.500 -15.431 -21.729  0.00  0.00    +0.047 C 
ATOM      8  C   UNL     1      34.679 -16.784 -22.043  0.00  0.00    +0.147 C 
ATOM      9  C   UNL     1      34.224 -16.421 -24.384  0.00  0.00    +0.006 C 
ATOM     10  C   UNL     1      34.763 -18.745 -23.539  0.00  0.00    -0.012 C 
ATOM     11  C   UNL     1      33.709 -13.900 -24.876  0.00  0.00    +0.036 C 
ATOM     12  C   UNL     1      33.676 -12.844 -23.994  0.00  0.00    +0.123 C 
ATOM     13  C   UNL     1      34.644 -14.920 -20.337  0.00  0.00    +0.037 C 
ATOM     14  C   UNL     1      35.070 -19.514 -22.485  0.00  0.00    +0.078 C 
ATOM     15  C   UNL     1      34.635 -19.335 -24.912  0.00  0.00    +0.031 C 
ATOM     16  C   UNL     1      35.209 -18.985 -21.117  0.00  0.00    +0.346 C 
ATOM     17  C   UNL     1      33.402 -11.409 -24.155  0.00  0.00    +0.072 C 
ENDROOT
TORSDOF 0
ENDMDL
MODEL 3
REMARK VINA RESULT:      -9.2      2.247      5.063
REMARK  Name = 5585
REMARK  0 active torsions:
REMARK  status: ('A' for Active; 'I' for Inactive)
REMARK                            x       y       z     vdW  Elec       q    Type
REMARK                         _______ _______ _______ _____ _____    ______ ____
ROOT
ATOM      1  O   UNL     1      32.344 -12.963 -20.230  0.00  0.00    -0.458 OA
ATOM      2  O   UNL     1      34.349 -16.496 -22.835  0.00  0.00    -0.421 OA
ATOM      3  O   UNL     1      35.276 -18.139 -24.127  0.00  0.00    -0.244 OA
ATOM      4  C   UNL     1      33.203 -14.623 -23.911  0.00  0.00    +0.031 C 
ATOM      5  C   UNL     1      32.231 -12.902 -22.486  0.00  0.00    +0.037 C 
ATOM      6  C   UNL     1      32.688 -13.609 -21.379  0.00  0.00    +0.144 C 
ATOM      7  C   UNL     1      33.394 -14.805 -21.458  0.00  0.00    +0.047 C 
ATOM      8  C   UNL     1      33.632 -15.281 -22.753  0.00  0.00    +0.147 C 
ATOM      9  C   UNL     1      32.491 -13.415 -23.772  0.00  0.00    +0.006 C 
ATOM     10  C   UNL     1      33.513 -15.225 -25.217  0.00  0.00    -0.012 C 
ATOM     11  C   UNL     1      31.569 -11.758 -21.965  0.00  0.00    +0.036 C 
ATOM     12  C   UNL     1      31.667 -11.843 -20.596  0.00  0.00    +0.123 C 
ATOM     13  C   UNL     1      33.869 -15.538 -20.251  0.00  0.00    +0.037 C 
ATOM     14  C   UNL     1      34.194 -16.379 -25.258  0.00  0.00    +0.078 C 
ATOM     15  C   UNL     1      33.069 -14.546 -26.480  0.00  0.00    +0.031 C 
ATOM     16  C   UNL     1      34.654 -17.085 -24.051  0.00  0.00    +0.346 C 
ATOM     17  C   UNL     1      31.194 -10.984 -19.500  0.00  0.00    +0.072 C 
ENDROOT
TORSDOF 0
ENDMDL
MODEL 4
REMARK VINA RESULT:      -9.1      8.919     11.155
REMARK  Name = 5585
REMARK  0 active torsions:
REMARK  status: ('A' for Active; 'I' for Inactive)
REMARK                            x       y       z     vdW  Elec       q    Type
REMARK                         _______ _______ _______ _____ _____    ______ ____
ROOT
ATOM      1  O   UNL     1      35.943 -23.646 -16.166  0.00  0.00    -0.458 OA
ATOM      2  O   UNL     1      31.250 -22.829 -16.939  0.00  0.00    -0.421 OA
ATOM      3  O   UNL     1      29.013 -22.466 -17.240  0.00  0.00    -0.244 OA
ATOM      4  C   UNL     1      32.052 -23.676 -14.789  0.00  0.00    +0.031 C 
ATOM      5  C   UNL     1      34.445 -24.047 -14.524  0.00  0.00    +0.037 C 
ATOM      6  C   UNL     1      34.623 -23.609 -15.831  0.00  0.00    +0.144 C 
ATOM      7  C   UNL     1      33.586 -23.198 -16.661  0.00  0.00    +0.047 C 
ATOM      8  C   UNL     1      32.306 -23.247 -16.097  0.00  0.00    +0.147 C 
ATOM      9  C   UNL     1      33.140 -24.082 -13.993  0.00  0.00    +0.006 C 
ATOM     10  C   UNL     1      30.661 -23.683 -14.310  0.00  0.00    -0.012 C 
ATOM     11  C   UNL     1      35.744 -24.367 -14.045  0.00  0.00    +0.036 C 
ATOM     12  C   UNL     1      36.614 -24.106 -15.078  0.00  0.00    +0.123 C 
ATOM     13  C   UNL     1      33.812 -22.735 -18.060  0.00  0.00    +0.037 C 
ATOM     14  C   UNL     1      29.684 -23.282 -15.135  0.00  0.00    +0.078 C 
ATOM     15  C   UNL     1      30.352 -24.136 -12.913  0.00  0.00    +0.031 C 
ATOM     16  C   UNL     1      29.932 -22.828 -16.513  0.00  0.00    +0.346 C 
ATOM     17  C   UNL     1      38.072 -24.227 -15.218  0.00  0.00    +0.072 C 
ENDROOT
TORSDOF 0
ENDMDL
MODEL 5
REMARK VINA RESULT:      -9.0      1.874      2.990
REMARK  Name = 5585
REMARK  0 active torsions:
REMARK  status: ('A' for Active; 'I' for Inactive)
REMARK                            x       y       z     vdW  Elec       q    Type
REMARK                         _______ _______ _______ _____ _____    ______ ____
ROOT
ATOM      1  O   UNL     1      35.321 -19.014 -22.501  0.00  0.00    -0.458 OA
ATOM      2  O   UNL     1      33.796 -16.045 -25.988  0.00  0.00    -0.421 OA
ATOM      3  O   UNL     1      33.067 -14.587 -27.591  0.00  0.00    -0.244 OA
ATOM      4  C   UNL     1      34.070 -15.262 -23.687  0.00  0.00    +0.031 C 
ATOM      5  C   UNL     1      34.846 -16.859 -22.018  0.00  0.00    +0.037 C 
ATOM      6  C   UNL     1      34.896 -17.826 -23.015  0.00  0.00    +0.144 C 
ATOM      7  C   UNL     1      34.555 -17.591 -24.343  0.00  0.00    +0.047 C 
ATOM      8  C   UNL     1      34.144 -16.286 -24.638  0.00  0.00    +0.147 C 
ATOM      9  C   UNL     1      34.427 -15.557 -22.356  0.00  0.00    +0.006 C 
ATOM     10  C   UNL     1      33.622 -13.930 -24.120  0.00  0.00    -0.012 C 
ATOM     11  C   UNL     1      35.269 -17.511 -20.829  0.00  0.00    +0.036 C 
ATOM     12  C   UNL     1      35.544 -18.813 -21.177  0.00  0.00    +0.123 C 
ATOM     13  C   UNL     1      34.617 -18.651 -25.388  0.00  0.00    +0.037 C 
ATOM     14  C   UNL     1      33.299 -13.737 -25.407  0.00  0.00    +0.078 C 
ATOM     15  C   UNL     1      33.532 -12.809 -23.127  0.00  0.00    +0.031 C 
ATOM     16  C   UNL     1      33.370 -14.801 -26.422  0.00  0.00    +0.346 C 
ATOM     17  C   UNL     1      36.015 -19.978 -20.414  0.00  0.00    +0.072 C 
ENDROOT
TORSDOF 0
ENDMDL
MODEL 6
REMARK VINA RESULT:      -9.0      7.319     10.600
REMARK  Name = 5585
REMARK  0 active torsions:
REMARK  status: ('A' for Active; 'I' for Inactive)
REMARK                            x       y       z     vdW  Elec       q    Type
REMARK                         _______ _______ _______ _____ _____    ______ ____
ROOT
ATOM      1  O   UNL     1      35.445 -22.524 -18.090  0.00  0.00    -0.458 OA
ATOM      2  O   UNL     1      32.751 -24.309 -14.505  0.00  0.00    -0.421 OA
ATOM      3  O   UNL     1      31.418 -25.130 -12.839  0.00  0.00    -0.244 OA
ATOM      4  C   UNL     1      31.728 -23.177 -16.416  0.00  0.00    +0.031 C 
ATOM      5  C   UNL     1      33.197 -22.319 -18.162  0.00  0.00    +0.037 C 
ATOM      6  C   UNL     1      34.282 -22.801 -17.438  0.00  0.00    +0.144 C 
ATOM      7  C   UNL     1      34.171 -23.465 -16.221  0.00  0.00    +0.047 C 
ATOM      8  C   UNL     1      32.866 -23.634 -15.742  0.00  0.00    +0.147 C 
ATOM      9  C   UNL     1      31.899 -22.509 -17.645  0.00  0.00    +0.006 C 
ATOM     10  C   UNL     1      30.409 -23.414 -15.810  0.00  0.00    -0.012 C 
ATOM     11  C   UNL     1      33.747 -21.716 -19.324  0.00  0.00    +0.036 C 
ATOM     12  C   UNL     1      35.111 -21.868 -19.231  0.00  0.00    +0.123 C 
ATOM     13  C   UNL     1      35.356 -23.967 -15.469  0.00  0.00    +0.037 C 
ATOM     14  C   UNL     1      30.337 -24.057 -14.636  0.00  0.00    +0.078 C 
ATOM     15  C   UNL     1      29.168 -22.939 -16.506  0.00  0.00    +0.031 C 
ATOM     16  C   UNL     1      31.523 -24.544 -13.912  0.00  0.00    +0.346 C 
ATOM     17  C   UNL     1      36.227 -21.468 -20.101  0.00  0.00    +0.072 C 
ENDROOT
TORSDOF 0
ENDMDL
MODEL 7
REMARK VINA RESULT:      -8.9      2.306      5.503
REMARK  Name = 5585
REMARK  0 active torsions:
REMARK  status: ('A' for Active; 'I' for Inactive)
REMARK                            x       y       z     vdW  Elec       q    Type
REMARK                         _______ _______ _______ _____ _____    ______ ____
ROOT
ATOM      1  O   UNL     1      31.934 -12.277 -22.300  0.00  0.00    -0.458 OA
ATOM      2  O   UNL     1      34.051 -15.801 -24.828  0.00  0.00    -0.421 OA
ATOM      3  O   UNL     1      35.070 -17.503 -25.965  0.00  0.00    -0.244 OA
ATOM      4  C   UNL     1      33.919 -15.896 -22.388  0.00  0.00    +0.031 C 
ATOM      5  C   UNL     1      32.825 -14.054 -21.227  0.00  0.00    +0.037 C 
ATOM      6  C   UNL     1      32.592 -13.459 -22.462  0.00  0.00    +0.144 C 
ATOM      7  C   UNL     1      32.985 -14.010 -23.677  0.00  0.00    +0.047 C 
ATOM      8  C   UNL     1      33.650 -15.239 -23.594  0.00  0.00    +0.147 C 
ATOM      9  C   UNL     1      33.498 -15.291 -21.187  0.00  0.00    +0.006 C 
ATOM     10  C   UNL     1      34.627 -17.184 -22.432  0.00  0.00    -0.012 C 
ATOM     11  C   UNL     1      32.270 -13.170 -20.263  0.00  0.00    +0.036 C 
ATOM     12  C   UNL     1      31.744 -12.111 -20.966  0.00  0.00    +0.123 C 
ATOM     13  C   UNL     1      32.721 -13.345 -24.984  0.00  0.00    +0.037 C 
ATOM     14  C   UNL     1      34.994 -17.688 -23.619  0.00  0.00    +0.078 C 
ATOM     15  C   UNL     1      34.931 -17.916 -21.157  0.00  0.00    +0.031 C 
ATOM     16  C   UNL     1      34.721 -17.011 -24.898  0.00  0.00    +0.346 C 
ATOM     17  C   UNL     1      31.043 -10.884 -20.558  0.00  0.00    +0.072 C 
ENDROOT
TORSDOF 0
ENDMDL
MODEL 8
REMARK VINA RESULT:      -8.9      8.841     11.573
REMARK  Name = 5585
REMARK  0 active torsions:
REMARK  status: ('A' for Active; 'I' for Inactive)
REMARK                            x       y       z     vdW  Elec       q    Type
REMARK                         _______ _______ _______ _____ _____    ______ ____
ROOT
ATOM      1  O   UNL     1      31.123 -23.060 -17.035  0.00  0.00    -0.458 OA
ATOM      2  O   UNL     1      35.895 -23.106 -16.314  0.00  0.00    -0.421 OA
ATOM      3  O   UNL     1      38.144 -23.142 -15.905  0.00  0.00    -0.244 OA
ATOM      4  C   UNL     1      34.334 -23.596 -14.496  0.00  0.00    +0.031 C 
ATOM      5  C   UNL     1      31.948 -23.540 -14.988  0.00  0.00    +0.037 C 
ATOM      6  C   UNL     1      32.262 -23.210 -16.301  0.00  0.00    +0.144 C 
ATOM      7  C   UNL     1      33.560 -23.057 -16.776  0.00  0.00    +0.047 C 
ATOM      8  C   UNL     1      34.574 -23.261 -15.834  0.00  0.00    +0.147 C 
ATOM      9  C   UNL     1      32.999 -23.736 -14.069  0.00  0.00    +0.006 C 
ATOM     10  C   UNL     1      35.486 -23.783 -13.601  0.00  0.00    -0.012 C 
ATOM     11  C   UNL     1      30.530 -23.592 -14.931  0.00  0.00    +0.036 C 
ATOM     12  C   UNL     1      30.080 -23.294 -16.197  0.00  0.00    +0.123 C 
ATOM     13  C   UNL     1      33.861 -22.700 -18.192  0.00  0.00    +0.037 C 
ATOM     14  C   UNL     1      36.725 -23.627 -14.089  0.00  0.00    +0.078 C 
ATOM     15  C   UNL     1      35.265 -24.143 -12.161  0.00  0.00    +0.031 C 
ATOM     16  C   UNL     1      36.997 -23.275 -15.493  0.00  0.00    +0.346 C 
ATOM     17  C   UNL     1      28.738 -23.185 -16.786  0.00  0.00    +0.072 C 
ENDROOT
TORSDOF 0
ENDMDL
MODEL 9
REMARK VINA RESULT:      -8.7      4.043      6.667
REMARK  Name = 5585
REMARK  0 active torsions:
REMARK  status: ('A' for Active; 'I' for Inactive)
REMARK                            x       y       z     vdW  Elec       q    Type
REMARK                         _______ _______ _______ _____ _____    ______ ____
ROOT
ATOM      1  O   UNL     1      32.491 -12.990 -22.904  0.00  0.00    -0.458 OA
ATOM      2  O   UNL     1      31.674  -8.444 -21.504  0.00  0.00    -0.421 OA
ATOM      3  O   UNL     1      31.335  -6.270 -20.887  0.00  0.00    -0.244 OA
ATOM      4  C   UNL     1      33.262  -8.953 -23.293  0.00  0.00    +0.031 C 
ATOM      5  C   UNL     1      33.586 -11.289 -23.908  0.00  0.00    +0.037 C 
ATOM      6  C   UNL     1      32.657 -11.638 -22.935  0.00  0.00    +0.144 C 
ATOM      7  C   UNL     1      32.003 -10.722 -22.119  0.00  0.00    +0.047 C 
ATOM      8  C   UNL     1      32.337  -9.379 -22.333  0.00  0.00    +0.147 C 
ATOM      9  C   UNL     1      33.895  -9.926 -24.092  0.00  0.00    +0.006 C 
ATOM     10  C   UNL     1      33.529  -7.513 -23.422  0.00  0.00    -0.012 C 
ATOM     11  C   UNL     1      34.003 -12.511 -24.499  0.00  0.00    +0.036 C 
ATOM     12  C   UNL     1      33.310 -13.510 -23.855  0.00  0.00    +0.123 C 
ATOM     13  C   UNL     1      31.013 -11.130 -21.083  0.00  0.00    +0.037 C 
ATOM     14  C   UNL     1      32.883  -6.655 -22.620  0.00  0.00    +0.078 C 
ATOM     15  C   UNL     1      34.514  -7.021 -24.443  0.00  0.00    +0.031 C 
ATOM     16  C   UNL     1      31.908  -7.083 -21.604  0.00  0.00    +0.346 C 
ATOM     17  C   UNL     1      33.292 -14.973 -23.998  0.00  0.00    +0.072 C 
ENDROOT
TORSDOF 0
ENDMDL
