MODEL 1
REMARK VINA RESULT:      -5.5      0.000      0.000
REMARK  Name = 1549098
REMARK  6 active torsions:
REMARK  status: ('A' for Active; 'I' for Inactive)
REMARK    1  A    between atoms: C_1  and  N_2
REMARK    2  A    between atoms: C_1  and  C_7
REMARK    3  A    between atoms: C_1  and  C_10
REMARK    4  A    between atoms: C_7  and  O_8
REMARK    5  A    between atoms: C_10  and  S_11
REMARK    6  A    between atoms: S_11  and  O_13
REMARK                            x       y       z     vdW  Elec       q    Type
REMARK                         _______ _______ _______ _____ _____    ______ ____
ROOT
ATOM      1  C   UNK     1      38.928 -25.222 -14.456  0.00  0.00    +0.059 C 
ENDROOT
BRANCH   1   2
ATOM      2  N   UNK     1      37.903 -25.837 -15.301  0.00  0.00    +0.390 N 
ATOM      3  H   UNK     1      37.022 -25.884 -14.789  0.00  0.00    -0.088 HD
ATOM      4  H   UNK     1      38.196 -26.778 -15.561  0.00  0.00    -0.088 HD
ATOM      5  H   UNK     1      37.776 -25.275 -16.144  0.00  0.00    -0.088 HD
ENDBRANCH   1   2
BRANCH   1   7
ATOM      6  O   UNK     1      40.975 -26.443 -13.929  0.00  0.00    -0.253 OA
ATOM      7  C   UNK     1      40.223 -25.949 -14.758  0.00  0.00    +0.295 C 
BRANCH   7   8
ATOM      8  O   UNK     1      40.468 -25.961 -16.093  0.00  0.00    -0.482 OA
ATOM      9  H   UNK     1      41.280 -25.630 -16.422  0.00  0.00    +0.295 HD
ENDBRANCH   7   8
ENDBRANCH   1   7
BRANCH   1  10
ATOM     10  C   UNK     1      38.544 -25.355 -12.984  0.00  0.00    +0.134 C 
BRANCH  10  11
ATOM     11  S   UNK     1      37.706 -23.857 -12.368  0.00  0.00    -0.056 S 
ATOM     12  O   UNK     1      38.713 -23.078 -11.584  0.00  0.00    -0.081 OA
BRANCH  11  13
ATOM     13  O   UNK     1      37.622 -23.214 -13.839  0.00  0.00    -0.278 OA
ATOM     14  H   UNK     1      38.519 -23.064 -14.177  0.00  0.00    +0.242 HD
ENDBRANCH  11  13
ENDBRANCH  10  11
ENDBRANCH   1  10
TORSDOF 6
ENDMDL
MODEL 2
REMARK VINA RESULT:      -5.3      1.803      2.089
REMARK  Name = 1549098
REMARK  6 active torsions:
REMARK  status: ('A' for Active; 'I' for Inactive)
REMARK    1  A    between atoms: C_1  and  N_2
REMARK    2  A    between atoms: C_1  and  C_7
REMARK    3  A    between atoms: C_1  and  C_10
REMARK    4  A    between atoms: C_7  and  O_8
REMARK    5  A    between atoms: C_10  and  S_11
REMARK    6  A    between atoms: S_11  and  O_13
REMARK                            x       y       z     vdW  Elec       q    Type
REMARK                         _______ _______ _______ _____ _____    ______ ____
ROOT
ATOM      1  C   UNK     1      38.664 -25.432 -14.441  0.00  0.00    +0.059 C 
ENDROOT
BRANCH   1   2
ATOM      2  N   UNK     1      38.328 -26.857 -14.478  0.00  0.00    +0.390 N 
ATOM      3  H   UNK     1      38.908 -27.326 -15.173  0.00  0.00    -0.088 HD
ATOM      4  H   UNK     1      37.345 -26.969 -14.724  0.00  0.00    -0.088 HD
ATOM      5  H   UNK     1      38.498 -27.270 -13.560  0.00  0.00    -0.088 HD
ENDBRANCH   1   2
BRANCH   1   7
ATOM      6  O   UNK     1      40.998 -24.752 -14.227  0.00  0.00    -0.253 OA
ATOM      7  C   UNK     1      40.117 -25.324 -14.855  0.00  0.00    +0.295 C 
BRANCH   7   8
ATOM      8  O   UNK     1      40.324 -25.931 -16.051  0.00  0.00    -0.482 OA
ATOM      9  H   UNK     1      40.141 -25.471 -16.847  0.00  0.00    +0.295 HD
ENDBRANCH   7   8
ENDBRANCH   1   7
BRANCH   1  10
ATOM     10  C   UNK     1      38.440 -24.877 -13.036  0.00  0.00    +0.134 C 
BRANCH  10  11
ATOM     11  S   UNK     1      36.685 -24.958 -12.550  0.00  0.00    -0.056 S 
ATOM     12  O   UNK     1      35.881 -25.029 -13.808  0.00  0.00    -0.081 OA
BRANCH  11  13
ATOM     13  O   UNK     1      36.839 -26.452 -11.978  0.00  0.00    -0.278 OA
ATOM     14  H   UNK     1      37.779 -26.651 -11.844  0.00  0.00    +0.242 HD
ENDBRANCH  11  13
ENDBRANCH  10  11
ENDBRANCH   1  10
TORSDOF 6
ENDMDL
MODEL 3
REMARK VINA RESULT:      -5.1      1.722      3.697
REMARK  Name = 1549098
REMARK  6 active torsions:
REMARK  status: ('A' for Active; 'I' for Inactive)
REMARK    1  A    between atoms: C_1  and  N_2
REMARK    2  A    between atoms: C_1  and  C_7
REMARK    3  A    between atoms: C_1  and  C_10
REMARK    4  A    between atoms: C_7  and  O_8
REMARK    5  A    between atoms: C_10  and  S_11
REMARK    6  A    between atoms: S_11  and  O_13
REMARK                            x       y       z     vdW  Elec       q    Type
REMARK                         _______ _______ _______ _____ _____    ______ ____
ROOT
ATOM      1  C   UNK     1      38.114 -25.561 -12.905  0.00  0.00    +0.059 C 
ENDROOT
BRANCH   1   2
ATOM      2  N   UNK     1      36.696 -25.901 -12.775  0.00  0.00    +0.390 N 
ATOM      3  H   UNK     1      36.134 -25.056 -12.867  0.00  0.00    -0.088 HD
ATOM      4  H   UNK     1      36.530 -26.324 -11.862  0.00  0.00    -0.088 HD
ATOM      5  H   UNK     1      36.438 -26.562 -13.508  0.00  0.00    -0.088 HD
ENDBRANCH   1   2
BRANCH   1   7
ATOM      6  O   UNK     1      38.748 -23.557 -11.662  0.00  0.00    -0.253 OA
ATOM      7  C   UNK     1      38.223 -24.073 -12.640  0.00  0.00    +0.295 C 
BRANCH   7   8
ATOM      8  O   UNK     1      37.628 -23.363 -13.632  0.00  0.00    -0.482 OA
ATOM      9  H   UNK     1      38.074 -23.227 -14.444  0.00  0.00    +0.295 HD
ENDBRANCH   7   8
ENDBRANCH   1   7
BRANCH   1  10
ATOM     10  C   UNK     1      38.614 -25.917 -14.303  0.00  0.00    +0.134 C 
BRANCH  10  11
ATOM     11  S   UNK     1      40.401 -25.600 -14.482  0.00  0.00    -0.056 S 
ATOM     12  O   UNK     1      41.119 -26.755 -13.861  0.00  0.00    -0.081 OA
BRANCH  11  13
ATOM     13  O   UNK     1      40.356 -25.844 -16.071  0.00  0.00    -0.278 OA
ATOM     14  H   UNK     1      40.889 -26.623 -16.293  0.00  0.00    +0.242 HD
ENDBRANCH  11  13
ENDBRANCH  10  11
ENDBRANCH   1  10
TORSDOF 6
ENDMDL
MODEL 4
REMARK VINA RESULT:      -5.1      2.718      3.042
REMARK  Name = 1549098
REMARK  6 active torsions:
REMARK  status: ('A' for Active; 'I' for Inactive)
REMARK    1  A    between atoms: C_1  and  N_2
REMARK    2  A    between atoms: C_1  and  C_7
REMARK    3  A    between atoms: C_1  and  C_10
REMARK    4  A    between atoms: C_7  and  O_8
REMARK    5  A    between atoms: C_10  and  S_11
REMARK    6  A    between atoms: S_11  and  O_13
REMARK                            x       y       z     vdW  Elec       q    Type
REMARK                         _______ _______ _______ _____ _____    ______ ____
ROOT
ATOM      1  C   UNK     1      36.689 -25.551 -14.333  0.00  0.00    +0.059 C 
ENDROOT
BRANCH   1   2
ATOM      2  N   UNK     1      35.253 -25.456 -14.603  0.00  0.00    +0.390 N 
ATOM      3  H   UNK     1      35.059 -24.596 -15.115  0.00  0.00    -0.088 HD
ATOM      4  H   UNK     1      34.741 -25.451 -13.721  0.00  0.00    -0.088 HD
ATOM      5  H   UNK     1      34.958 -26.257 -15.162  0.00  0.00    -0.088 HD
ENDBRANCH   1   2
BRANCH   1   7
ATOM      6  O   UNK     1      36.638 -27.214 -16.119  0.00  0.00    -0.253 OA
ATOM      7  C   UNK     1      37.201 -26.718 -15.153  0.00  0.00    +0.295 C 
BRANCH   7   8
ATOM      8  O   UNK     1      38.377 -27.177 -14.654  0.00  0.00    -0.482 OA
ATOM      9  H   UNK     1      38.994 -26.578 -14.284  0.00  0.00    +0.295 HD
ENDBRANCH   7   8
ENDBRANCH   1   7
BRANCH   1  10
ATOM     10  C   UNK     1      36.929 -25.769 -12.841  0.00  0.00    +0.134 C 
BRANCH  10  11
ATOM     11  S   UNK     1      36.316 -24.367 -11.848  0.00  0.00    -0.056 S 
ATOM     12  O   UNK     1      36.200 -23.192 -12.766  0.00  0.00    -0.081 OA
BRANCH  11  13
ATOM     13  O   UNK     1      34.856 -25.022 -11.697  0.00  0.00    -0.278 OA
ATOM     14  H   UNK     1      34.363 -24.556 -11.004  0.00  0.00    +0.242 HD
ENDBRANCH  11  13
ENDBRANCH  10  11
ENDBRANCH   1  10
TORSDOF 6
ENDMDL
MODEL 5
REMARK VINA RESULT:      -5.1      2.300      2.711
REMARK  Name = 1549098
REMARK  6 active torsions:
REMARK  status: ('A' for Active; 'I' for Inactive)
REMARK    1  A    between atoms: C_1  and  N_2
REMARK    2  A    between atoms: C_1  and  C_7
REMARK    3  A    between atoms: C_1  and  C_10
REMARK    4  A    between atoms: C_7  and  O_8
REMARK    5  A    between atoms: C_10  and  S_11
REMARK    6  A    between atoms: S_11  and  O_13
REMARK                            x       y       z     vdW  Elec       q    Type
REMARK                         _______ _______ _______ _____ _____    ______ ____
ROOT
ATOM      1  C   UNK     1      36.962 -25.055 -14.284  0.00  0.00    +0.059 C 
ENDROOT
BRANCH   1   2
ATOM      2  N   UNK     1      35.667 -25.181 -13.611  0.00  0.00    +0.390 N 
ATOM      3  H   UNK     1      35.815 -25.349 -12.617  0.00  0.00    -0.088 HD
ATOM      4  H   UNK     1      35.149 -25.961 -14.016  0.00  0.00    -0.088 HD
ATOM      5  H   UNK     1      35.135 -24.319 -13.735  0.00  0.00    -0.088 HD
ENDBRANCH   1   2
BRANCH   1   7
ATOM      6  O   UNK     1      36.442 -26.911 -15.782  0.00  0.00    -0.253 OA
ATOM      7  C   UNK     1      37.206 -26.372 -14.993  0.00  0.00    +0.295 C 
BRANCH   7   8
ATOM      8  O   UNK     1      38.393 -26.909 -14.615  0.00  0.00    -0.482 OA
ATOM      9  H   UNK     1      38.411 -27.647 -14.038  0.00  0.00    +0.295 HD
ENDBRANCH   7   8
ENDBRANCH   1   7
BRANCH   1  10
ATOM     10  C   UNK     1      38.058 -24.759 -13.262  0.00  0.00    +0.134 C 
BRANCH  10  11
ATOM     11  S   UNK     1      37.508 -23.547 -12.016  0.00  0.00    -0.056 S 
ATOM     12  O   UNK     1      36.924 -24.319 -10.876  0.00  0.00    -0.081 OA
BRANCH  11  13
ATOM     13  O   UNK     1      39.019 -23.160 -11.625  0.00  0.00    -0.278 OA
ATOM     14  H   UNK     1      39.543 -23.048 -12.434  0.00  0.00    +0.242 HD
ENDBRANCH  11  13
ENDBRANCH  10  11
ENDBRANCH   1  10
TORSDOF 6
ENDMDL
MODEL 6
REMARK VINA RESULT:      -5.0      2.587      4.307
REMARK  Name = 1549098
REMARK  6 active torsions:
REMARK  status: ('A' for Active; 'I' for Inactive)
REMARK    1  A    between atoms: C_1  and  N_2
REMARK    2  A    between atoms: C_1  and  C_7
REMARK    3  A    between atoms: C_1  and  C_10
REMARK    4  A    between atoms: C_7  and  O_8
REMARK    5  A    between atoms: C_10  and  S_11
REMARK    6  A    between atoms: S_11  and  O_13
REMARK                            x       y       z     vdW  Elec       q    Type
REMARK                         _______ _______ _______ _____ _____    ______ ____
ROOT
ATOM      1  C   UNK     1      36.897 -25.566 -12.664  0.00  0.00    +0.059 C 
ENDROOT
BRANCH   1   2
ATOM      2  N   UNK     1      36.067 -25.512 -13.869  0.00  0.00    +0.390 N 
ATOM      3  H   UNK     1      36.079 -24.566 -14.248  0.00  0.00    -0.088 HD
ATOM      4  H   UNK     1      35.109 -25.773 -13.634  0.00  0.00    -0.088 HD
ATOM      5  H   UNK     1      36.435 -26.161 -14.565  0.00  0.00    -0.088 HD
ENDBRANCH   1   2
BRANCH   1   7
ATOM      6  O   UNK     1      36.641 -24.182 -10.670  0.00  0.00    -0.253 OA
ATOM      7  C   UNK     1      36.139 -24.817 -11.588  0.00  0.00    +0.295 C 
BRANCH   7   8
ATOM      8  O   UNK     1      34.799 -24.963 -11.752  0.00  0.00    -0.482 OA
ATOM      9  H   UNK     1      34.459 -25.275 -12.567  0.00  0.00    +0.295 HD
ENDBRANCH   7   8
ENDBRANCH   1   7
BRANCH   1  10
ATOM     10  C   UNK     1      38.258 -24.928 -12.935  0.00  0.00    +0.134 C 
BRANCH  10  11
ATOM     11  S   UNK     1      39.099 -25.709 -14.352  0.00  0.00    -0.056 S 
ATOM     12  O   UNK     1      38.420 -27.018 -14.603  0.00  0.00    -0.081 OA
BRANCH  11  13
ATOM     13  O   UNK     1      38.498 -24.637 -15.389  0.00  0.00    -0.278 OA
ATOM     14  H   UNK     1      37.809 -25.058 -15.926  0.00  0.00    +0.242 HD
ENDBRANCH  11  13
ENDBRANCH  10  11
ENDBRANCH   1  10
TORSDOF 6
ENDMDL
MODEL 7
REMARK VINA RESULT:      -5.0      2.502      3.980
REMARK  Name = 1549098
REMARK  6 active torsions:
REMARK  status: ('A' for Active; 'I' for Inactive)
REMARK    1  A    between atoms: C_1  and  N_2
REMARK    2  A    between atoms: C_1  and  C_7
REMARK    3  A    between atoms: C_1  and  C_10
REMARK    4  A    between atoms: C_7  and  O_8
REMARK    5  A    between atoms: C_10  and  S_11
REMARK    6  A    between atoms: S_11  and  O_13
REMARK                            x       y       z     vdW  Elec       q    Type
REMARK                         _______ _______ _______ _____ _____    ______ ____
ROOT
ATOM      1  C   UNK     1      38.573 -24.824 -13.152  0.00  0.00    +0.059 C 
ENDROOT
BRANCH   1   2
ATOM      2  N   UNK     1      38.248 -26.211 -12.815  0.00  0.00    +0.390 N 
ATOM      3  H   UNK     1      39.033 -26.635 -12.324  0.00  0.00    -0.088 HD
ATOM      4  H   UNK     1      38.059 -26.733 -13.671  0.00  0.00    -0.088 HD
ATOM      5  H   UNK     1      37.422 -26.230 -12.216  0.00  0.00    -0.088 HD
ENDBRANCH   1   2
BRANCH   1   7
ATOM      6  O   UNK     1      38.552 -22.850 -11.716  0.00  0.00    -0.253 OA
ATOM      7  C   UNK     1      38.169 -23.987 -11.955  0.00  0.00    +0.295 C 
BRANCH   7   8
ATOM      8  O   UNK     1      37.331 -24.681 -11.144  0.00  0.00    -0.482 OA
ATOM      9  H   UNK     1      37.352 -25.617 -11.139  0.00  0.00    +0.295 HD
ENDBRANCH   7   8
ENDBRANCH   1   7
BRANCH   1  10
ATOM     10  C   UNK     1      37.820 -24.398 -14.410  0.00  0.00    +0.134 C 
BRANCH  10  11
ATOM     11  S   UNK     1      36.485 -25.569 -14.825  0.00  0.00    -0.056 S 
ATOM     12  O   UNK     1      35.536 -24.853 -15.733  0.00  0.00    -0.081 OA
BRANCH  11  13
ATOM     13  O   UNK     1      37.459 -26.464 -15.738  0.00  0.00    -0.278 OA
ATOM     14  H   UNK     1      38.265 -26.674 -15.240  0.00  0.00    +0.242 HD
ENDBRANCH  11  13
ENDBRANCH  10  11
ENDBRANCH   1  10
TORSDOF 6
ENDMDL
MODEL 8
REMARK VINA RESULT:      -5.0      1.736      1.947
REMARK  Name = 1549098
REMARK  6 active torsions:
REMARK  status: ('A' for Active; 'I' for Inactive)
REMARK    1  A    between atoms: C_1  and  N_2
REMARK    2  A    between atoms: C_1  and  C_7
REMARK    3  A    between atoms: C_1  and  C_10
REMARK    4  A    between atoms: C_7  and  O_8
REMARK    5  A    between atoms: C_10  and  S_11
REMARK    6  A    between atoms: S_11  and  O_13
REMARK                            x       y       z     vdW  Elec       q    Type
REMARK                         _______ _______ _______ _____ _____    ______ ____
ROOT
ATOM      1  C   UNK     1      37.212 -25.393 -14.229  0.00  0.00    +0.059 C 
ENDROOT
BRANCH   1   2
ATOM      2  N   UNK     1      36.944 -26.544 -13.364  0.00  0.00    +0.390 N 
ATOM      3  H   UNK     1      36.889 -27.390 -13.930  0.00  0.00    -0.088 HD
ATOM      4  H   UNK     1      36.061 -26.403 -12.874  0.00  0.00    -0.088 HD
ATOM      5  H   UNK     1      37.699 -26.639 -12.683  0.00  0.00    -0.088 HD
ENDBRANCH   1   2
BRANCH   1   7
ATOM      6  O   UNK     1      39.308 -26.576 -14.636  0.00  0.00    -0.253 OA
ATOM      7  C   UNK     1      38.626 -25.566 -14.745  0.00  0.00    +0.295 C 
BRANCH   7   8
ATOM      8  O   UNK     1      39.067 -24.425 -15.333  0.00  0.00    -0.482 OA
ATOM      9  H   UNK     1      38.934 -23.599 -14.911  0.00  0.00    +0.295 HD
ENDBRANCH   7   8
ENDBRANCH   1   7
BRANCH   1  10
ATOM     10  C   UNK     1      37.060 -24.096 -13.438  0.00  0.00    +0.134 C 
BRANCH  10  11
ATOM     11  S   UNK     1      38.116 -24.085 -11.951  0.00  0.00    -0.056 S 
ATOM     12  O   UNK     1      38.416 -22.655 -11.632  0.00  0.00    -0.081 OA
BRANCH  11  13
ATOM     13  O   UNK     1      36.907 -24.558 -11.004  0.00  0.00    -0.278 OA
ATOM     14  H   UNK     1      36.506 -25.362 -11.370  0.00  0.00    +0.242 HD
ENDBRANCH  11  13
ENDBRANCH  10  11
ENDBRANCH   1  10
TORSDOF 6
ENDMDL
MODEL 9
REMARK VINA RESULT:      -4.9      1.962      3.983
REMARK  Name = 1549098
REMARK  6 active torsions:
REMARK  status: ('A' for Active; 'I' for Inactive)
REMARK    1  A    between atoms: C_1  and  N_2
REMARK    2  A    between atoms: C_1  and  C_7
REMARK    3  A    between atoms: C_1  and  C_10
REMARK    4  A    between atoms: C_7  and  O_8
REMARK    5  A    between atoms: C_10  and  S_11
REMARK    6  A    between atoms: S_11  and  O_13
REMARK                            x       y       z     vdW  Elec       q    Type
REMARK                         _______ _______ _______ _____ _____    ______ ____
ROOT
ATOM      1  C   UNK     1      37.373 -24.702 -12.894  0.00  0.00    +0.059 C 
ENDROOT
BRANCH   1   2
ATOM      2  N   UNK     1      37.546 -23.752 -13.995  0.00  0.00    +0.390 N 
ATOM      3  H   UNK     1      36.888 -23.971 -14.741  0.00  0.00    -0.088 HD
ATOM      4  H   UNK     1      38.500 -23.815 -14.351  0.00  0.00    -0.088 HD
ATOM      5  H   UNK     1      37.372 -22.805 -13.656  0.00  0.00    -0.088 HD
ENDBRANCH   1   2
BRANCH   1   7
ATOM      6  O   UNK     1      36.756 -23.986 -10.644  0.00  0.00    -0.253 OA
ATOM      7  C   UNK     1      37.497 -23.902 -11.614  0.00  0.00    +0.295 C 
BRANCH   7   8
ATOM      8  O   UNK     1      38.540 -23.036 -11.686  0.00  0.00    -0.482 OA
ATOM      9  H   UNK     1      39.415 -23.362 -11.756  0.00  0.00    +0.295 HD
ENDBRANCH   7   8
ENDBRANCH   1   7
BRANCH   1  10
ATOM     10  C   UNK     1      38.435 -25.797 -12.974  0.00  0.00    +0.134 C 
BRANCH  10  11
ATOM     11  S   UNK     1      39.663 -25.452 -14.277  0.00  0.00    -0.056 S 
ATOM     12  O   UNK     1      40.823 -26.366 -14.044  0.00  0.00    -0.081 OA
BRANCH  11  13
ATOM     13  O   UNK     1      38.740 -26.108 -15.417  0.00  0.00    -0.278 OA
ATOM     14  H   UNK     1      38.911 -27.062 -15.463  0.00  0.00    +0.242 HD
ENDBRANCH  11  13
ENDBRANCH  10  11
ENDBRANCH   1  10
TORSDOF 6
ENDMDL
