MODEL 1
REMARK VINA RESULT:     -10.7      0.000      0.000
REMARK  Name = 11616886
REMARK  5 active torsions:
REMARK  status: ('A' for Active; 'I' for Inactive)
REMARK    1  A    between atoms: C_4  and  C_21
REMARK    2  A    between atoms: C_7  and  O_12
REMARK    3  A    between atoms: O_12  and  C_13
REMARK    4  A    between atoms: C_13  and  C_15
REMARK    5  A    between atoms: C_21  and  N_22
REMARK                            x       y       z     vdW  Elec       q    Type
REMARK                         _______ _______ _______ _____ _____    ______ ____
ROOT
ATOM      1  O   UNL     1      34.040 -16.252 -24.859  0.00  0.00    -0.421 OA
ATOM      2  O   UNL     1      33.293 -15.353 -26.824  0.00  0.00    -0.244 OA
ATOM      3  C   UNL     1      33.907 -14.925 -22.811  0.00  0.00    +0.029 C 
ATOM      4  C   UNL     1      33.313 -13.830 -23.590  0.00  0.00    -0.034 C 
ATOM      5  C   UNL     1      34.253 -16.104 -23.472  0.00  0.00    +0.151 C 
ATOM      6  C   UNL     1      34.150 -14.858 -21.433  0.00  0.00    +0.006 C 
ATOM      7  C   UNL     1      35.054 -17.106 -21.440  0.00  0.00    +0.142 C 
ATOM      8  C   UNL     1      34.820 -17.193 -22.809  0.00  0.00    +0.074 C 
ATOM      9  C   UNL     1      33.122 -13.997 -24.906  0.00  0.00    +0.076 C 
ATOM     10  C   UNL     1      34.719 -15.941 -20.754  0.00  0.00    +0.037 C 
ATOM     11  C   UNL     1      33.482 -15.235 -25.619  0.00  0.00    +0.346 C 
ENDROOT
BRANCH   7  12
ATOM     12  O   UNL     1      35.607 -18.156 -20.773  0.00  0.00    -0.471 OA
BRANCH  12  13
ATOM     13  C   UNL     1      35.476 -19.445 -21.369  0.00  0.00    +0.232 C 
BRANCH  13  15
ATOM     14 CL   UNL     1      37.067 -22.242 -17.284  0.00  0.00    -0.082 Cl
ATOM     15  C   UNL     1      35.160 -20.449 -20.300  0.00  0.00    +0.022 C 
ATOM     16  C   UNL     1      36.147 -20.830 -19.398  0.00  0.00    +0.011 C 
ATOM     17  C   UNL     1      33.881 -20.989 -20.221  0.00  0.00    -0.001 C 
ATOM     18  C   UNL     1      35.851 -21.763 -18.404  0.00  0.00    +0.057 C 
ATOM     19  C   UNL     1      33.585 -21.922 -19.227  0.00  0.00    +0.001 C 
ATOM     20  C   UNL     1      34.571 -22.309 -18.318  0.00  0.00    +0.011 C 
ENDBRANCH  13  15
ENDBRANCH  12  13
ENDBRANCH   7  12
BRANCH   4  21
ATOM     21  C   UNL     1      32.932 -12.548 -22.908  0.00  0.00    -0.054 C 
BRANCH  21  22
ATOM     22  N   UNL     1      31.610 -12.629 -22.310  0.00  0.00    +0.385 N 
ATOM     23  C   UNL     1      31.199 -11.339 -21.770  0.00  0.00    -0.105 C 
ATOM     24  H   UNL     1      31.627 -13.316 -21.555  0.00  0.00    -0.084 HD
ATOM     25  H   UNL     1      30.944 -12.906 -23.031  0.00  0.00    -0.084 HD
ENDBRANCH  21  22
ENDBRANCH   4  21
TORSDOF 5
ENDMDL
MODEL 2
REMARK VINA RESULT:     -10.3      4.444      8.722
REMARK  Name = 11616886
REMARK  5 active torsions:
REMARK  status: ('A' for Active; 'I' for Inactive)
REMARK    1  A    between atoms: C_4  and  C_21
REMARK    2  A    between atoms: C_7  and  O_12
REMARK    3  A    between atoms: O_12  and  C_13
REMARK    4  A    between atoms: C_13  and  C_15
REMARK    5  A    between atoms: C_21  and  N_22
REMARK                            x       y       z     vdW  Elec       q    Type
REMARK                         _______ _______ _______ _____ _____    ______ ____
ROOT
ATOM      1  O   UNL     1      33.792 -15.333 -24.485  0.00  0.00    -0.421 OA
ATOM      2  O   UNL     1      34.906 -16.796 -25.843  0.00  0.00    -0.244 OA
ATOM      3  C   UNL     1      33.885 -15.642 -22.062  0.00  0.00    +0.029 C 
ATOM      4  C   UNL     1      34.736 -16.821 -22.272  0.00  0.00    -0.034 C 
ATOM      5  C   UNL     1      33.438 -14.934 -23.179  0.00  0.00    +0.151 C 
ATOM      6  C   UNL     1      33.490 -15.181 -20.800  0.00  0.00    +0.006 C 
ATOM      7  C   UNL     1      32.247 -13.361 -21.807  0.00  0.00    +0.142 C 
ATOM      8  C   UNL     1      32.628 -13.803 -23.070  0.00  0.00    +0.074 C 
ATOM      9  C   UNL     1      35.057 -17.178 -23.523  0.00  0.00    +0.076 C 
ATOM     10  C   UNL     1      32.677 -14.048 -20.674  0.00  0.00    +0.037 C 
ATOM     11  C   UNL     1      34.593 -16.441 -24.712  0.00  0.00    +0.346 C 
ENDROOT
BRANCH   7  12
ATOM     12  O   UNL     1      31.456 -12.261 -21.678  0.00  0.00    -0.471 OA
BRANCH  12  13
ATOM     13  C   UNL     1      31.608 -11.487 -20.489  0.00  0.00    +0.232 C 
BRANCH  13  15
ATOM     14 CL   UNL     1      31.317  -7.765 -24.109  0.00  0.00    -0.082 Cl
ATOM     15  C   UNL     1      31.773 -10.043 -20.861  0.00  0.00    +0.022 C 
ATOM     16  C   UNL     1      31.499  -9.630 -22.159  0.00  0.00    +0.011 C 
ATOM     17  C   UNL     1      32.198  -9.131 -19.901  0.00  0.00    -0.001 C 
ATOM     18  C   UNL     1      31.652  -8.287 -22.503  0.00  0.00    +0.057 C 
ATOM     19  C   UNL     1      32.350  -7.788 -20.245  0.00  0.00    +0.001 C 
ATOM     20  C   UNL     1      32.078  -7.365 -21.547  0.00  0.00    +0.011 C 
ENDBRANCH  13  15
ENDBRANCH  12  13
ENDBRANCH   7  12
BRANCH   4  21
ATOM     21  C   UNL     1      35.231 -17.604 -21.092  0.00  0.00    -0.054 C 
BRANCH  21  22
ATOM     22  N   UNL     1      35.126 -19.037 -21.313  0.00  0.00    +0.385 N 
ATOM     23  C   UNL     1      33.794 -19.523 -20.975  0.00  0.00    -0.105 C 
ATOM     24  H   UNL     1      35.813 -19.516 -20.730  0.00  0.00    -0.084 HD
ATOM     25  H   UNL     1      35.300 -19.226 -22.300  0.00  0.00    -0.084 HD
ENDBRANCH  21  22
ENDBRANCH   4  21
TORSDOF 5
ENDMDL
MODEL 3
REMARK VINA RESULT:     -10.2      1.932      2.730
REMARK  Name = 11616886
REMARK  5 active torsions:
REMARK  status: ('A' for Active; 'I' for Inactive)
REMARK    1  A    between atoms: C_4  and  C_21
REMARK    2  A    between atoms: C_7  and  O_12
REMARK    3  A    between atoms: O_12  and  C_13
REMARK    4  A    between atoms: C_13  and  C_15
REMARK    5  A    between atoms: C_21  and  N_22
REMARK                            x       y       z     vdW  Elec       q    Type
REMARK                         _______ _______ _______ _____ _____    ______ ____
ROOT
ATOM      1  O   UNL     1      33.279 -14.626 -21.277  0.00  0.00    -0.421 OA
ATOM      2  O   UNL     1      32.005 -12.756 -21.611  0.00  0.00    -0.244 OA
ATOM      3  C   UNL     1      34.087 -15.882 -23.211  0.00  0.00    +0.029 C 
ATOM      4  C   UNL     1      33.413 -14.915 -24.088  0.00  0.00    -0.034 C 
ATOM      5  C   UNL     1      33.997 -15.706 -21.829  0.00  0.00    +0.151 C 
ATOM      6  C   UNL     1      34.820 -16.980 -23.679  0.00  0.00    +0.006 C 
ATOM      7  C   UNL     1      35.332 -17.661 -21.411  0.00  0.00    +0.142 C 
ATOM      8  C   UNL     1      34.608 -16.577 -20.925  0.00  0.00    +0.074 C 
ATOM      9  C   UNL     1      32.737 -13.898 -23.536  0.00  0.00    +0.076 C 
ATOM     10  C   UNL     1      35.437 -17.862 -22.785  0.00  0.00    +0.037 C 
ATOM     11  C   UNL     1      32.633 -13.699 -22.080  0.00  0.00    +0.346 C 
ENDROOT
BRANCH   7  12
ATOM     12  O   UNL     1      35.934 -18.523 -20.547  0.00  0.00    -0.471 OA
BRANCH  12  13
ATOM     13  C   UNL     1      36.085 -19.874 -20.977  0.00  0.00    +0.232 C 
BRANCH  13  15
ATOM     14 CL   UNL     1      37.172 -22.480 -16.609  0.00  0.00    -0.082 Cl
ATOM     15  C   UNL     1      35.626 -20.791 -19.881  0.00  0.00    +0.022 C 
ATOM     16  C   UNL     1      36.511 -21.162 -18.876  0.00  0.00    +0.011 C 
ATOM     17  C   UNL     1      34.317 -21.260 -19.881  0.00  0.00    -0.001 C 
ATOM     18  C   UNL     1      36.082 -22.013 -17.858  0.00  0.00    +0.057 C 
ATOM     19  C   UNL     1      33.888 -22.111 -18.863  0.00  0.00    +0.001 C 
ATOM     20  C   UNL     1      34.771 -22.489 -17.851  0.00  0.00    +0.011 C 
ENDBRANCH  13  15
ENDBRANCH  12  13
ENDBRANCH   7  12
BRANCH   4  21
ATOM     21  C   UNL     1      33.489 -15.078 -25.578  0.00  0.00    -0.054 C 
BRANCH  21  22
ATOM     22  N   UNL     1      32.525 -14.233 -26.262  0.00  0.00    +0.385 N 
ATOM     23  C   UNL     1      33.188 -13.321 -27.185  0.00  0.00    -0.105 C 
ATOM     24  H   UNL     1      32.008 -13.690 -25.571  0.00  0.00    -0.084 HD
ATOM     25  H   UNL     1      31.891 -14.830 -26.795  0.00  0.00    -0.084 HD
ENDBRANCH  21  22
ENDBRANCH   4  21
TORSDOF 5
ENDMDL
MODEL 4
REMARK VINA RESULT:     -10.2      4.090      8.325
REMARK  Name = 11616886
REMARK  5 active torsions:
REMARK  status: ('A' for Active; 'I' for Inactive)
REMARK    1  A    between atoms: C_4  and  C_21
REMARK    2  A    between atoms: C_7  and  O_12
REMARK    3  A    between atoms: O_12  and  C_13
REMARK    4  A    between atoms: C_13  and  C_15
REMARK    5  A    between atoms: C_21  and  N_22
REMARK                            x       y       z     vdW  Elec       q    Type
REMARK                         _______ _______ _______ _____ _____    ______ ____
ROOT
ATOM      1  O   UNL     1      33.069 -21.252 -19.750  0.00  0.00    -0.421 OA
ATOM      2  O   UNL     1      32.318 -22.806 -18.250  0.00  0.00    -0.244 OA
ATOM      3  C   UNL     1      35.448 -20.697 -19.805  0.00  0.00    +0.029 C 
ATOM      4  C   UNL     1      35.672 -21.661 -18.719  0.00  0.00    -0.034 C 
ATOM      5  C   UNL     1      34.150 -20.523 -20.287  0.00  0.00    +0.151 C 
ATOM      6  C   UNL     1      36.466 -19.936 -20.393  0.00  0.00    +0.006 C 
ATOM      7  C   UNL     1      34.875 -18.882 -21.887  0.00  0.00    +0.142 C 
ATOM      8  C   UNL     1      33.849 -19.630 -21.317  0.00  0.00    +0.074 C 
ATOM      9  C   UNL     1      34.626 -22.340 -18.227  0.00  0.00    +0.076 C 
ATOM     10  C   UNL     1      36.181 -19.035 -21.426  0.00  0.00    +0.037 C 
ATOM     11  C   UNL     1      33.250 -22.167 -18.724  0.00  0.00    +0.346 C 
ENDROOT
BRANCH   7  12
ATOM     12  O   UNL     1      34.604 -18.005 -22.891  0.00  0.00    -0.471 OA
BRANCH  12  13
ATOM     13  C   UNL     1      35.304 -16.763 -22.876  0.00  0.00    +0.232 C 
BRANCH  13  15
ATOM     14 CL   UNL     1      33.070 -12.127 -23.626  0.00  0.00    -0.082 Cl
ATOM     15  C   UNL     1      34.383 -15.687 -22.380  0.00  0.00    +0.022 C 
ATOM     16  C   UNL     1      34.182 -14.545 -23.146  0.00  0.00    +0.011 C 
ATOM     17  C   UNL     1      33.737 -15.844 -21.159  0.00  0.00    -0.001 C 
ATOM     18  C   UNL     1      33.324 -13.546 -22.685  0.00  0.00    +0.057 C 
ATOM     19  C   UNL     1      32.880 -14.846 -20.698  0.00  0.00    +0.001 C 
ATOM     20  C   UNL     1      32.673 -13.696 -21.461  0.00  0.00    +0.011 C 
ENDBRANCH  13  15
ENDBRANCH  12  13
ENDBRANCH   7  12
BRANCH   4  21
ATOM     21  C   UNL     1      37.056 -21.869 -18.179  0.00  0.00    -0.054 C 
BRANCH  21  22
ATOM     22  N   UNL     1      37.194 -21.341 -16.832  0.00  0.00    +0.385 N 
ATOM     23  C   UNL     1      37.430 -22.410 -15.870  0.00  0.00    -0.105 C 
ATOM     24  H   UNL     1      36.338 -20.847 -16.578  0.00  0.00    -0.084 HD
ATOM     25  H   UNL     1      37.992 -20.706 -16.813  0.00  0.00    -0.084 HD
ENDBRANCH  21  22
ENDBRANCH   4  21
TORSDOF 5
ENDMDL
MODEL 5
REMARK VINA RESULT:     -10.2      4.605      9.287
REMARK  Name = 11616886
REMARK  5 active torsions:
REMARK  status: ('A' for Active; 'I' for Inactive)
REMARK    1  A    between atoms: C_4  and  C_21
REMARK    2  A    between atoms: C_7  and  O_12
REMARK    3  A    between atoms: O_12  and  C_13
REMARK    4  A    between atoms: C_13  and  C_15
REMARK    5  A    between atoms: C_21  and  N_22
REMARK                            x       y       z     vdW  Elec       q    Type
REMARK                         _______ _______ _______ _____ _____    ______ ____
ROOT
ATOM      1  O   UNL     1      32.704 -22.446 -18.240  0.00  0.00    -0.421 OA
ATOM      2  O   UNL     1      31.461 -23.577 -16.690  0.00  0.00    -0.244 OA
ATOM      3  C   UNL     1      35.113 -22.212 -17.901  0.00  0.00    +0.029 C 
ATOM      4  C   UNL     1      34.983 -22.969 -16.648  0.00  0.00    -0.034 C 
ATOM      5  C   UNL     1      33.965 -21.973 -18.658  0.00  0.00    +0.151 C 
ATOM      6  C   UNL     1      36.327 -21.710 -18.386  0.00  0.00    +0.006 C 
ATOM      7  C   UNL     1      35.215 -20.774 -20.325  0.00  0.00    +0.142 C 
ATOM      8  C   UNL     1      33.998 -21.264 -19.860  0.00  0.00    +0.074 C 
ATOM      9  C   UNL     1      33.773 -23.406 -16.275  0.00  0.00    +0.076 C 
ATOM     10  C   UNL     1      36.377 -20.996 -19.589  0.00  0.00    +0.037 C 
ATOM     11  C   UNL     1      32.552 -23.162 -17.063  0.00  0.00    +0.346 C 
ENDROOT
BRANCH   7  12
ATOM     12  O   UNL     1      35.270 -20.079 -21.493  0.00  0.00    -0.471 OA
BRANCH  12  13
ATOM     13  C   UNL     1      35.783 -18.749 -21.435  0.00  0.00    +0.232 C 
BRANCH  13  15
ATOM     14 CL   UNL     1      34.276 -14.211 -23.478  0.00  0.00    -0.082 Cl
ATOM     15  C   UNL     1      35.284 -17.979 -22.622  0.00  0.00    +0.022 C 
ATOM     16  C   UNL     1      35.043 -16.615 -22.507  0.00  0.00    +0.011 C 
ATOM     17  C   UNL     1      35.069 -18.637 -23.828  0.00  0.00    -0.001 C 
ATOM     18  C   UNL     1      34.579 -15.900 -23.611  0.00  0.00    +0.057 C 
ATOM     19  C   UNL     1      34.606 -17.923 -24.932  0.00  0.00    +0.001 C 
ATOM     20  C   UNL     1      34.361 -16.553 -24.824  0.00  0.00    +0.011 C 
ENDBRANCH  13  15
ENDBRANCH  12  13
ENDBRANCH   7  12
BRANCH   4  21
ATOM     21  C   UNL     1      36.198 -23.241 -15.811  0.00  0.00    -0.054 C 
BRANCH  21  22
ATOM     22  N   UNL     1      35.913 -24.175 -14.734  0.00  0.00    +0.385 N 
ATOM     23  C   UNL     1      36.650 -25.419 -14.909  0.00  0.00    -0.105 C 
ATOM     24  H   UNL     1      34.913 -24.378 -14.726  0.00  0.00    -0.084 HD
ATOM     25  H   UNL     1      36.198 -23.749 -13.851  0.00  0.00    -0.084 HD
ENDBRANCH  21  22
ENDBRANCH   4  21
TORSDOF 5
ENDMDL
MODEL 6
REMARK VINA RESULT:     -10.1      1.782      2.318
REMARK  Name = 11616886
REMARK  5 active torsions:
REMARK  status: ('A' for Active; 'I' for Inactive)
REMARK    1  A    between atoms: C_4  and  C_21
REMARK    2  A    between atoms: C_7  and  O_12
REMARK    3  A    between atoms: O_12  and  C_13
REMARK    4  A    between atoms: C_13  and  C_15
REMARK    5  A    between atoms: C_21  and  N_22
REMARK                            x       y       z     vdW  Elec       q    Type
REMARK                         _______ _______ _______ _____ _____    ______ ____
ROOT
ATOM      1  O   UNL     1      34.173 -13.141 -23.915  0.00  0.00    -0.421 OA
ATOM      2  O   UNL     1      33.777 -11.255 -25.145  0.00  0.00    -0.244 OA
ATOM      3  C   UNL     1      32.910 -13.514 -21.856  0.00  0.00    +0.029 C 
ATOM      4  C   UNL     1      32.205 -12.246 -22.090  0.00  0.00    -0.034 C 
ATOM      5  C   UNL     1      33.875 -13.922 -22.779  0.00  0.00    +0.151 C 
ATOM      6  C   UNL     1      32.671 -14.346 -20.755  0.00  0.00    +0.006 C 
ATOM      7  C   UNL     1      34.338 -15.924 -21.533  0.00  0.00    +0.142 C 
ATOM      8  C   UNL     1      34.589 -15.112 -22.634  0.00  0.00    +0.074 C 
ATOM      9  C   UNL     1      32.509 -11.524 -23.178  0.00  0.00    +0.076 C 
ATOM     10  C   UNL     1      33.380 -15.542 -20.595  0.00  0.00    +0.037 C 
ATOM     11  C   UNL     1      33.525 -11.941 -24.161  0.00  0.00    +0.346 C 
ENDROOT
BRANCH   7  12
ATOM     12  O   UNL     1      35.023 -17.088 -21.371  0.00  0.00    -0.471 OA
BRANCH  12  13
ATOM     13  C   UNL     1      34.560 -18.222 -22.103  0.00  0.00    +0.232 C 
BRANCH  13  15
ATOM     14 CL   UNL     1      36.685 -21.774 -18.954  0.00  0.00    -0.082 Cl
ATOM     15  C   UNL     1      34.377 -19.373 -21.158  0.00  0.00    +0.022 C 
ATOM     16  C   UNL     1      35.488 -19.964 -20.568  0.00  0.00    +0.011 C 
ATOM     17  C   UNL     1      33.096 -19.837 -20.880  0.00  0.00    -0.001 C 
ATOM     18  C   UNL     1      35.316 -21.034 -19.689  0.00  0.00    +0.057 C 
ATOM     19  C   UNL     1      32.924 -20.906 -20.001  0.00  0.00    +0.001 C 
ATOM     20  C   UNL     1      34.034 -21.505 -19.405  0.00  0.00    +0.011 C 
ENDBRANCH  13  15
ENDBRANCH  12  13
ENDBRANCH   7  12
BRANCH   4  21
ATOM     21  C   UNL     1      31.164 -11.779 -21.116  0.00  0.00    -0.054 C 
BRANCH  21  22
ATOM     22  N   UNL     1      31.447 -10.441 -20.624  0.00  0.00    +0.385 N 
ATOM     23  C   UNL     1      31.717 -10.454 -19.193  0.00  0.00    -0.105 C 
ATOM     24  H   UNL     1      30.641  -9.842 -20.806  0.00  0.00    -0.084 HD
ATOM     25  H   UNL     1      32.272 -10.086 -21.108  0.00  0.00    -0.084 HD
ENDBRANCH  21  22
ENDBRANCH   4  21
TORSDOF 5
ENDMDL
MODEL 7
REMARK VINA RESULT:     -10.1      4.481      9.298
REMARK  Name = 11616886
REMARK  5 active torsions:
REMARK  status: ('A' for Active; 'I' for Inactive)
REMARK    1  A    between atoms: C_4  and  C_21
REMARK    2  A    between atoms: C_7  and  O_12
REMARK    3  A    between atoms: O_12  and  C_13
REMARK    4  A    between atoms: C_13  and  C_15
REMARK    5  A    between atoms: C_21  and  N_22
REMARK                            x       y       z     vdW  Elec       q    Type
REMARK                         _______ _______ _______ _____ _____    ______ ____
ROOT
ATOM      1  O   UNL     1      37.197 -22.113 -17.298  0.00  0.00    -0.421 OA
ATOM      2  O   UNL     1      38.072 -23.006 -15.384  0.00  0.00    -0.244 OA
ATOM      3  C   UNL     1      34.801 -22.322 -17.728  0.00  0.00    +0.029 C 
ATOM      4  C   UNL     1      34.663 -23.048 -16.458  0.00  0.00    -0.034 C 
ATOM      5  C   UNL     1      36.067 -21.877 -18.109  0.00  0.00    +0.151 C 
ATOM      6  C   UNL     1      33.730 -22.047 -18.588  0.00  0.00    +0.006 C 
ATOM      7  C   UNL     1      35.210 -20.916 -20.139  0.00  0.00    +0.142 C 
ATOM      8  C   UNL     1      36.287 -21.179 -19.298  0.00  0.00    +0.074 C 
ATOM      9  C   UNL     1      35.753 -23.258 -15.708  0.00  0.00    +0.076 C 
ATOM     10  C   UNL     1      33.934 -21.350 -19.784  0.00  0.00    +0.037 C 
ATOM     11  C   UNL     1      37.097 -22.795 -16.096  0.00  0.00    +0.346 C 
ENDROOT
BRANCH   7  12
ATOM     12  O   UNL     1      35.402 -20.239 -21.303  0.00  0.00    -0.471 OA
BRANCH  12  13
ATOM     13  C   UNL     1      35.747 -18.858 -21.202  0.00  0.00    +0.232 C 
BRANCH  13  15
ATOM     14 CL   UNL     1      34.361 -14.409 -23.510  0.00  0.00    -0.082 Cl
ATOM     15  C   UNL     1      35.279 -18.144 -22.435  0.00  0.00    +0.022 C 
ATOM     16  C   UNL     1      35.065 -16.772 -22.398  0.00  0.00    +0.011 C 
ATOM     17  C   UNL     1      35.065 -18.863 -23.606  0.00  0.00    -0.001 C 
ATOM     18  C   UNL     1      34.630 -16.109 -23.546  0.00  0.00    +0.057 C 
ATOM     19  C   UNL     1      34.631 -18.201 -24.754  0.00  0.00    +0.001 C 
ATOM     20  C   UNL     1      34.413 -16.823 -24.724  0.00  0.00    +0.011 C 
ENDBRANCH  13  15
ENDBRANCH  12  13
ENDBRANCH   7  12
BRANCH   4  21
ATOM     21  C   UNL     1      33.314 -23.541 -16.022  0.00  0.00    -0.054 C 
BRANCH  21  22
ATOM     22  N   UNL     1      33.026 -23.174 -14.646  0.00  0.00    +0.385 N 
ATOM     23  C   UNL     1      32.474 -24.302 -13.906  0.00  0.00    -0.105 C 
ATOM     24  H   UNL     1      32.350 -22.409 -14.640  0.00  0.00    -0.084 HD
ATOM     25  H   UNL     1      33.896 -22.886 -14.197  0.00  0.00    -0.084 HD
ENDBRANCH  21  22
ENDBRANCH   4  21
TORSDOF 5
ENDMDL
MODEL 8
REMARK VINA RESULT:     -10.0      6.707     11.783
REMARK  Name = 11616886
REMARK  5 active torsions:
REMARK  status: ('A' for Active; 'I' for Inactive)
REMARK    1  A    between atoms: C_4  and  C_21
REMARK    2  A    between atoms: C_7  and  O_12
REMARK    3  A    between atoms: O_12  and  C_13
REMARK    4  A    between atoms: C_13  and  C_15
REMARK    5  A    between atoms: C_21  and  N_22
REMARK                            x       y       z     vdW  Elec       q    Type
REMARK                         _______ _______ _______ _____ _____    ______ ____
ROOT
ATOM      1  O   UNL     1      34.749 -24.261 -12.337  0.00  0.00    -0.421 OA
ATOM      2  O   UNL     1      35.170 -24.992 -10.212  0.00  0.00    -0.244 OA
ATOM      3  C   UNL     1      36.606 -24.016 -13.907  0.00  0.00    +0.029 C 
ATOM      4  C   UNL     1      37.522 -24.474 -12.854  0.00  0.00    -0.034 C 
ATOM      5  C   UNL     1      35.244 -23.922 -13.614  0.00  0.00    +0.151 C 
ATOM      6  C   UNL     1      37.017 -23.662 -15.198  0.00  0.00    +0.006 C 
ATOM      7  C   UNL     1      34.735 -23.150 -15.832  0.00  0.00    +0.142 C 
ATOM      8  C   UNL     1      34.305 -23.497 -14.555  0.00  0.00    +0.074 C 
ATOM      9  C   UNL     1      37.024 -24.789 -11.651  0.00  0.00    +0.076 C 
ATOM     10  C   UNL     1      36.088 -23.233 -16.153  0.00  0.00    +0.037 C 
ATOM     11  C   UNL     1      35.590 -24.696 -11.325  0.00  0.00    +0.346 C 
ENDROOT
BRANCH   7  12
ATOM     12  O   UNL     1      33.836 -22.732 -16.765  0.00  0.00    -0.471 OA
BRANCH  12  13
ATOM     13  C   UNL     1      34.030 -23.188 -18.103  0.00  0.00    +0.232 C 
BRANCH  13  15
ATOM     14 CL   UNL     1      37.017 -19.760 -20.627  0.00  0.00    -0.082 Cl
ATOM     15  C   UNL     1      34.131 -22.000 -19.015  0.00  0.00    +0.022 C 
ATOM     16  C   UNL     1      35.381 -21.496 -19.354  0.00  0.00    +0.011 C 
ATOM     17  C   UNL     1      32.972 -21.416 -19.514  0.00  0.00    -0.001 C 
ATOM     18  C   UNL     1      35.473 -20.393 -20.203  0.00  0.00    +0.057 C 
ATOM     19  C   UNL     1      33.064 -20.314 -20.363  0.00  0.00    +0.001 C 
ATOM     20  C   UNL     1      34.315 -19.801 -20.707  0.00  0.00    +0.011 C 
ENDBRANCH  13  15
ENDBRANCH  12  13
ENDBRANCH   7  12
BRANCH   4  21
ATOM     21  C   UNL     1      38.991 -24.584 -13.138  0.00  0.00    -0.054 C 
BRANCH  21  22
ATOM     22  N   UNL     1      39.354 -25.913 -13.600  0.00  0.00    +0.385 N 
ATOM     23  C   UNL     1      40.159 -25.846 -14.812  0.00  0.00    -0.105 C 
ATOM     24  H   UNL     1      38.503 -26.442 -13.794  0.00  0.00    -0.084 HD
ATOM     25  H   UNL     1      39.901 -26.372 -12.871  0.00  0.00    -0.084 HD
ENDBRANCH  21  22
ENDBRANCH   4  21
TORSDOF 5
ENDMDL
MODEL 9
REMARK VINA RESULT:     -10.0      2.635      3.473
REMARK  Name = 11616886
REMARK  5 active torsions:
REMARK  status: ('A' for Active; 'I' for Inactive)
REMARK    1  A    between atoms: C_4  and  C_21
REMARK    2  A    between atoms: C_7  and  O_12
REMARK    3  A    between atoms: O_12  and  C_13
REMARK    4  A    between atoms: C_13  and  C_15
REMARK    5  A    between atoms: C_21  and  N_22
REMARK                            x       y       z     vdW  Elec       q    Type
REMARK                         _______ _______ _______ _____ _____    ______ ____
ROOT
ATOM      1  O   UNL     1      31.840 -13.095 -20.981  0.00  0.00    -0.421 OA
ATOM      2  O   UNL     1      30.839 -11.039 -20.971  0.00  0.00    -0.244 OA
ATOM      3  C   UNL     1      33.410 -13.650 -22.769  0.00  0.00    +0.029 C 
ATOM      4  C   UNL     1      33.186 -12.317 -23.345  0.00  0.00    -0.034 C 
ATOM      5  C   UNL     1      32.727 -13.998 -21.603  0.00  0.00    +0.151 C 
ATOM      6  C   UNL     1      34.274 -14.603 -23.324  0.00  0.00    +0.006 C 
ATOM      7  C   UNL     1      33.746 -16.174 -21.556  0.00  0.00    +0.142 C 
ATOM      8  C   UNL     1      32.883 -15.242 -20.989  0.00  0.00    +0.074 C 
ATOM      9  C   UNL     1      32.336 -11.480 -22.734  0.00  0.00    +0.076 C 
ATOM     10  C   UNL     1      34.440 -15.855 -22.721  0.00  0.00    +0.037 C 
ATOM     11  C   UNL     1      31.608 -11.831 -21.502  0.00  0.00    +0.346 C 
ENDROOT
BRANCH   7  12
ATOM     12  O   UNL     1      33.912 -17.393 -20.975  0.00  0.00    -0.471 OA
BRANCH  12  13
ATOM     13  C   UNL     1      34.464 -18.430 -21.785  0.00  0.00    +0.232 C 
BRANCH  13  15
ATOM     14 CL   UNL     1      33.261 -22.420 -18.675  0.00  0.00    -0.082 Cl
ATOM     15  C   UNL     1      34.923 -19.551 -20.900  0.00  0.00    +0.022 C 
ATOM     16  C   UNL     1      33.986 -20.364 -20.276  0.00  0.00    +0.011 C 
ATOM     17  C   UNL     1      36.285 -19.767 -20.715  0.00  0.00    -0.001 C 
ATOM     18  C   UNL     1      34.415 -21.408 -19.454  0.00  0.00    +0.057 C 
ATOM     19  C   UNL     1      36.713 -20.810 -19.895  0.00  0.00    +0.001 C 
ATOM     20  C   UNL     1      35.778 -21.631 -19.263  0.00  0.00    +0.011 C 
ENDBRANCH  13  15
ENDBRANCH  12  13
ENDBRANCH   7  12
BRANCH   4  21
ATOM     21  C   UNL     1      33.904 -11.915 -24.600  0.00  0.00    -0.054 C 
BRANCH  21  22
ATOM     22  N   UNL     1      34.696 -10.712 -24.405  0.00  0.00    +0.385 N 
ATOM     23  C   UNL     1      35.378 -10.328 -25.634  0.00  0.00    -0.105 C 
ATOM     24  H   UNL     1      35.391 -10.885 -23.678  0.00  0.00    -0.084 HD
ATOM     25  H   UNL     1      34.072  -9.954 -24.129  0.00  0.00    -0.084 HD
ENDBRANCH  21  22
ENDBRANCH   4  21
TORSDOF 5
ENDMDL
