MODEL 1
REMARK VINA RESULT:      -5.4      0.000      0.000
REMARK  Name = 3039
REMARK  4 active torsions:
REMARK  status: ('A' for Active; 'I' for Inactive)
REMARK    1  A    between atoms: P_1  and  O_3
REMARK    2  A    between atoms: P_1  and  O_5
REMARK    3  A    between atoms: P_1  and  O_7
REMARK    4  A    between atoms: O_7  and  C_10
REMARK                            x       y       z     vdW  Elec       q    Type
REMARK                         _______ _______ _______ _____ _____    ______ ____
ROOT
ATOM      1  P   UNL     1      34.316 -16.007 -21.507  0.00  0.00    +0.535 P 
ATOM      2  O   UNL     1      34.896 -15.421 -20.252  0.00  0.00    -0.215 OA
ENDROOT
BRANCH   1   3
ATOM      3  O   UNL     1      35.261 -15.899 -22.818  0.00  0.00    -0.261 OA
ATOM      4  C   UNL     1      34.697 -16.197 -24.084  0.00  0.00    +0.187 C 
ENDBRANCH   1   3
BRANCH   1   5
ATOM      5  O   UNL     1      32.923 -15.341 -22.000  0.00  0.00    -0.261 OA
ATOM      6  C   UNL     1      32.598 -14.040 -21.540  0.00  0.00    +0.187 C 
ENDBRANCH   1   5
BRANCH   1   7
ATOM      7  O   UNL     1      33.967 -17.587 -21.432  0.00  0.00    -0.398 OA
BRANCH   7  10
ATOM      8 CL   UNL     1      35.823 -20.924 -20.352  0.00  0.00    -0.066 Cl
ATOM      9 CL   UNL     1      32.955 -20.205 -20.398  0.00  0.00    -0.066 Cl
ATOM     10  C   UNL     1      34.889 -18.538 -21.153  0.00  0.00    +0.206 C 
ATOM     11  C   UNL     1      34.597 -19.754 -20.686  0.00  0.00    +0.152 C 
ENDBRANCH   7  10
ENDBRANCH   1   7
TORSDOF 4
ENDMDL
MODEL 2
REMARK VINA RESULT:      -5.3     10.496     11.674
REMARK  Name = 3039
REMARK  4 active torsions:
REMARK  status: ('A' for Active; 'I' for Inactive)
REMARK    1  A    between atoms: P_1  and  O_3
REMARK    2  A    between atoms: P_1  and  O_5
REMARK    3  A    between atoms: P_1  and  O_7
REMARK    4  A    between atoms: O_7  and  C_10
REMARK                            x       y       z     vdW  Elec       q    Type
REMARK                         _______ _______ _______ _____ _____    ______ ____
ROOT
ATOM      1  P   UNL     1      37.985 -25.494 -13.090  0.00  0.00    +0.535 P 
ATOM      2  O   UNL     1      37.155 -26.181 -12.044  0.00  0.00    -0.215 OA
ENDROOT
BRANCH   1   3
ATOM      3  O   UNL     1      39.454 -26.135 -13.333  0.00  0.00    -0.261 OA
ATOM      4  C   UNL     1      40.245 -25.627 -14.393  0.00  0.00    +0.187 C 
ENDBRANCH   1   3
BRANCH   1   5
ATOM      5  O   UNL     1      38.307 -23.933 -12.800  0.00  0.00    -0.261 OA
ATOM      6  C   UNL     1      37.511 -23.245 -11.850  0.00  0.00    +0.187 C 
ENDBRANCH   1   5
BRANCH   1   7
ATOM      7  O   UNL     1      37.341 -25.472 -14.576  0.00  0.00    -0.398 OA
BRANCH   7  10
ATOM      8 CL   UNL     1      34.462 -23.034 -15.805  0.00  0.00    -0.066 Cl
ATOM      9 CL   UNL     1      37.407 -22.821 -15.958  0.00  0.00    -0.066 Cl
ATOM     10  C   UNL     1      36.150 -24.895 -14.859  0.00  0.00    +0.206 C 
ATOM     11  C   UNL     1      36.012 -23.716 -15.471  0.00  0.00    +0.152 C 
ENDBRANCH   7  10
ENDBRANCH   1   7
TORSDOF 4
ENDMDL
MODEL 3
REMARK VINA RESULT:      -5.3     11.305     12.195
REMARK  Name = 3039
REMARK  4 active torsions:
REMARK  status: ('A' for Active; 'I' for Inactive)
REMARK    1  A    between atoms: P_1  and  O_3
REMARK    2  A    between atoms: P_1  and  O_5
REMARK    3  A    between atoms: P_1  and  O_7
REMARK    4  A    between atoms: O_7  and  C_10
REMARK                            x       y       z     vdW  Elec       q    Type
REMARK                         _______ _______ _______ _____ _____    ______ ____
ROOT
ATOM      1  P   UNL     1      35.709 -24.540 -11.515  0.00  0.00    +0.535 P 
ATOM      2  O   UNL     1      35.599 -24.375 -10.026  0.00  0.00    -0.215 OA
ENDROOT
BRANCH   1   3
ATOM      3  O   UNL     1      36.470 -23.336 -12.287  0.00  0.00    -0.261 OA
ATOM      4  C   UNL     1      37.482 -22.624 -11.595  0.00  0.00    +0.187 C 
ENDBRANCH   1   3
BRANCH   1   5
ATOM      5  O   UNL     1      34.297 -24.650 -12.303  0.00  0.00    -0.261 OA
ATOM      6  C   UNL     1      34.218 -24.130 -13.619  0.00  0.00    +0.187 C 
ENDBRANCH   1   5
BRANCH   1   7
ATOM      7  O   UNL     1      36.512 -25.859 -12.004  0.00  0.00    -0.398 OA
BRANCH   7  10
ATOM      8 CL   UNL     1      39.592 -25.975 -14.503  0.00  0.00    -0.066 Cl
ATOM      9 CL   UNL     1      36.706 -26.452 -14.929  0.00  0.00    -0.066 Cl
ATOM     10  C   UNL     1      37.744 -25.812 -12.563  0.00  0.00    +0.206 C 
ATOM     11  C   UNL     1      37.995 -26.052 -13.852  0.00  0.00    +0.152 C 
ENDBRANCH   7  10
ENDBRANCH   1   7
TORSDOF 4
ENDMDL
MODEL 4
REMARK VINA RESULT:      -5.2     10.054     11.581
REMARK  Name = 3039
REMARK  4 active torsions:
REMARK  status: ('A' for Active; 'I' for Inactive)
REMARK    1  A    between atoms: P_1  and  O_3
REMARK    2  A    between atoms: P_1  and  O_5
REMARK    3  A    between atoms: P_1  and  O_7
REMARK    4  A    between atoms: O_7  and  C_10
REMARK                            x       y       z     vdW  Elec       q    Type
REMARK                         _______ _______ _______ _____ _____    ______ ____
ROOT
ATOM      1  P   UNL     1      38.022 -25.516 -13.317  0.00  0.00    +0.535 P 
ATOM      2  O   UNL     1      37.764 -25.816 -11.868  0.00  0.00    -0.215 OA
ENDROOT
BRANCH   1   3
ATOM      3  O   UNL     1      37.945 -26.795 -14.309  0.00  0.00    -0.261 OA
ATOM      4  C   UNL     1      36.843 -26.897 -15.194  0.00  0.00    +0.187 C 
ENDBRANCH   1   3
BRANCH   1   5
ATOM      5  O   UNL     1      39.478 -24.883 -13.642  0.00  0.00    -0.261 OA
ATOM      6  C   UNL     1      40.385 -25.645 -14.421  0.00  0.00    +0.187 C 
ENDBRANCH   1   5
BRANCH   1   7
ATOM      7  O   UNL     1      36.997 -24.460 -13.994  0.00  0.00    -0.398 OA
BRANCH   7  10
ATOM      8 CL   UNL     1      37.207 -21.534 -16.666  0.00  0.00    -0.066 Cl
ATOM      9 CL   UNL     1      35.005 -23.369 -15.940  0.00  0.00    -0.066 Cl
ATOM     10  C   UNL     1      37.401 -23.434 -14.779  0.00  0.00    +0.206 C 
ATOM     11  C   UNL     1      36.631 -22.840 -15.695  0.00  0.00    +0.152 C 
ENDBRANCH   7  10
ENDBRANCH   1   7
TORSDOF 4
ENDMDL
MODEL 5
REMARK VINA RESULT:      -5.2      9.826     11.408
REMARK  Name = 3039
REMARK  4 active torsions:
REMARK  status: ('A' for Active; 'I' for Inactive)
REMARK    1  A    between atoms: P_1  and  O_3
REMARK    2  A    between atoms: P_1  and  O_5
REMARK    3  A    between atoms: P_1  and  O_7
REMARK    4  A    between atoms: O_7  and  C_10
REMARK                            x       y       z     vdW  Elec       q    Type
REMARK                         _______ _______ _______ _____ _____    ______ ____
ROOT
ATOM      1  P   UNL     1      37.584 -25.964 -14.582  0.00  0.00    +0.535 P 
ATOM      2  O   UNL     1      36.634 -26.396 -15.663  0.00  0.00    -0.215 OA
ENDROOT
BRANCH   1   3
ATOM      3  O   UNL     1      39.079 -26.578 -14.695  0.00  0.00    -0.261 OA
ATOM      4  C   UNL     1      40.156 -25.838 -14.145  0.00  0.00    +0.187 C 
ENDBRANCH   1   3
BRANCH   1   5
ATOM      5  O   UNL     1      37.137 -26.353 -13.074  0.00  0.00    -0.261 OA
ATOM      6  C   UNL     1      36.726 -25.312 -12.203  0.00  0.00    +0.187 C 
ENDBRANCH   1   5
BRANCH   1   7
ATOM      7  O   UNL     1      37.845 -24.367 -14.494  0.00  0.00    -0.398 OA
BRANCH   7  10
ATOM      8 CL   UNL     1      36.790 -21.795 -17.325  0.00  0.00    -0.066 Cl
ATOM      9 CL   UNL     1      35.302 -22.880 -15.012  0.00  0.00    -0.066 Cl
ATOM     10  C   UNL     1      37.818 -23.550 -15.572  0.00  0.00    +0.206 C 
ATOM     11  C   UNL     1      36.760 -22.821 -15.937  0.00  0.00    +0.152 C 
ENDBRANCH   7  10
ENDBRANCH   1   7
TORSDOF 4
ENDMDL
MODEL 6
REMARK VINA RESULT:      -5.2      2.583      3.288
REMARK  Name = 3039
REMARK  4 active torsions:
REMARK  status: ('A' for Active; 'I' for Inactive)
REMARK    1  A    between atoms: P_1  and  O_3
REMARK    2  A    between atoms: P_1  and  O_5
REMARK    3  A    between atoms: P_1  and  O_7
REMARK    4  A    between atoms: O_7  and  C_10
REMARK                            x       y       z     vdW  Elec       q    Type
REMARK                         _______ _______ _______ _____ _____    ______ ____
ROOT
ATOM      1  P   UNL     1      35.855 -18.602 -21.403  0.00  0.00    +0.535 P 
ATOM      2  O   UNL     1      37.117 -18.408 -22.194  0.00  0.00    -0.215 OA
ENDROOT
BRANCH   1   3
ATOM      3  O   UNL     1      34.563 -19.056 -22.270  0.00  0.00    -0.261 OA
ATOM      4  C   UNL     1      34.709 -19.207 -23.671  0.00  0.00    +0.187 C 
ENDBRANCH   1   3
BRANCH   1   5
ATOM      5  O   UNL     1      35.327 -17.291 -20.612  0.00  0.00    -0.261 OA
ATOM      6  C   UNL     1      34.689 -16.266 -21.355  0.00  0.00    +0.187 C 
ENDBRANCH   1   5
BRANCH   1   7
ATOM      7  O   UNL     1      35.937 -19.730 -20.243  0.00  0.00    -0.398 OA
BRANCH   7  10
ATOM      8 CL   UNL     1      33.887 -22.914 -19.056  0.00  0.00    -0.066 Cl
ATOM      9 CL   UNL     1      36.471 -21.798 -18.149  0.00  0.00    -0.066 Cl
ATOM     10  C   UNL     1      35.012 -20.706 -20.091  0.00  0.00    +0.206 C 
ATOM     11  C   UNL     1      35.105 -21.698 -19.202  0.00  0.00    +0.152 C 
ENDBRANCH   7  10
ENDBRANCH   1   7
TORSDOF 4
ENDMDL
MODEL 7
REMARK VINA RESULT:      -5.2      3.423      4.745
REMARK  Name = 3039
REMARK  4 active torsions:
REMARK  status: ('A' for Active; 'I' for Inactive)
REMARK    1  A    between atoms: P_1  and  O_3
REMARK    2  A    between atoms: P_1  and  O_5
REMARK    3  A    between atoms: P_1  and  O_7
REMARK    4  A    between atoms: O_7  and  C_10
REMARK                            x       y       z     vdW  Elec       q    Type
REMARK                         _______ _______ _______ _____ _____    ______ ____
ROOT
ATOM      1  P   UNL     1      35.129 -18.737 -21.359  0.00  0.00    +0.535 P 
ATOM      2  O   UNL     1      36.089 -19.401 -20.414  0.00  0.00    -0.215 OA
ENDROOT
BRANCH   1   3
ATOM      3  O   UNL     1      33.563 -18.897 -20.975  0.00  0.00    -0.261 OA
ATOM      4  C   UNL     1      33.092 -20.174 -20.581  0.00  0.00    +0.187 C 
ENDBRANCH   1   3
BRANCH   1   5
ATOM      5  O   UNL     1      35.190 -19.267 -22.889  0.00  0.00    -0.261 OA
ATOM      6  C   UNL     1      34.875 -18.358 -23.931  0.00  0.00    +0.187 C 
ENDBRANCH   1   5
BRANCH   1   7
ATOM      7  O   UNL     1      35.312 -17.135 -21.513  0.00  0.00    -0.398 OA
BRANCH   7  10
ATOM      8 CL   UNL     1      32.952 -14.030 -20.781  0.00  0.00    -0.066 Cl
ATOM      9 CL   UNL     1      34.503 -14.788 -23.181  0.00  0.00    -0.066 Cl
ATOM     10  C   UNL     1      34.473 -16.236 -20.947  0.00  0.00    +0.206 C 
ATOM     11  C   UNL     1      34.022 -15.138 -21.560  0.00  0.00    +0.152 C 
ENDBRANCH   7  10
ENDBRANCH   1   7
TORSDOF 4
ENDMDL
MODEL 8
REMARK VINA RESULT:      -5.2      2.944      4.216
REMARK  Name = 3039
REMARK  4 active torsions:
REMARK  status: ('A' for Active; 'I' for Inactive)
REMARK    1  A    between atoms: P_1  and  O_3
REMARK    2  A    between atoms: P_1  and  O_5
REMARK    3  A    between atoms: P_1  and  O_7
REMARK    4  A    between atoms: O_7  and  C_10
REMARK                            x       y       z     vdW  Elec       q    Type
REMARK                         _______ _______ _______ _____ _____    ______ ____
ROOT
ATOM      1  P   UNL     1      35.009 -17.571 -21.286  0.00  0.00    +0.535 P 
ATOM      2  O   UNL     1      33.609 -18.105 -21.396  0.00  0.00    -0.215 OA
ENDROOT
BRANCH   1   3
ATOM      3  O   UNL     1      36.106 -18.626 -20.732  0.00  0.00    -0.261 OA
ATOM      4  C   UNL     1      35.738 -19.991 -20.628  0.00  0.00    +0.187 C 
ENDBRANCH   1   3
BRANCH   1   5
ATOM      5  O   UNL     1      35.187 -16.300 -20.297  0.00  0.00    -0.261 OA
ATOM      6  C   UNL     1      34.303 -15.201 -20.445  0.00  0.00    +0.187 C 
ENDBRANCH   1   5
BRANCH   1   7
ATOM      7  O   UNL     1      35.660 -17.055 -22.676  0.00  0.00    -0.398 OA
BRANCH   7  10
ATOM      8 CL   UNL     1      33.544 -15.760 -25.774  0.00  0.00    -0.066 Cl
ATOM      9 CL   UNL     1      34.440 -18.472 -25.011  0.00  0.00    -0.066 Cl
ATOM     10  C   UNL     1      34.987 -16.298 -23.574  0.00  0.00    +0.206 C 
ATOM     11  C   UNL     1      34.388 -16.781 -24.666  0.00  0.00    +0.152 C 
ENDBRANCH   7  10
ENDBRANCH   1   7
TORSDOF 4
ENDMDL
MODEL 9
REMARK VINA RESULT:      -5.2      2.949      4.545
REMARK  Name = 3039
REMARK  4 active torsions:
REMARK  status: ('A' for Active; 'I' for Inactive)
REMARK    1  A    between atoms: P_1  and  O_3
REMARK    2  A    between atoms: P_1  and  O_5
REMARK    3  A    between atoms: P_1  and  O_7
REMARK    4  A    between atoms: O_7  and  C_10
REMARK                            x       y       z     vdW  Elec       q    Type
REMARK                         _______ _______ _______ _____ _____    ______ ____
ROOT
ATOM      1  P   UNL     1      34.237 -15.597 -21.407  0.00  0.00    +0.535 P 
ATOM      2  O   UNL     1      34.998 -15.027 -20.243  0.00  0.00    -0.215 OA
ENDROOT
BRANCH   1   3
ATOM      3  O   UNL     1      32.719 -15.056 -21.567  0.00  0.00    -0.261 OA
ATOM      4  C   UNL     1      32.398 -13.778 -21.045  0.00  0.00    +0.187 C 
ENDBRANCH   1   3
BRANCH   1   5
ATOM      5  O   UNL     1      34.057 -17.207 -21.391  0.00  0.00    -0.261 OA
ATOM      6  C   UNL     1      35.217 -18.015 -21.285  0.00  0.00    +0.187 C 
ENDBRANCH   1   5
BRANCH   1   7
ATOM      7  O   UNL     1      34.889 -15.309 -22.862  0.00  0.00    -0.398 OA
BRANCH   7  10
ATOM      8 CL   UNL     1      32.975 -15.335 -26.338  0.00  0.00    -0.066 Cl
ATOM      9 CL   UNL     1      34.572 -17.411 -24.966  0.00  0.00    -0.066 Cl
ATOM     10  C   UNL     1      34.155 -14.985 -23.951  0.00  0.00    +0.206 C 
ATOM     11  C   UNL     1      33.922 -15.811 -24.975  0.00  0.00    +0.152 C 
ENDBRANCH   7  10
ENDBRANCH   1   7
TORSDOF 4
ENDMDL
