MODEL 1
REMARK VINA RESULT:      -3.5      0.000      0.000
REMARK  Name = 69020
REMARK  2 active torsions:
REMARK  status: ('A' for Active; 'I' for Inactive)
REMARK    1  A    between atoms: C_1  and  C_4
REMARK    2  A    between atoms: C_1  and  N_7
REMARK                            x       y       z     vdW  Elec       q    Type
REMARK                         _______ _______ _______ _____ _____    ______ ____
ROOT
ATOM      1  C   UNL     1      37.965 -26.337 -14.461  0.00  0.00    +0.001 C 
ENDROOT
BRANCH   1   4
ATOM      2  O   UNL     1      36.697 -27.362 -16.242  0.00  0.00    -0.278 OA
ATOM      3  N   UNL     1      35.625 -25.883 -14.847  0.00  0.00    -0.331 N 
ATOM      4  C   UNL     1      36.721 -26.599 -15.279  0.00  0.00    +0.197 C 
ATOM      5  H   UNL     1      34.762 -25.979 -15.311  0.00  0.00    +0.145 HD
ATOM      6  H   UNL     1      35.706 -25.277 -14.077  0.00  0.00    +0.145 HD
ENDBRANCH   1   4
BRANCH   1   7
ATOM      7  N   UNL     1      38.811 -25.418 -15.208  0.00  0.00    +0.386 N 
ATOM      8  H   UNL     1      39.478 -24.979 -14.572  0.00  0.00    -0.089 HD
ATOM      9  H   UNL     1      38.234 -24.699 -15.643  0.00  0.00    -0.089 HD
ATOM     10  H   UNL     1      39.317 -25.932 -15.929  0.00  0.00    -0.089 HD
ENDBRANCH   1   7
TORSDOF 2
ENDMDL
MODEL 2
REMARK VINA RESULT:      -3.4      4.510      4.530
REMARK  Name = 69020
REMARK  2 active torsions:
REMARK  status: ('A' for Active; 'I' for Inactive)
REMARK    1  A    between atoms: C_1  and  C_4
REMARK    2  A    between atoms: C_1  and  N_7
REMARK                            x       y       z     vdW  Elec       q    Type
REMARK                         _______ _______ _______ _____ _____    ______ ____
ROOT
ATOM      1  C   UNL     1      36.704 -23.398 -11.558  0.00  0.00    +0.001 C 
ENDROOT
BRANCH   1   4
ATOM      2  O   UNL     1      35.355 -25.028 -10.395  0.00  0.00    -0.278 OA
ATOM      3  N   UNL     1      35.111 -24.830 -12.671  0.00  0.00    -0.331 N 
ATOM      4  C   UNL     1      35.663 -24.490 -11.456  0.00  0.00    +0.197 C 
ATOM      5  H   UNL     1      34.422 -25.532 -12.719  0.00  0.00    +0.145 HD
ATOM      6  H   UNL     1      35.406 -24.373 -13.491  0.00  0.00    +0.145 HD
ENDBRANCH   1   4
BRANCH   1   7
ATOM      7  N   UNL     1      38.019 -24.021 -11.509  0.00  0.00    +0.386 N 
ATOM      8  H   UNL     1      37.951 -24.982 -11.847  0.00  0.00    -0.089 HD
ATOM      9  H   UNL     1      38.360 -24.023 -10.548  0.00  0.00    -0.089 HD
ATOM     10  H   UNL     1      38.665 -23.498 -12.099  0.00  0.00    -0.089 HD
ENDBRANCH   1   7
TORSDOF 2
ENDMDL
MODEL 3
REMARK VINA RESULT:      -3.4      1.510      1.511
REMARK  Name = 69020
REMARK  2 active torsions:
REMARK  status: ('A' for Active; 'I' for Inactive)
REMARK    1  A    between atoms: C_1  and  C_4
REMARK    2  A    between atoms: C_1  and  N_7
REMARK                            x       y       z     vdW  Elec       q    Type
REMARK                         _______ _______ _______ _____ _____    ______ ____
ROOT
ATOM      1  C   UNL     1      37.273 -24.903 -14.694  0.00  0.00    +0.001 C 
ENDROOT
BRANCH   1   4
ATOM      2  O   UNL     1      38.365 -27.057 -14.707  0.00  0.00    -0.278 OA
ATOM      3  N   UNL     1      36.133 -26.959 -15.245  0.00  0.00    -0.331 N 
ATOM      4  C   UNL     1      37.337 -26.404 -14.869  0.00  0.00    +0.197 C 
ATOM      5  H   UNL     1      36.063 -27.931 -15.388  0.00  0.00    +0.145 HD
ATOM      6  H   UNL     1      35.345 -26.384 -15.372  0.00  0.00    +0.145 HD
ENDBRANCH   1   4
BRANCH   1   7
ATOM      7  N   UNL     1      38.388 -24.316 -15.422  0.00  0.00    +0.386 N 
ATOM      8  H   UNL     1      39.193 -24.941 -15.372  0.00  0.00    -0.089 HD
ATOM      9  H   UNL     1      38.631 -23.416 -15.006  0.00  0.00    -0.089 HD
ATOM     10  H   UNL     1      38.124 -24.179 -16.397  0.00  0.00    -0.089 HD
ENDBRANCH   1   7
TORSDOF 2
ENDMDL
MODEL 4
REMARK VINA RESULT:      -3.4      2.384      3.116
REMARK  Name = 69020
REMARK  2 active torsions:
REMARK  status: ('A' for Active; 'I' for Inactive)
REMARK    1  A    between atoms: C_1  and  C_4
REMARK    2  A    between atoms: C_1  and  N_7
REMARK                            x       y       z     vdW  Elec       q    Type
REMARK                         _______ _______ _______ _____ _____    ______ ____
ROOT
ATOM      1  C   UNL     1      36.665 -25.651 -14.282  0.00  0.00    +0.001 C 
ENDROOT
BRANCH   1   4
ATOM      2  O   UNL     1      36.964 -26.399 -12.006  0.00  0.00    -0.278 OA
ATOM      3  N   UNL     1      38.833 -26.022 -13.288  0.00  0.00    -0.331 N 
ATOM      4  C   UNL     1      37.473 -26.068 -13.074  0.00  0.00    +0.197 C 
ATOM      5  H   UNL     1      39.453 -26.273 -12.565  0.00  0.00    +0.145 HD
ATOM      6  H   UNL     1      39.185 -25.737 -14.161  0.00  0.00    +0.145 HD
ENDBRANCH   1   4
BRANCH   1   7
ATOM      7  N   UNL     1      36.196 -26.857 -14.949  0.00  0.00    +0.386 N 
ATOM      8  H   UNL     1      35.614 -27.396 -14.307  0.00  0.00    -0.089 HD
ATOM      9  H   UNL     1      36.996 -27.420 -15.237  0.00  0.00    -0.089 HD
ATOM     10  H   UNL     1      35.648 -26.600 -15.769  0.00  0.00    -0.089 HD
ENDBRANCH   1   7
TORSDOF 2
ENDMDL
MODEL 5
REMARK VINA RESULT:      -3.3      4.588      4.893
REMARK  Name = 69020
REMARK  2 active torsions:
REMARK  status: ('A' for Active; 'I' for Inactive)
REMARK    1  A    between atoms: C_1  and  C_4
REMARK    2  A    between atoms: C_1  and  N_7
REMARK                            x       y       z     vdW  Elec       q    Type
REMARK                         _______ _______ _______ _____ _____    ______ ____
ROOT
ATOM      1  C   UNL     1      35.170 -24.108 -12.479  0.00  0.00    +0.001 C 
ENDROOT
BRANCH   1   4
ATOM      2  O   UNL     1      35.296 -25.042 -10.257  0.00  0.00    -0.278 OA
ATOM      3  N   UNL     1      36.909 -23.540 -10.905  0.00  0.00    -0.331 N 
ATOM      4  C   UNL     1      35.777 -24.298 -11.108  0.00  0.00    +0.197 C 
ATOM      5  H   UNL     1      37.384 -23.587 -10.043  0.00  0.00    +0.145 HD
ATOM      6  H   UNL     1      37.241 -22.951 -11.619  0.00  0.00    +0.145 HD
ENDBRANCH   1   4
BRANCH   1   7
ATOM      7  N   UNL     1      35.644 -25.185 -13.336  0.00  0.00    +0.386 N 
ATOM      8  H   UNL     1      34.846 -25.649 -13.770  0.00  0.00    -0.089 HD
ATOM      9  H   UNL     1      36.167 -25.860 -12.778  0.00  0.00    -0.089 HD
ATOM     10  H   UNL     1      36.249 -24.802 -14.061  0.00  0.00    -0.089 HD
ENDBRANCH   1   7
TORSDOF 2
ENDMDL
MODEL 6
REMARK VINA RESULT:      -3.3      2.776      2.779
REMARK  Name = 69020
REMARK  2 active torsions:
REMARK  status: ('A' for Active; 'I' for Inactive)
REMARK    1  A    between atoms: C_1  and  C_4
REMARK    2  A    between atoms: C_1  and  N_7
REMARK                            x       y       z     vdW  Elec       q    Type
REMARK                         _______ _______ _______ _____ _____    ______ ____
ROOT
ATOM      1  C   UNL     1      38.571 -25.307 -13.136  0.00  0.00    +0.001 C 
ENDROOT
BRANCH   1   4
ATOM      2  O   UNL     1      36.843 -26.191 -11.701  0.00  0.00    -0.278 OA
ATOM      3  N   UNL     1      36.926 -26.907 -13.883  0.00  0.00    -0.331 N 
ATOM      4  C   UNL     1      37.366 -26.159 -12.813  0.00  0.00    +0.197 C 
ATOM      5  H   UNL     1      36.146 -27.500 -13.781  0.00  0.00    +0.145 HD
ATOM      6  H   UNL     1      37.392 -26.850 -14.747  0.00  0.00    +0.145 HD
ENDBRANCH   1   4
BRANCH   1   7
ATOM      7  N   UNL     1      39.554 -26.149 -13.802  0.00  0.00    +0.386 N 
ATOM      8  H   UNL     1      39.674 -25.833 -14.765  0.00  0.00    -0.089 HD
ATOM      9  H   UNL     1      39.232 -27.116 -13.799  0.00  0.00    -0.089 HD
ATOM     10  H   UNL     1      40.445 -26.086 -13.311  0.00  0.00    -0.089 HD
ENDBRANCH   1   7
TORSDOF 2
ENDMDL
MODEL 7
REMARK VINA RESULT:      -3.3      1.435      2.627
REMARK  Name = 69020
REMARK  2 active torsions:
REMARK  status: ('A' for Active; 'I' for Inactive)
REMARK    1  A    between atoms: C_1  and  C_4
REMARK    2  A    between atoms: C_1  and  N_7
REMARK                            x       y       z     vdW  Elec       q    Type
REMARK                         _______ _______ _______ _____ _____    ______ ____
ROOT
ATOM      1  C   UNL     1      36.715 -25.605 -14.923  0.00  0.00    +0.001 C 
ENDROOT
BRANCH   1   4
ATOM      2  O   UNL     1      38.693 -26.939 -14.550  0.00  0.00    -0.278 OA
ATOM      3  N   UNL     1      38.955 -24.766 -15.248  0.00  0.00    -0.331 N 
ATOM      4  C   UNL     1      38.205 -25.863 -14.886  0.00  0.00    +0.197 C 
ATOM      5  H   UNL     1      39.939 -24.824 -15.257  0.00  0.00    +0.145 HD
ATOM      6  H   UNL     1      38.510 -23.925 -15.496  0.00  0.00    +0.145 HD
ENDBRANCH   1   4
BRANCH   1   7
ATOM      7  N   UNL     1      36.044 -26.872 -15.172  0.00  0.00    +0.386 N 
ATOM      8  H   UNL     1      35.172 -26.701 -15.674  0.00  0.00    -0.089 HD
ATOM      9  H   UNL     1      35.839 -27.330 -14.284  0.00  0.00    -0.089 HD
ATOM     10  H   UNL     1      36.647 -27.472 -15.733  0.00  0.00    -0.089 HD
ENDBRANCH   1   7
TORSDOF 2
ENDMDL
MODEL 8
REMARK VINA RESULT:      -3.3      8.568      9.083
REMARK  Name = 69020
REMARK  2 active torsions:
REMARK  status: ('A' for Active; 'I' for Inactive)
REMARK    1  A    between atoms: C_1  and  C_4
REMARK    2  A    between atoms: C_1  and  N_7
REMARK                            x       y       z     vdW  Elec       q    Type
REMARK                         _______ _______ _______ _____ _____    ______ ____
ROOT
ATOM      1  C   UNL     1      29.475 -24.626 -15.754  0.00  0.00    +0.001 C 
ENDROOT
BRANCH   1   4
ATOM      2  O   UNL     1      27.788 -24.295 -17.450  0.00  0.00    -0.278 OA
ATOM      3  N   UNL     1      28.045 -22.683 -15.834  0.00  0.00    -0.331 N 
ATOM      4  C   UNL     1      28.354 -23.880 -16.442  0.00  0.00    +0.197 C 
ATOM      5  H   UNL     1      27.329 -22.115 -16.201  0.00  0.00    +0.145 HD
ATOM      6  H   UNL     1      28.541 -22.395 -15.034  0.00  0.00    +0.145 HD
ENDBRANCH   1   4
BRANCH   1   7
ATOM      7  N   UNL     1      28.923 -25.290 -14.582  0.00  0.00    +0.386 N 
ATOM      8  H   UNL     1      29.585 -25.991 -14.247  0.00  0.00    -0.089 HD
ATOM      9  H   UNL     1      28.044 -25.745 -14.830  0.00  0.00    -0.089 HD
ATOM     10  H   UNL     1      28.755 -24.602 -13.849  0.00  0.00    -0.089 HD
ENDBRANCH   1   7
TORSDOF 2
ENDMDL
MODEL 9
REMARK VINA RESULT:      -3.2      9.529     10.427
REMARK  Name = 69020
REMARK  2 active torsions:
REMARK  status: ('A' for Active; 'I' for Inactive)
REMARK    1  A    between atoms: C_1  and  C_4
REMARK    2  A    between atoms: C_1  and  N_7
REMARK                            x       y       z     vdW  Elec       q    Type
REMARK                         _______ _______ _______ _____ _____    ______ ____
ROOT
ATOM      1  C   UNL     1      27.219 -22.284 -16.071  0.00  0.00    +0.001 C 
ENDROOT
BRANCH   1   4
ATOM      2  O   UNL     1      27.720 -24.108 -17.572  0.00  0.00    -0.278 OA
ATOM      3  N   UNL     1      29.435 -22.725 -16.920  0.00  0.00    -0.331 N 
ATOM      4  C   UNL     1      28.121 -23.136 -16.935  0.00  0.00    +0.197 C 
ATOM      5  H   UNL     1      30.109 -23.212 -17.448  0.00  0.00    +0.145 HD
ATOM      6  H   UNL     1      29.701 -21.946 -16.380  0.00  0.00    +0.145 HD
ENDBRANCH   1   4
BRANCH   1   7
ATOM      7  N   UNL     1      26.265 -21.611 -16.941  0.00  0.00    +0.386 N 
ATOM      8  H   UNL     1      25.394 -22.143 -16.965  0.00  0.00    -0.089 HD
ATOM      9  H   UNL     1      26.649 -21.547 -17.883  0.00  0.00    -0.089 HD
ATOM     10  H   UNL     1      26.081 -20.674 -16.584  0.00  0.00    -0.089 HD
ENDBRANCH   1   7
TORSDOF 2
ENDMDL
