MODEL 1
REMARK VINA RESULT:      -7.3      0.000      0.000
REMARK  Name = 5403
REMARK  7 active torsions:
REMARK  status: ('A' for Active; 'I' for Inactive)
REMARK    1  A    between atoms: C_1  and  C_2
REMARK    2  A    between atoms: C_1  and  O_12
REMARK    3  A    between atoms: C_1  and  C_14
REMARK    4  A    between atoms: C_5  and  O_8
REMARK    5  A    between atoms: C_6  and  O_10
REMARK    6  A    between atoms: C_14  and  N_15
REMARK    7  A    between atoms: N_15  and  C_18
REMARK                            x       y       z     vdW  Elec       q    Type
REMARK                         _______ _______ _______ _____ _____    ______ ____
ROOT
ATOM      1  C   UNL     1      34.902 -15.835 -21.677  0.00  0.00    +0.112 C 
ENDROOT
BRANCH   1   2
ATOM      2  C   UNL     1      34.342 -15.158 -22.910  0.00  0.00    +0.008 C 
ATOM      3  C   UNL     1      34.134 -15.906 -24.056  0.00  0.00    +0.035 C 
ATOM      4  C   UNL     1      34.050 -13.806 -22.864  0.00  0.00    +0.035 C 
ATOM      5  C   UNL     1      33.534 -13.182 -24.000  0.00  0.00    +0.136 C 
ATOM      6  C   UNL     1      33.619 -15.282 -25.192  0.00  0.00    +0.136 C 
ATOM      7  C   UNL     1      33.318 -13.921 -25.164  0.00  0.00    +0.073 C 
BRANCH   5   8
ATOM      8  O   UNL     1      33.241 -11.853 -23.972  0.00  0.00    -0.505 OA
ATOM      9  H   UNL     1      32.797 -11.486 -23.233  0.00  0.00    +0.292 HD
ENDBRANCH   5   8
BRANCH   6  10
ATOM     10  O   UNL     1      33.407 -16.002 -26.327  0.00  0.00    -0.505 OA
ATOM     11  H   UNL     1      32.542 -16.075 -26.681  0.00  0.00    +0.292 HD
ENDBRANCH   6  10
ENDBRANCH   1   2
BRANCH   1  12
ATOM     12  O   UNL     1      34.828 -14.913 -20.590  0.00  0.00    -0.382 OA
ATOM     13  H   UNL     1      34.665 -15.399 -19.766  0.00  0.00    +0.211 HD
ENDBRANCH   1  12
BRANCH   1  14
ATOM     14  C   UNL     1      34.131 -17.117 -21.341  0.00  0.00    -0.047 C 
BRANCH  14  15
ATOM     15  N   UNL     1      35.010 -18.109 -20.748  0.00  0.00    +0.388 N 
ATOM     16  H   UNL     1      35.975 -17.894 -20.999  0.00  0.00    -0.084 HD
ATOM     17  H   UNL     1      34.895 -18.087 -19.735  0.00  0.00    -0.084 HD
BRANCH  15  18
ATOM     18  C   UNL     1      34.674 -19.452 -21.233  0.00  0.00    -0.046 C 
ATOM     19  C   UNL     1      34.808 -19.470 -22.759  0.00  0.00    -0.022 C 
ATOM     20  C   UNL     1      35.648 -20.455 -20.606  0.00  0.00    -0.022 C 
ATOM     21  C   UNL     1      33.235 -19.792 -20.826  0.00  0.00    -0.022 C 
ENDBRANCH  15  18
ENDBRANCH  14  15
ENDBRANCH   1  14
TORSDOF 7
ENDMDL
MODEL 2
REMARK VINA RESULT:      -7.3      0.075      2.343
REMARK  Name = 5403
REMARK  7 active torsions:
REMARK  status: ('A' for Active; 'I' for Inactive)
REMARK    1  A    between atoms: C_1  and  C_2
REMARK    2  A    between atoms: C_1  and  O_12
REMARK    3  A    between atoms: C_1  and  C_14
REMARK    4  A    between atoms: C_5  and  O_8
REMARK    5  A    between atoms: C_6  and  O_10
REMARK    6  A    between atoms: C_14  and  N_15
REMARK    7  A    between atoms: N_15  and  C_18
REMARK                            x       y       z     vdW  Elec       q    Type
REMARK                         _______ _______ _______ _____ _____    ______ ____
ROOT
ATOM      1  C   UNL     1      34.894 -15.810 -21.623  0.00  0.00    +0.112 C 
ENDROOT
BRANCH   1   2
ATOM      2  C   UNL     1      34.325 -15.136 -22.853  0.00  0.00    +0.008 C 
ATOM      3  C   UNL     1      34.078 -13.774 -22.823  0.00  0.00    +0.035 C 
ATOM      4  C   UNL     1      34.065 -15.896 -23.980  0.00  0.00    +0.035 C 
ATOM      5  C   UNL     1      33.540 -15.275 -25.113  0.00  0.00    +0.136 C 
ATOM      6  C   UNL     1      33.552 -13.153 -23.957  0.00  0.00    +0.136 C 
ATOM      7  C   UNL     1      33.284 -13.903 -25.102  0.00  0.00    +0.073 C 
BRANCH   5   8
ATOM      8  O   UNL     1      33.278 -16.006 -26.231  0.00  0.00    -0.505 OA
ATOM      9  H   UNL     1      33.197 -15.580 -27.062  0.00  0.00    +0.292 HD
ENDBRANCH   5   8
BRANCH   6  10
ATOM     10  O   UNL     1      33.304 -11.815 -23.946  0.00  0.00    -0.505 OA
ATOM     11  H   UNL     1      32.476 -11.490 -24.241  0.00  0.00    +0.292 HD
ENDBRANCH   6  10
ENDBRANCH   1   2
BRANCH   1  12
ATOM     12  O   UNL     1      34.797 -14.897 -20.530  0.00  0.00    -0.382 OA
ATOM     13  H   UNL     1      34.534 -15.380 -19.730  0.00  0.00    +0.211 HD
ENDBRANCH   1  12
BRANCH   1  14
ATOM     14  C   UNL     1      34.149 -17.110 -21.299  0.00  0.00    -0.047 C 
BRANCH  14  15
ATOM     15  N   UNL     1      35.058 -18.106 -20.759  0.00  0.00    +0.388 N 
ATOM     16  H   UNL     1      36.009 -17.888 -21.055  0.00  0.00    -0.084 HD
ATOM     17  H   UNL     1      34.993 -18.093 -19.741  0.00  0.00    -0.084 HD
BRANCH  15  18
ATOM     18  C   UNL     1      34.700 -19.445 -21.238  0.00  0.00    -0.046 C 
ATOM     19  C   UNL     1      33.255 -19.742 -20.823  0.00  0.00    -0.022 C 
ATOM     20  C   UNL     1      34.824 -19.467 -22.765  0.00  0.00    -0.022 C 
ATOM     21  C   UNL     1      35.649 -20.477 -20.617  0.00  0.00    -0.022 C 
ENDBRANCH  15  18
ENDBRANCH  14  15
ENDBRANCH   1  14
TORSDOF 7
ENDMDL
MODEL 3
REMARK VINA RESULT:      -7.1     10.299     11.853
REMARK  Name = 5403
REMARK  7 active torsions:
REMARK  status: ('A' for Active; 'I' for Inactive)
REMARK    1  A    between atoms: C_1  and  C_2
REMARK    2  A    between atoms: C_1  and  O_12
REMARK    3  A    between atoms: C_1  and  C_14
REMARK    4  A    between atoms: C_5  and  O_8
REMARK    5  A    between atoms: C_6  and  O_10
REMARK    6  A    between atoms: C_14  and  N_15
REMARK    7  A    between atoms: N_15  and  C_18
REMARK                            x       y       z     vdW  Elec       q    Type
REMARK                         _______ _______ _______ _____ _____    ______ ____
ROOT
ATOM      1  C   UNL     1      32.725 -23.810 -13.967  0.00  0.00    +0.112 C 
ENDROOT
BRANCH   1   2
ATOM      2  C   UNL     1      31.350 -23.888 -14.597  0.00  0.00    +0.008 C 
ATOM      3  C   UNL     1      31.023 -23.009 -15.615  0.00  0.00    +0.035 C 
ATOM      4  C   UNL     1      30.452 -24.836 -14.141  0.00  0.00    +0.035 C 
ATOM      5  C   UNL     1      29.184 -24.908 -14.720  0.00  0.00    +0.136 C 
ATOM      6  C   UNL     1      29.756 -23.080 -16.194  0.00  0.00    +0.136 C 
ATOM      7  C   UNL     1      28.837 -24.030 -15.748  0.00  0.00    +0.073 C 
BRANCH   5   8
ATOM      8  O   UNL     1      28.288 -25.834 -14.284  0.00  0.00    -0.505 OA
ATOM      9  H   UNL     1      27.830 -25.700 -13.477  0.00  0.00    +0.292 HD
ENDBRANCH   5   8
BRANCH   6  10
ATOM     10  O   UNL     1      29.417 -22.224 -17.197  0.00  0.00    -0.505 OA
ATOM     11  H   UNL     1      28.602 -21.764 -17.164  0.00  0.00    +0.292 HD
ENDBRANCH   6  10
ENDBRANCH   1   2
BRANCH   1  12
ATOM     12  O   UNL     1      32.910 -24.971 -13.157  0.00  0.00    -0.382 OA
ATOM     13  H   UNL     1      33.711 -24.865 -12.621  0.00  0.00    +0.211 HD
ENDBRANCH   1  12
BRANCH   1  14
ATOM     14  C   UNL     1      33.826 -23.724 -15.031  0.00  0.00    -0.047 C 
BRANCH  14  15
ATOM     15  N   UNL     1      34.860 -22.788 -14.629  0.00  0.00    +0.388 N 
ATOM     16  H   UNL     1      34.868 -21.998 -15.273  0.00  0.00    -0.084 HD
ATOM     17  H   UNL     1      34.663 -22.467 -13.680  0.00  0.00    -0.084 HD
BRANCH  15  18
ATOM     18  C   UNL     1      36.176 -23.435 -14.644  0.00  0.00    -0.046 C 
ATOM     19  C   UNL     1      37.068 -22.707 -15.655  0.00  0.00    -0.022 C 
ATOM     20  C   UNL     1      36.784 -23.339 -13.241  0.00  0.00    -0.022 C 
ATOM     21  C   UNL     1      36.014 -24.906 -15.047  0.00  0.00    -0.022 C 
ENDBRANCH  15  18
ENDBRANCH  14  15
ENDBRANCH   1  14
TORSDOF 7
ENDMDL
MODEL 4
REMARK VINA RESULT:      -7.1     10.288     11.797
REMARK  Name = 5403
REMARK  7 active torsions:
REMARK  status: ('A' for Active; 'I' for Inactive)
REMARK    1  A    between atoms: C_1  and  C_2
REMARK    2  A    between atoms: C_1  and  O_12
REMARK    3  A    between atoms: C_1  and  C_14
REMARK    4  A    between atoms: C_5  and  O_8
REMARK    5  A    between atoms: C_6  and  O_10
REMARK    6  A    between atoms: C_14  and  N_15
REMARK    7  A    between atoms: N_15  and  C_18
REMARK                            x       y       z     vdW  Elec       q    Type
REMARK                         _______ _______ _______ _____ _____    ______ ____
ROOT
ATOM      1  C   UNL     1      32.770 -23.850 -13.942  0.00  0.00    +0.112 C 
ENDROOT
BRANCH   1   2
ATOM      2  C   UNL     1      31.397 -23.908 -14.578  0.00  0.00    +0.008 C 
ATOM      3  C   UNL     1      30.483 -24.845 -14.126  0.00  0.00    +0.035 C 
ATOM      4  C   UNL     1      31.086 -23.023 -15.595  0.00  0.00    +0.035 C 
ATOM      5  C   UNL     1      29.821 -23.077 -16.181  0.00  0.00    +0.136 C 
ATOM      6  C   UNL     1      29.218 -24.899 -14.712  0.00  0.00    +0.136 C 
ATOM      7  C   UNL     1      28.887 -24.015 -15.738  0.00  0.00    +0.073 C 
BRANCH   5   8
ATOM      8  O   UNL     1      29.497 -22.215 -17.182  0.00  0.00    -0.505 OA
ATOM      9  H   UNL     1      29.624 -22.466 -18.076  0.00  0.00    +0.292 HD
ENDBRANCH   5   8
BRANCH   6  10
ATOM     10  O   UNL     1      28.307 -25.813 -14.280  0.00  0.00    -0.505 OA
ATOM     11  H   UNL     1      27.535 -25.980 -14.785  0.00  0.00    +0.292 HD
ENDBRANCH   6  10
ENDBRANCH   1   2
BRANCH   1  12
ATOM     12  O   UNL     1      32.937 -25.016 -13.136  0.00  0.00    -0.382 OA
ATOM     13  H   UNL     1      33.559 -24.823 -12.416  0.00  0.00    +0.211 HD
ENDBRANCH   1  12
BRANCH   1  14
ATOM     14  C   UNL     1      33.876 -23.773 -15.001  0.00  0.00    -0.047 C 
BRANCH  14  15
ATOM     15  N   UNL     1      34.900 -22.819 -14.610  0.00  0.00    +0.388 N 
ATOM     16  H   UNL     1      34.886 -22.030 -15.255  0.00  0.00    -0.084 HD
ATOM     17  H   UNL     1      34.708 -22.503 -13.659  0.00  0.00    -0.084 HD
BRANCH  15  18
ATOM     18  C   UNL     1      36.226 -23.445 -14.641  0.00  0.00    -0.046 C 
ATOM     19  C   UNL     1      37.082 -22.727 -15.690  0.00  0.00    -0.022 C 
ATOM     20  C   UNL     1      36.864 -23.305 -13.255  0.00  0.00    -0.022 C 
ATOM     21  C   UNL     1      36.080 -24.927 -15.005  0.00  0.00    -0.022 C 
ENDBRANCH  15  18
ENDBRANCH  14  15
ENDBRANCH   1  14
TORSDOF 7
ENDMDL
MODEL 5
REMARK VINA RESULT:      -7.1      3.330      7.047
REMARK  Name = 5403
REMARK  7 active torsions:
REMARK  status: ('A' for Active; 'I' for Inactive)
REMARK    1  A    between atoms: C_1  and  C_2
REMARK    2  A    between atoms: C_1  and  O_12
REMARK    3  A    between atoms: C_1  and  C_14
REMARK    4  A    between atoms: C_5  and  O_8
REMARK    5  A    between atoms: C_6  and  O_10
REMARK    6  A    between atoms: C_14  and  N_15
REMARK    7  A    between atoms: N_15  and  C_18
REMARK                            x       y       z     vdW  Elec       q    Type
REMARK                         _______ _______ _______ _____ _____    ______ ____
ROOT
ATOM      1  C   UNL     1      35.421 -19.067 -21.668  0.00  0.00    +0.112 C 
ENDROOT
BRANCH   1   2
ATOM      2  C   UNL     1      35.234 -20.115 -20.592  0.00  0.00    +0.008 C 
ATOM      3  C   UNL     1      36.337 -20.564 -19.887  0.00  0.00    +0.035 C 
ATOM      4  C   UNL     1      33.963 -20.601 -20.337  0.00  0.00    +0.035 C 
ATOM      5  C   UNL     1      33.790 -21.567 -19.345  0.00  0.00    +0.136 C 
ATOM      6  C   UNL     1      36.164 -21.530 -18.895  0.00  0.00    +0.136 C 
ATOM      7  C   UNL     1      34.891 -22.030 -18.624  0.00  0.00    +0.073 C 
BRANCH   5   8
ATOM      8  O   UNL     1      32.548 -22.056 -19.080  0.00  0.00    -0.505 OA
ATOM      9  H   UNL     1      32.228 -22.069 -18.200  0.00  0.00    +0.292 HD
ENDBRANCH   5   8
BRANCH   6  10
ATOM     10  O   UNL     1      37.238 -21.982 -18.191  0.00  0.00    -0.505 OA
ATOM     11  H   UNL     1      38.049 -22.148 -18.630  0.00  0.00    +0.292 HD
ENDBRANCH   6  10
ENDBRANCH   1   2
BRANCH   1  12
ATOM     12  O   UNL     1      34.469 -19.315 -22.702  0.00  0.00    -0.382 OA
ATOM     13  H   UNL     1      34.829 -19.969 -23.321  0.00  0.00    +0.211 HD
ENDBRANCH   1  12
BRANCH   1  14
ATOM     14  C   UNL     1      35.242 -17.650 -21.110  0.00  0.00    -0.047 C 
BRANCH  14  15
ATOM     15  N   UNL     1      33.908 -17.150 -21.389  0.00  0.00    +0.388 N 
ATOM     16  H   UNL     1      33.560 -17.580 -22.245  0.00  0.00    -0.084 HD
ATOM     17  H   UNL     1      33.299 -17.381 -20.604  0.00  0.00    -0.084 HD
BRANCH  15  18
ATOM     18  C   UNL     1      33.928 -15.693 -21.556  0.00  0.00    -0.046 C 
ATOM     19  C   UNL     1      34.568 -15.364 -22.909  0.00  0.00    -0.022 C 
ATOM     20  C   UNL     1      32.486 -15.177 -21.518  0.00  0.00    -0.022 C 
ATOM     21  C   UNL     1      34.742 -15.062 -20.420  0.00  0.00    -0.022 C 
ENDBRANCH  15  18
ENDBRANCH  14  15
ENDBRANCH   1  14
TORSDOF 7
ENDMDL
MODEL 6
REMARK VINA RESULT:      -7.0     10.267     12.195
REMARK  Name = 5403
REMARK  7 active torsions:
REMARK  status: ('A' for Active; 'I' for Inactive)
REMARK    1  A    between atoms: C_1  and  C_2
REMARK    2  A    between atoms: C_1  and  O_12
REMARK    3  A    between atoms: C_1  and  C_14
REMARK    4  A    between atoms: C_5  and  O_8
REMARK    5  A    between atoms: C_6  and  O_10
REMARK    6  A    between atoms: C_14  and  N_15
REMARK    7  A    between atoms: N_15  and  C_18
REMARK                            x       y       z     vdW  Elec       q    Type
REMARK                         _______ _______ _______ _____ _____    ______ ____
ROOT
ATOM      1  C   UNL     1      34.212 -24.083 -13.837  0.00  0.00    +0.112 C 
ENDROOT
BRANCH   1   2
ATOM      2  C   UNL     1      32.854 -24.069 -14.505  0.00  0.00    +0.008 C 
ATOM      3  C   UNL     1      32.651 -23.254 -15.605  0.00  0.00    +0.035 C 
ATOM      4  C   UNL     1      31.846 -24.873 -14.001  0.00  0.00    +0.035 C 
ATOM      5  C   UNL     1      30.594 -24.860 -14.617  0.00  0.00    +0.136 C 
ATOM      6  C   UNL     1      31.399 -23.241 -16.221  0.00  0.00    +0.136 C 
ATOM      7  C   UNL     1      30.371 -24.044 -15.728  0.00  0.00    +0.073 C 
BRANCH   5   8
ATOM      8  O   UNL     1      29.591 -25.643 -14.136  0.00  0.00    -0.505 OA
ATOM      9  H   UNL     1      28.877 -25.886 -14.693  0.00  0.00    +0.292 HD
ENDBRANCH   5   8
BRANCH   6  10
ATOM     10  O   UNL     1      31.182 -22.447 -17.304  0.00  0.00    -0.505 OA
ATOM     11  H   UNL     1      30.432 -21.886 -17.331  0.00  0.00    +0.292 HD
ENDBRANCH   6  10
ENDBRANCH   1   2
BRANCH   1  12
ATOM     12  O   UNL     1      34.102 -24.822 -12.620  0.00  0.00    -0.382 OA
ATOM     13  H   UNL     1      34.868 -25.410 -12.530  0.00  0.00    +0.211 HD
ENDBRANCH   1  12
BRANCH   1  14
ATOM     14  C   UNL     1      35.279 -24.708 -14.743  0.00  0.00    -0.047 C 
BRANCH  14  15
ATOM     15  N   UNL     1      36.613 -24.420 -14.247  0.00  0.00    +0.388 N 
ATOM     16  H   UNL     1      37.071 -23.764 -14.877  0.00  0.00    -0.084 HD
ATOM     17  H   UNL     1      36.536 -24.018 -13.312  0.00  0.00    -0.084 HD
BRANCH  15  18
ATOM     18  C   UNL     1      37.410 -25.649 -14.167  0.00  0.00    -0.046 C 
ATOM     19  C   UNL     1      38.842 -25.334 -14.611  0.00  0.00    -0.022 C 
ATOM     20  C   UNL     1      37.405 -26.141 -12.716  0.00  0.00    -0.022 C 
ATOM     21  C   UNL     1      36.795 -26.714 -15.085  0.00  0.00    -0.022 C 
ENDBRANCH  15  18
ENDBRANCH  14  15
ENDBRANCH   1  14
TORSDOF 7
ENDMDL
MODEL 7
REMARK VINA RESULT:      -7.0      3.224      6.795
REMARK  Name = 5403
REMARK  7 active torsions:
REMARK  status: ('A' for Active; 'I' for Inactive)
REMARK    1  A    between atoms: C_1  and  C_2
REMARK    2  A    between atoms: C_1  and  O_12
REMARK    3  A    between atoms: C_1  and  C_14
REMARK    4  A    between atoms: C_5  and  O_8
REMARK    5  A    between atoms: C_6  and  O_10
REMARK    6  A    between atoms: C_14  and  N_15
REMARK    7  A    between atoms: N_15  and  C_18
REMARK                            x       y       z     vdW  Elec       q    Type
REMARK                         _______ _______ _______ _____ _____    ______ ____
ROOT
ATOM      1  C   UNL     1      35.846 -18.545 -21.599  0.00  0.00    +0.112 C 
ENDROOT
BRANCH   1   2
ATOM      2  C   UNL     1      35.492 -19.714 -20.704  0.00  0.00    +0.008 C 
ATOM      3  C   UNL     1      34.193 -20.192 -20.699  0.00  0.00    +0.035 C 
ATOM      4  C   UNL     1      36.476 -20.279 -19.912  0.00  0.00    +0.035 C 
ATOM      5  C   UNL     1      36.150 -21.356 -19.088  0.00  0.00    +0.136 C 
ATOM      6  C   UNL     1      33.867 -21.269 -19.875  0.00  0.00    +0.136 C 
ATOM      7  C   UNL     1      34.846 -21.852 -19.070  0.00  0.00    +0.073 C 
BRANCH   5   8
ATOM      8  O   UNL     1      37.105 -21.925 -18.302  0.00  0.00    -0.505 OA
ATOM      9  H   UNL     1      37.993 -21.628 -18.354  0.00  0.00    +0.292 HD
ENDBRANCH   5   8
BRANCH   6  10
ATOM     10  O   UNL     1      32.595 -21.753 -19.858  0.00  0.00    -0.505 OA
ATOM     11  H   UNL     1      32.077 -21.680 -19.081  0.00  0.00    +0.292 HD
ENDBRANCH   6  10
ENDBRANCH   1   2
BRANCH   1  12
ATOM     12  O   UNL     1      35.412 -18.851 -22.924  0.00  0.00    -0.382 OA
ATOM     13  H   UNL     1      35.454 -18.050 -23.470  0.00  0.00    +0.211 HD
ENDBRANCH   1  12
BRANCH   1  14
ATOM     14  C   UNL     1      35.192 -17.247 -21.112  0.00  0.00    -0.047 C 
BRANCH  14  15
ATOM     15  N   UNL     1      34.155 -16.814 -22.032  0.00  0.00    +0.388 N 
ATOM     16  H   UNL     1      34.564 -16.668 -22.954  0.00  0.00    -0.084 HD
ATOM     17  H   UNL     1      33.432 -17.533 -22.075  0.00  0.00    -0.084 HD
BRANCH  15  18
ATOM     18  C   UNL     1      33.546 -15.562 -21.571  0.00  0.00    -0.046 C 
ATOM     19  C   UNL     1      34.562 -14.814 -20.701  0.00  0.00    -0.022 C 
ATOM     20  C   UNL     1      33.180 -14.717 -22.796  0.00  0.00    -0.022 C 
ATOM     21  C   UNL     1      32.286 -15.879 -20.756  0.00  0.00    -0.022 C 
ENDBRANCH  15  18
ENDBRANCH  14  15
ENDBRANCH   1  14
TORSDOF 7
ENDMDL
MODEL 8
REMARK VINA RESULT:      -6.9      8.107     10.145
REMARK  Name = 5403
REMARK  7 active torsions:
REMARK  status: ('A' for Active; 'I' for Inactive)
REMARK    1  A    between atoms: C_1  and  C_2
REMARK    2  A    between atoms: C_1  and  O_12
REMARK    3  A    between atoms: C_1  and  C_14
REMARK    4  A    between atoms: C_5  and  O_8
REMARK    5  A    between atoms: C_6  and  O_10
REMARK    6  A    between atoms: C_14  and  N_15
REMARK    7  A    between atoms: N_15  and  C_18
REMARK                            x       y       z     vdW  Elec       q    Type
REMARK                         _______ _______ _______ _____ _____    ______ ____
ROOT
ATOM      1  C   UNL     1      37.014 -22.195 -16.876  0.00  0.00    +0.112 C 
ENDROOT
BRANCH   1   2
ATOM      2  C   UNL     1      35.547 -22.497 -17.093  0.00  0.00    +0.008 C 
ATOM      3  C   UNL     1      34.976 -22.218 -18.323  0.00  0.00    +0.035 C 
ATOM      4  C   UNL     1      34.810 -23.046 -16.059  0.00  0.00    +0.035 C 
ATOM      5  C   UNL     1      33.458 -23.324 -16.259  0.00  0.00    +0.136 C 
ATOM      6  C   UNL     1      33.623 -22.496 -18.524  0.00  0.00    +0.136 C 
ATOM      7  C   UNL     1      32.865 -23.050 -17.492  0.00  0.00    +0.073 C 
BRANCH   5   8
ATOM      8  O   UNL     1      32.718 -23.864 -15.253  0.00  0.00    -0.505 OA
ATOM      9  H   UNL     1      32.860 -23.591 -14.367  0.00  0.00    +0.292 HD
ENDBRANCH   5   8
BRANCH   6  10
ATOM     10  O   UNL     1      33.045 -22.230 -19.727  0.00  0.00    -0.505 OA
ATOM     11  H   UNL     1      33.425 -22.568 -20.514  0.00  0.00    +0.292 HD
ENDBRANCH   6  10
ENDBRANCH   1   2
BRANCH   1  12
ATOM     12  O   UNL     1      37.195 -20.781 -16.958  0.00  0.00    -0.382 OA
ATOM     13  H   UNL     1      37.941 -20.519 -16.396  0.00  0.00    +0.211 HD
ENDBRANCH   1  12
BRANCH   1  14
ATOM     14  C   UNL     1      37.500 -22.715 -15.517  0.00  0.00    -0.047 C 
BRANCH  14  15
ATOM     15  N   UNL     1      38.311 -23.908 -15.681  0.00  0.00    +0.388 N 
ATOM     16  H   UNL     1      38.061 -24.366 -16.557  0.00  0.00    -0.084 HD
ATOM     17  H   UNL     1      39.295 -23.639 -15.691  0.00  0.00    -0.084 HD
BRANCH  15  18
ATOM     18  C   UNL     1      38.088 -24.839 -14.569  0.00  0.00    -0.046 C 
ATOM     19  C   UNL     1      37.497 -24.061 -13.389  0.00  0.00    -0.022 C 
ATOM     20  C   UNL     1      37.108 -25.923 -15.029  0.00  0.00    -0.022 C 
ATOM     21  C   UNL     1      39.424 -25.476 -14.165  0.00  0.00    -0.022 C 
ENDBRANCH  15  18
ENDBRANCH  14  15
ENDBRANCH   1  14
TORSDOF 7
ENDMDL
MODEL 9
REMARK VINA RESULT:      -6.9     10.358     12.162
REMARK  Name = 5403
REMARK  7 active torsions:
REMARK  status: ('A' for Active; 'I' for Inactive)
REMARK    1  A    between atoms: C_1  and  C_2
REMARK    2  A    between atoms: C_1  and  O_12
REMARK    3  A    between atoms: C_1  and  C_14
REMARK    4  A    between atoms: C_5  and  O_8
REMARK    5  A    between atoms: C_6  and  O_10
REMARK    6  A    between atoms: C_14  and  N_15
REMARK    7  A    between atoms: N_15  and  C_18
REMARK                            x       y       z     vdW  Elec       q    Type
REMARK                         _______ _______ _______ _____ _____    ______ ____
ROOT
ATOM      1  C   UNL     1      34.062 -24.045 -13.713  0.00  0.00    +0.112 C 
ENDROOT
BRANCH   1   2
ATOM      2  C   UNL     1      32.729 -24.052 -14.430  0.00  0.00    +0.008 C 
ATOM      3  C   UNL     1      31.717 -24.876 -13.969  0.00  0.00    +0.035 C 
ATOM      4  C   UNL     1      32.550 -23.232 -15.531  0.00  0.00    +0.035 C 
ATOM      5  C   UNL     1      31.322 -23.238 -16.193  0.00  0.00    +0.136 C 
ATOM      6  C   UNL     1      30.489 -24.883 -14.630  0.00  0.00    +0.136 C 
ATOM      7  C   UNL     1      30.291 -24.063 -15.741  0.00  0.00    +0.073 C 
BRANCH   5   8
ATOM      8  O   UNL     1      31.129 -22.439 -17.277  0.00  0.00    -0.505 OA
ATOM      9  H   UNL     1      31.217 -21.509 -17.196  0.00  0.00    +0.292 HD
ENDBRANCH   5   8
BRANCH   6  10
ATOM     10  O   UNL     1      29.483 -25.686 -14.189  0.00  0.00    -0.505 OA
ATOM     11  H   UNL     1      29.512 -26.041 -13.322  0.00  0.00    +0.292 HD
ENDBRANCH   6  10
ENDBRANCH   1   2
BRANCH   1  12
ATOM     12  O   UNL     1      33.927 -24.813 -12.517  0.00  0.00    -0.382 OA
ATOM     13  H   UNL     1      34.650 -25.457 -12.465  0.00  0.00    +0.211 HD
ENDBRANCH   1  12
BRANCH   1  14
ATOM     14  C   UNL     1      35.176 -24.623 -14.593  0.00  0.00    -0.047 C 
BRANCH  14  15
ATOM     15  N   UNL     1      36.057 -25.478 -13.817  0.00  0.00    +0.388 N 
ATOM     16  H   UNL     1      35.794 -25.425 -12.833  0.00  0.00    -0.084 HD
ATOM     17  H   UNL     1      35.968 -26.436 -14.156  0.00  0.00    -0.084 HD
BRANCH  15  18
ATOM     18  C   UNL     1      37.453 -25.053 -13.967  0.00  0.00    -0.046 C 
ATOM     19  C   UNL     1      37.958 -24.546 -12.612  0.00  0.00    -0.022 C 
ATOM     20  C   UNL     1      38.283 -26.257 -14.421  0.00  0.00    -0.022 C 
ATOM     21  C   UNL     1      37.533 -23.933 -15.012  0.00  0.00    -0.022 C 
ENDBRANCH  15  18
ENDBRANCH  14  15
ENDBRANCH   1  14
TORSDOF 7
ENDMDL
