MODEL 1
REMARK VINA RESULT:      -8.3      0.000      0.000
REMARK  Name = 2720
REMARK  2 active torsions:
REMARK  status: ('A' for Active; 'I' for Inactive)
REMARK    1  A    between atoms: C_9  and  S_15
REMARK    2  A    between atoms: S_15  and  N_18
REMARK                            x       y       z     vdW  Elec       q    Type
REMARK                         _______ _______ _______ _____ _____    ______ ____
ROOT
ATOM      1 CL   UNL     1      38.044 -23.986 -14.497  0.00  0.00    -0.081 Cl
ATOM      2  S   UNL     1      31.793 -24.099 -14.132  0.00  0.00    +0.103 S 
ATOM      3  O   UNL     1      31.447 -23.109 -13.129  0.00  0.00    -0.146 OA
ATOM      4  O   UNL     1      31.443 -25.494 -13.936  0.00  0.00    -0.146 OA
ATOM      5  N   UNL     1      33.412 -23.286 -16.543  0.00  0.00    -0.293 N 
ATOM      6  N   UNL     1      31.223 -23.608 -15.580  0.00  0.00    -0.110 NA
ATOM      7  C   UNL     1      33.558 -24.065 -14.239  0.00  0.00    +0.144 C 
ATOM      8  C   UNL     1      34.169 -23.664 -15.430  0.00  0.00    +0.070 C 
ATOM      9  C   UNL     1      35.689 -24.424 -13.186  0.00  0.00    +0.134 C 
ATOM     10  C   UNL     1      34.298 -24.445 -13.119  0.00  0.00    +0.042 C 
ATOM     11  C   UNL     1      35.568 -23.650 -15.478  0.00  0.00    +0.029 C 
ATOM     12  C   UNL     1      36.323 -24.027 -14.364  0.00  0.00    +0.078 C 
ATOM     13  C   UNL     1      32.045 -23.291 -16.524  0.00  0.00    +0.187 C 
ATOM     14  H   UNL     1      33.878 -23.009 -17.365  0.00  0.00    +0.154 HD
ENDROOT
BRANCH   9  15
ATOM     15  S   UNL     1      36.588 -24.909 -11.764  0.00  0.00    +0.058 S 
ATOM     16  O   UNL     1      37.112 -26.246 -11.993  0.00  0.00    -0.153 OA
ATOM     17  O   UNL     1      37.489 -23.827 -11.401  0.00  0.00    -0.153 OA
BRANCH  15  18
ATOM     18  N   UNL     1      35.335 -24.996 -10.608  0.00  0.00    -0.203 NA
ATOM     19  H   UNL     1      35.714 -24.810  -9.680  0.00  0.00    +0.144 HD
ATOM     20  H   UNL     1      34.920 -25.927 -10.625  0.00  0.00    +0.144 HD
ENDBRANCH  15  18
ENDBRANCH   9  15
TORSDOF 2
ENDMDL
MODEL 2
REMARK VINA RESULT:      -7.7      3.611      5.882
REMARK  Name = 2720
REMARK  2 active torsions:
REMARK  status: ('A' for Active; 'I' for Inactive)
REMARK    1  A    between atoms: C_9  and  S_15
REMARK    2  A    between atoms: S_15  and  N_18
REMARK                            x       y       z     vdW  Elec       q    Type
REMARK                         _______ _______ _______ _____ _____    ______ ____
ROOT
ATOM      1 CL   UNL     1      31.215 -22.923 -16.718  0.00  0.00    -0.081 Cl
ATOM      2  S   UNL     1      36.909 -23.946 -14.321  0.00  0.00    +0.103 S 
ATOM      3  O   UNL     1      37.639 -22.706 -14.513  0.00  0.00    -0.146 OA
ATOM      4  O   UNL     1      37.375 -25.173 -14.941  0.00  0.00    -0.146 OA
ATOM      5  N   UNL     1      34.316 -23.935 -12.782  0.00  0.00    -0.293 N 
ATOM      6  N   UNL     1      36.714 -24.202 -12.721  0.00  0.00    -0.110 NA
ATOM      7  C   UNL     1      35.300 -23.657 -14.994  0.00  0.00    +0.144 C 
ATOM      8  C   UNL     1      34.185 -23.685 -14.151  0.00  0.00    +0.070 C 
ATOM      9  C   UNL     1      33.928 -23.179 -16.908  0.00  0.00    +0.134 C 
ATOM     10  C   UNL     1      35.188 -23.409 -16.362  0.00  0.00    +0.042 C 
ATOM     11  C   UNL     1      32.928 -23.452 -14.719  0.00  0.00    +0.029 C 
ATOM     12  C   UNL     1      32.799 -23.200 -16.088  0.00  0.00    +0.078 C 
ATOM     13  C   UNL     1      35.532 -24.166 -12.202  0.00  0.00    +0.187 C 
ATOM     14  H   UNL     1      33.508 -23.947 -12.220  0.00  0.00    +0.154 HD
ENDROOT
BRANCH   9  15
ATOM     15  S   UNL     1      33.820 -22.873 -18.629  0.00  0.00    +0.058 S 
ATOM     16  O   UNL     1      33.783 -24.153 -19.316  0.00  0.00    -0.153 OA
ATOM     17  O   UNL     1      32.768 -21.894 -18.855  0.00  0.00    -0.153 OA
BRANCH  15  18
ATOM     18  N   UNL     1      35.333 -22.134 -18.916  0.00  0.00    -0.203 NA
ATOM     19  H   UNL     1      36.010 -22.465 -18.230  0.00  0.00    +0.144 HD
ATOM     20  H   UNL     1      35.237 -21.121 -18.838  0.00  0.00    +0.144 HD
ENDBRANCH  15  18
ENDBRANCH   9  15
TORSDOF 2
ENDMDL
MODEL 3
REMARK VINA RESULT:      -7.7     11.665     12.983
REMARK  Name = 2720
REMARK  2 active torsions:
REMARK  status: ('A' for Active; 'I' for Inactive)
REMARK    1  A    between atoms: C_9  and  S_15
REMARK    2  A    between atoms: S_15  and  N_18
REMARK                            x       y       z     vdW  Elec       q    Type
REMARK                         _______ _______ _______ _____ _____    ______ ____
ROOT
ATOM      1 CL   UNL     1      35.087 -19.511 -24.178  0.00  0.00    -0.081 Cl
ATOM      2  S   UNL     1      33.285 -13.516 -24.001  0.00  0.00    +0.103 S 
ATOM      3  O   UNL     1      34.462 -12.770 -23.595  0.00  0.00    -0.146 OA
ATOM      4  O   UNL     1      32.087 -13.496 -23.181  0.00  0.00    -0.146 OA
ATOM      5  N   UNL     1      33.391 -15.261 -26.457  0.00  0.00    -0.293 N 
ATOM      6  N   UNL     1      32.890 -13.092 -25.527  0.00  0.00    -0.110 NA
ATOM      7  C   UNL     1      33.794 -15.209 -24.055  0.00  0.00    +0.144 C 
ATOM      8  C   UNL     1      33.789 -15.891 -25.275  0.00  0.00    +0.070 C 
ATOM      9  C   UNL     1      34.592 -17.154 -22.891  0.00  0.00    +0.134 C 
ATOM     10  C   UNL     1      34.188 -15.821 -22.865  0.00  0.00    +0.042 C 
ATOM     11  C   UNL     1      34.198 -17.229 -25.280  0.00  0.00    +0.029 C 
ATOM     12  C   UNL     1      34.597 -17.857 -24.096  0.00  0.00    +0.078 C 
ATOM     13  C   UNL     1      32.987 -13.956 -26.482  0.00  0.00    +0.187 C 
ATOM     14  H   UNL     1      33.401 -15.775 -27.298  0.00  0.00    +0.154 HD
ENDROOT
BRANCH   9  15
ATOM     15  S   UNL     1      35.078 -17.895 -21.380  0.00  0.00    +0.058 S 
ATOM     16  O   UNL     1      34.022 -18.800 -20.958  0.00  0.00    -0.153 OA
ATOM     17  O   UNL     1      36.440 -18.383 -21.528  0.00  0.00    -0.153 OA
BRANCH  15  18
ATOM     18  N   UNL     1      35.088 -16.535 -20.347  0.00  0.00    -0.203 NA
ATOM     19  H   UNL     1      35.326 -16.829 -19.400  0.00  0.00    +0.144 HD
ATOM     20  H   UNL     1      34.165 -16.101 -20.347  0.00  0.00    +0.144 HD
ENDBRANCH  15  18
ENDBRANCH   9  15
TORSDOF 2
ENDMDL
MODEL 4
REMARK VINA RESULT:      -7.5      2.236      2.598
REMARK  Name = 2720
REMARK  2 active torsions:
REMARK  status: ('A' for Active; 'I' for Inactive)
REMARK    1  A    between atoms: C_9  and  S_15
REMARK    2  A    between atoms: S_15  and  N_18
REMARK                            x       y       z     vdW  Elec       q    Type
REMARK                         _______ _______ _______ _____ _____    ______ ____
ROOT
ATOM      1 CL   UNL     1      35.743 -22.578 -17.378  0.00  0.00    -0.081 Cl
ATOM      2  S   UNL     1      30.585 -24.363 -14.307  0.00  0.00    +0.103 S 
ATOM      3  O   UNL     1      30.637 -23.675 -13.030  0.00  0.00    -0.146 OA
ATOM      4  O   UNL     1      30.587 -25.814 -14.357  0.00  0.00    -0.146 OA
ATOM      5  N   UNL     1      30.660 -22.775 -16.869  0.00  0.00    -0.293 N 
ATOM      6  N   UNL     1      29.308 -23.806 -15.157  0.00  0.00    -0.110 NA
ATOM      7  C   UNL     1      32.039 -23.856 -15.177  0.00  0.00    +0.144 C 
ATOM      8  C   UNL     1      31.914 -23.121 -16.358  0.00  0.00    +0.070 C 
ATOM      9  C   UNL     1      34.437 -23.819 -15.325  0.00  0.00    +0.134 C 
ATOM     10  C   UNL     1      33.282 -24.211 -14.652  0.00  0.00    +0.042 C 
ATOM     11  C   UNL     1      33.086 -22.738 -17.020  0.00  0.00    +0.029 C 
ATOM     12  C   UNL     1      34.340 -23.084 -16.507  0.00  0.00    +0.078 C 
ATOM     13  C   UNL     1      29.499 -23.136 -16.245  0.00  0.00    +0.187 C 
ATOM     14  H   UNL     1      30.612 -22.256 -17.704  0.00  0.00    +0.154 HD
ENDROOT
BRANCH   9  15
ATOM     15  S   UNL     1      35.983 -24.282 -14.643  0.00  0.00    +0.058 S 
ATOM     16  O   UNL     1      36.578 -25.287 -15.509  0.00  0.00    -0.153 OA
ATOM     17  O   UNL     1      36.720 -23.072 -14.318  0.00  0.00    -0.153 OA
BRANCH  15  18
ATOM     18  N   UNL     1      35.480 -25.029 -13.192  0.00  0.00    -0.203 NA
ATOM     19  H   UNL     1      36.203 -24.915 -12.482  0.00  0.00    +0.144 HD
ATOM     20  H   UNL     1      35.320 -26.022 -13.358  0.00  0.00    +0.144 HD
ENDBRANCH  15  18
ENDBRANCH   9  15
TORSDOF 2
ENDMDL
MODEL 5
REMARK VINA RESULT:      -7.5      3.366      4.791
REMARK  Name = 2720
REMARK  2 active torsions:
REMARK  status: ('A' for Active; 'I' for Inactive)
REMARK    1  A    between atoms: C_9  and  S_15
REMARK    2  A    between atoms: S_15  and  N_18
REMARK                            x       y       z     vdW  Elec       q    Type
REMARK                         _______ _______ _______ _____ _____    ______ ____
ROOT
ATOM      1 CL   UNL     1      34.816 -23.737 -12.951  0.00  0.00    -0.081 Cl
ATOM      2  S   UNL     1      34.056 -22.423 -19.027  0.00  0.00    +0.103 S 
ATOM      3  O   UNL     1      33.061 -21.367 -19.072  0.00  0.00    -0.146 OA
ATOM      4  O   UNL     1      33.799 -23.698 -19.669  0.00  0.00    -0.146 OA
ATOM      5  N   UNL     1      36.585 -22.029 -17.433  0.00  0.00    -0.293 N 
ATOM      6  N   UNL     1      35.478 -21.833 -19.568  0.00  0.00    -0.110 NA
ATOM      7  C   UNL     1      34.274 -22.792 -17.311  0.00  0.00    +0.144 C 
ATOM      8  C   UNL     1      35.512 -22.555 -16.707  0.00  0.00    +0.070 C 
ATOM      9  C   UNL     1      33.348 -23.612 -15.251  0.00  0.00    +0.134 C 
ATOM     10  C   UNL     1      33.193 -23.316 -16.603  0.00  0.00    +0.042 C 
ATOM     11  C   UNL     1      35.648 -22.860 -15.349  0.00  0.00    +0.029 C 
ATOM     12  C   UNL     1      34.574 -23.384 -14.624  0.00  0.00    +0.078 C 
ATOM     13  C   UNL     1      36.480 -21.723 -18.761  0.00  0.00    +0.187 C 
ATOM     14  H   UNL     1      37.442 -21.876 -16.974  0.00  0.00    +0.154 HD
ENDROOT
BRANCH   9  15
ATOM     15  S   UNL     1      31.973 -24.271 -14.390  0.00  0.00    +0.058 S 
ATOM     16  O   UNL     1      30.813 -24.198 -15.264  0.00  0.00    -0.153 OA
ATOM     17  O   UNL     1      32.365 -25.544 -13.807  0.00  0.00    -0.153 OA
BRANCH  15  18
ATOM     18  N   UNL     1      31.798 -23.122 -13.140  0.00  0.00    -0.203 NA
ATOM     19  H   UNL     1      32.375 -23.393 -12.344  0.00  0.00    +0.144 HD
ATOM     20  H   UNL     1      30.821 -23.078 -12.851  0.00  0.00    +0.144 HD
ENDBRANCH  15  18
ENDBRANCH   9  15
TORSDOF 2
ENDMDL
MODEL 6
REMARK VINA RESULT:      -7.5      2.358      5.106
REMARK  Name = 2720
REMARK  2 active torsions:
REMARK  status: ('A' for Active; 'I' for Inactive)
REMARK    1  A    between atoms: C_9  and  S_15
REMARK    2  A    between atoms: S_15  and  N_18
REMARK                            x       y       z     vdW  Elec       q    Type
REMARK                         _______ _______ _______ _____ _____    ______ ____
ROOT
ATOM      1 CL   UNL     1      33.178 -23.254 -16.764  0.00  0.00    -0.081 Cl
ATOM      2  S   UNL     1      37.204 -24.938 -12.273  0.00  0.00    +0.103 S 
ATOM      3  O   UNL     1      36.772 -26.254 -11.839  0.00  0.00    -0.146 OA
ATOM      4  O   UNL     1      37.225 -23.829 -11.336  0.00  0.00    -0.146 OA
ATOM      5  N   UNL     1      37.882 -24.464 -15.172  0.00  0.00    -0.293 N 
ATOM      6  N   UNL     1      38.672 -25.067 -12.973  0.00  0.00    -0.110 NA
ATOM      7  C   UNL     1      36.070 -24.463 -13.544  0.00  0.00    +0.144 C 
ATOM      8  C   UNL     1      36.535 -24.279 -14.849  0.00  0.00    +0.070 C 
ATOM      9  C   UNL     1      33.823 -23.909 -14.193  0.00  0.00    +0.134 C 
ATOM     10  C   UNL     1      34.729 -24.283 -13.203  0.00  0.00    +0.042 C 
ATOM     11  C   UNL     1      35.609 -23.903 -15.829  0.00  0.00    +0.029 C 
ATOM     12  C   UNL     1      34.262 -23.720 -15.503  0.00  0.00    +0.078 C 
ATOM     13  C   UNL     1      38.808 -24.830 -14.236  0.00  0.00    +0.187 C 
ATOM     14  H   UNL     1      38.173 -24.325 -16.103  0.00  0.00    +0.154 HD
ENDROOT
BRANCH   9  15
ATOM     15  S   UNL     1      32.148 -23.689 -13.732  0.00  0.00    +0.058 S 
ATOM     16  O   UNL     1      31.496 -22.896 -14.762  0.00  0.00    -0.153 OA
ATOM     17  O   UNL     1      31.603 -24.983 -13.356  0.00  0.00    -0.153 OA
BRANCH  15  18
ATOM     18  N   UNL     1      32.326 -22.734 -12.328  0.00  0.00    -0.203 NA
ATOM     19  H   UNL     1      32.951 -23.205 -11.673  0.00  0.00    +0.144 HD
ATOM     20  H   UNL     1      31.415 -22.599 -11.890  0.00  0.00    +0.144 HD
ENDBRANCH  15  18
ENDBRANCH   9  15
TORSDOF 2
ENDMDL
MODEL 7
REMARK VINA RESULT:      -7.3      3.749      4.374
REMARK  Name = 2720
REMARK  2 active torsions:
REMARK  status: ('A' for Active; 'I' for Inactive)
REMARK    1  A    between atoms: C_9  and  S_15
REMARK    2  A    between atoms: S_15  and  N_18
REMARK                            x       y       z     vdW  Elec       q    Type
REMARK                         _______ _______ _______ _____ _____    ______ ____
ROOT
ATOM      1 CL   UNL     1      37.549 -22.879 -14.036  0.00  0.00    -0.081 Cl
ATOM      2  S   UNL     1      33.968 -22.340 -19.146  0.00  0.00    +0.103 S 
ATOM      3  O   UNL     1      32.769 -21.651 -18.706  0.00  0.00    -0.146 OA
ATOM      4  O   UNL     1      33.882 -23.679 -19.700  0.00  0.00    -0.146 OA
ATOM      5  N   UNL     1      36.667 -21.061 -18.732  0.00  0.00    -0.293 N 
ATOM      6  N   UNL     1      34.775 -21.384 -20.194  0.00  0.00    -0.110 NA
ATOM      7  C   UNL     1      34.982 -22.489 -17.705  0.00  0.00    +0.144 C 
ATOM      8  C   UNL     1      36.216 -21.835 -17.659  0.00  0.00    +0.070 C 
ATOM      9  C   UNL     1      35.302 -23.393 -15.501  0.00  0.00    +0.134 C 
ATOM     10  C   UNL     1      34.515 -23.266 -16.643  0.00  0.00    +0.042 C 
ATOM     11  C   UNL     1      36.991 -21.976 -16.502  0.00  0.00    +0.029 C 
ATOM     12  C   UNL     1      36.537 -22.750 -15.430  0.00  0.00    +0.078 C 
ATOM     13  C   UNL     1      35.931 -20.906 -19.873  0.00  0.00    +0.187 C 
ATOM     14  H   UNL     1      37.542 -20.615 -18.663  0.00  0.00    +0.154 HD
ENDROOT
BRANCH   9  15
ATOM     15  S   UNL     1      34.689 -24.377 -14.187  0.00  0.00    +0.058 S 
ATOM     16  O   UNL     1      35.045 -23.732 -12.934  0.00  0.00    -0.153 OA
ATOM     17  O   UNL     1      33.301 -24.704 -14.470  0.00  0.00    -0.153 OA
BRANCH  15  18
ATOM     18  N   UNL     1      35.637 -25.785 -14.374  0.00  0.00    -0.203 NA
ATOM     19  H   UNL     1      35.233 -26.374 -15.101  0.00  0.00    +0.144 HD
ATOM     20  H   UNL     1      35.661 -26.299 -13.493  0.00  0.00    +0.144 HD
ENDBRANCH  15  18
ENDBRANCH   9  15
TORSDOF 2
ENDMDL
MODEL 8
REMARK VINA RESULT:      -7.3      4.094      5.148
REMARK  Name = 2720
REMARK  2 active torsions:
REMARK  status: ('A' for Active; 'I' for Inactive)
REMARK    1  A    between atoms: C_9  and  S_15
REMARK    2  A    between atoms: S_15  and  N_18
REMARK                            x       y       z     vdW  Elec       q    Type
REMARK                         _______ _______ _______ _____ _____    ______ ____
ROOT
ATOM      1 CL   UNL     1      36.163 -22.894 -16.437  0.00  0.00    -0.081 Cl
ATOM      2  S   UNL     1      30.024 -23.802 -15.593  0.00  0.00    +0.103 S 
ATOM      3  O   UNL     1      29.690 -24.960 -16.402  0.00  0.00    -0.146 OA
ATOM      4  O   UNL     1      29.403 -22.518 -15.861  0.00  0.00    -0.146 OA
ATOM      5  N   UNL     1      32.155 -24.023 -13.471  0.00  0.00    -0.293 N 
ATOM      6  N   UNL     1      29.810 -24.176 -14.019  0.00  0.00    -0.110 NA
ATOM      7  C   UNL     1      31.758 -23.547 -15.827  0.00  0.00    +0.144 C 
ATOM      8  C   UNL     1      32.628 -23.685 -14.742  0.00  0.00    +0.070 C 
ATOM      9  C   UNL     1      33.576 -23.007 -17.304  0.00  0.00    +0.134 C 
ATOM     10  C   UNL     1      32.212 -23.211 -17.103  0.00  0.00    +0.042 C 
ATOM     11  C   UNL     1      33.994 -23.476 -14.965  0.00  0.00    +0.029 C 
ATOM     12  C   UNL     1      34.465 -23.139 -16.237  0.00  0.00    +0.078 C 
ATOM     13  C   UNL     1      30.827 -24.232 -13.225  0.00  0.00    +0.187 C 
ATOM     14  H   UNL     1      32.798 -24.111 -12.731  0.00  0.00    +0.154 HD
ENDROOT
BRANCH   9  15
ATOM     15  S   UNL     1      34.114 -22.583 -18.916  0.00  0.00    +0.058 S 
ATOM     16  O   UNL     1      35.285 -21.730 -18.794  0.00  0.00    -0.153 OA
ATOM     17  O   UNL     1      34.179 -23.800 -19.711  0.00  0.00    -0.153 OA
BRANCH  15  18
ATOM     18  N   UNL     1      32.796 -21.642 -19.456  0.00  0.00    -0.203 NA
ATOM     19  H   UNL     1      32.932 -21.394 -20.435  0.00  0.00    +0.144 HD
ATOM     20  H   UNL     1      32.734 -20.791 -18.896  0.00  0.00    +0.144 HD
ENDBRANCH  15  18
ENDBRANCH   9  15
TORSDOF 2
ENDMDL
MODEL 9
REMARK VINA RESULT:      -7.1      3.317      5.207
REMARK  Name = 2720
REMARK  2 active torsions:
REMARK  status: ('A' for Active; 'I' for Inactive)
REMARK    1  A    between atoms: C_9  and  S_15
REMARK    2  A    between atoms: S_15  and  N_18
REMARK                            x       y       z     vdW  Elec       q    Type
REMARK                         _______ _______ _______ _____ _____    ______ ____
ROOT
ATOM      1 CL   UNL     1      36.984 -21.728 -18.190  0.00  0.00    -0.081 Cl
ATOM      2  S   UNL     1      33.196 -24.091 -13.799  0.00  0.00    +0.103 S 
ATOM      3  O   UNL     1      32.859 -25.427 -14.257  0.00  0.00    -0.146 OA
ATOM      4  O   UNL     1      32.154 -23.097 -13.611  0.00  0.00    -0.146 OA
ATOM      5  N   UNL     1      36.086 -23.323 -13.417  0.00  0.00    -0.293 N 
ATOM      6  N   UNL     1      34.071 -24.206 -12.427  0.00  0.00    -0.110 NA
ATOM      7  C   UNL     1      34.269 -23.424 -15.036  0.00  0.00    +0.144 C 
ATOM      8  C   UNL     1      35.591 -23.115 -14.708  0.00  0.00    +0.070 C 
ATOM      9  C   UNL     1      34.590 -22.699 -17.305  0.00  0.00    +0.134 C 
ATOM     10  C   UNL     1      33.758 -23.223 -16.319  0.00  0.00    +0.042 C 
ATOM     11  C   UNL     1      36.411 -22.588 -15.712  0.00  0.00    +0.029 C 
ATOM     12  C   UNL     1      35.915 -22.382 -17.002  0.00  0.00    +0.078 C 
ATOM     13  C   UNL     1      35.308 -23.834 -12.417  0.00  0.00    +0.187 C 
ATOM     14  H   UNL     1      37.023 -23.092 -13.223  0.00  0.00    +0.154 HD
ENDROOT
BRANCH   9  15
ATOM     15  S   UNL     1      33.918 -22.456 -18.904  0.00  0.00    +0.058 S 
ATOM     16  O   UNL     1      34.506 -21.250 -19.464  0.00  0.00    -0.153 OA
ATOM     17  O   UNL     1      34.002 -23.713 -19.631  0.00  0.00    -0.153 OA
BRANCH  15  18
ATOM     18  N   UNL     1      32.283 -22.149 -18.520  0.00  0.00    -0.203 NA
ATOM     19  H   UNL     1      31.756 -21.988 -19.378  0.00  0.00    +0.144 HD
ATOM     20  H   UNL     1      32.223 -21.323 -17.924  0.00  0.00    +0.144 HD
ENDBRANCH  15  18
ENDBRANCH   9  15
TORSDOF 2
ENDMDL
