MODEL 1
REMARK VINA RESULT:      -9.6      0.000      0.000
REMARK  Name = 6231
REMARK  2 active torsions:
REMARK  status: ('A' for Active; 'I' for Inactive)
REMARK    1  A    between atoms: C_6  and  O_20
REMARK    2  A    between atoms: C_6  and  C_22
REMARK                            x       y       z     vdW  Elec       q    Type
REMARK                         _______ _______ _______ _____ _____    ______ ____
ROOT
ATOM      1  O   UNL     1      33.759 -23.283 -14.990  0.00  0.00    -0.296 OA
ATOM      2  C   UNL     1      34.461 -18.648 -21.757  0.00  0.00    +0.033 C 
ATOM      3  C   UNL     1      35.684 -19.561 -21.499  0.00  0.00    +0.004 C 
ATOM      4  C   UNL     1      35.648 -20.201 -20.111  0.00  0.00    +0.004 C 
ATOM      5  C   UNL     1      34.377 -21.097 -20.011  0.00  0.00    +0.018 C 
ATOM      6  C   UNL     1      34.828 -18.081 -23.161  0.00  0.00    +0.142 C 
ATOM      7  C   UNL     1      33.184 -19.503 -21.650  0.00  0.00    +0.004 C 
ATOM      8  C   UNL     1      36.872 -18.683 -21.879  0.00  0.00    +0.004 C 
ATOM      9  C   UNL     1      33.104 -20.261 -20.307  0.00  0.00    +0.004 C 
ATOM     10  C   UNL     1      36.351 -17.805 -23.037  0.00  0.00    +0.039 C 
ATOM     11  C   UNL     1      36.884 -21.044 -19.802  0.00  0.00    +0.005 C 
ATOM     12  C   UNL     1      34.335 -17.468 -20.746  0.00  0.00    +0.003 C 
ATOM     13  C   UNL     1      34.338 -21.878 -18.699  0.00  0.00    -0.052 C 
ATOM     14  C   UNL     1      36.811 -21.560 -18.364  0.00  0.00    +0.022 C 
ATOM     15  C   UNL     1      35.446 -22.060 -17.944  0.00  0.00    -0.045 C 
ATOM     16  C   UNL     1      33.008 -22.482 -18.304  0.00  0.00    +0.029 C 
ATOM     17  C   UNL     1      35.445 -22.775 -16.617  0.00  0.00    +0.086 C 
ATOM     18  C   UNL     1      33.106 -23.596 -17.269  0.00  0.00    +0.069 C 
ATOM     19  C   UNL     1      34.058 -23.187 -16.180  0.00  0.00    +0.155 C 
ENDROOT
BRANCH   6  20
ATOM     20  O   UNL     1      34.127 -16.875 -23.438  0.00  0.00    -0.375 OA
ATOM     21  H   UNL     1      33.484 -17.031 -24.149  0.00  0.00    +0.211 HD
ENDBRANCH   6  20
BRANCH   6  22
ATOM     22  C   UNL     1      34.572 -19.028 -24.264  0.00  0.00    -0.053 C 
ATOM     23  C   UNL     1      34.364 -19.799 -25.160  0.00  0.00    -0.012 C 
ENDBRANCH   6  22
TORSDOF 2
ENDMDL
MODEL 2
REMARK VINA RESULT:      -8.2      2.555      7.928
REMARK  Name = 6231
REMARK  2 active torsions:
REMARK  status: ('A' for Active; 'I' for Inactive)
REMARK    1  A    between atoms: C_6  and  O_20
REMARK    2  A    between atoms: C_6  and  C_22
REMARK                            x       y       z     vdW  Elec       q    Type
REMARK                         _______ _______ _______ _____ _____    ______ ____
ROOT
ATOM      1  O   UNL     1      33.755 -18.886 -21.062  0.00  0.00    -0.296 OA
ATOM      2  C   UNL     1      36.890 -23.324 -14.878  0.00  0.00    +0.033 C 
ATOM      3  C   UNL     1      35.675 -23.990 -15.568  0.00  0.00    +0.004 C 
ATOM      4  C   UNL     1      34.953 -23.037 -16.520  0.00  0.00    +0.004 C 
ATOM      5  C   UNL     1      35.944 -22.614 -17.645  0.00  0.00    +0.018 C 
ATOM      6  C   UNL     1      37.335 -24.475 -13.926  0.00  0.00    +0.142 C 
ATOM      7  C   UNL     1      37.885 -22.881 -15.967  0.00  0.00    +0.004 C 
ATOM      8  C   UNL     1      34.899 -24.606 -14.407  0.00  0.00    +0.004 C 
ATOM      9  C   UNL     1      37.219 -21.980 -17.029  0.00  0.00    +0.004 C 
ATOM     10  C   UNL     1      35.985 -25.028 -13.395  0.00  0.00    +0.039 C 
ATOM     11  C   UNL     1      33.703 -23.645 -17.152  0.00  0.00    +0.005 C 
ATOM     12  C   UNL     1      36.519 -22.071 -14.027  0.00  0.00    +0.003 C 
ATOM     13  C   UNL     1      35.259 -21.765 -18.713  0.00  0.00    -0.052 C 
ATOM     14  C   UNL     1      32.992 -22.594 -18.006  0.00  0.00    +0.022 C 
ATOM     15  C   UNL     1      33.914 -21.743 -18.852  0.00  0.00    -0.045 C 
ATOM     16  C   UNL     1      36.160 -20.983 -19.645  0.00  0.00    +0.029 C 
ATOM     17  C   UNL     1      33.191 -20.879 -19.853  0.00  0.00    +0.086 C 
ATOM     18  C   UNL     1      35.488 -20.530 -20.934  0.00  0.00    +0.069 C 
ATOM     19  C   UNL     1      34.126 -19.975 -20.624  0.00  0.00    +0.155 C 
ENDROOT
BRANCH   6  20
ATOM     20  O   UNL     1      38.128 -23.988 -12.851  0.00  0.00    -0.375 OA
ATOM     21  H   UNL     1      38.343 -24.719 -12.251  0.00  0.00    +0.211 HD
ENDBRANCH   6  20
BRANCH   6  22
ATOM     22  C   UNL     1      38.089 -25.545 -14.609  0.00  0.00    -0.053 C 
ATOM     23  C   UNL     1      38.702 -26.415 -15.163  0.00  0.00    -0.012 C 
ENDBRANCH   6  22
TORSDOF 2
ENDMDL
MODEL 3
REMARK VINA RESULT:      -8.1      3.657      8.763
REMARK  Name = 6231
REMARK  2 active torsions:
REMARK  status: ('A' for Active; 'I' for Inactive)
REMARK    1  A    between atoms: C_6  and  O_20
REMARK    2  A    between atoms: C_6  and  C_22
REMARK                            x       y       z     vdW  Elec       q    Type
REMARK                         _______ _______ _______ _____ _____    ______ ____
ROOT
ATOM      1  O   UNL     1      33.027 -22.164 -20.631  0.00  0.00    -0.296 OA
ATOM      2  C   UNL     1      36.425 -25.187 -13.769  0.00  0.00    +0.033 C 
ATOM      3  C   UNL     1      37.054 -23.852 -14.239  0.00  0.00    +0.004 C 
ATOM      4  C   UNL     1      36.596 -23.458 -15.643  0.00  0.00    +0.004 C 
ATOM      5  C   UNL     1      35.052 -23.255 -15.623  0.00  0.00    +0.018 C 
ATOM      6  C   UNL     1      37.141 -25.364 -12.397  0.00  0.00    +0.142 C 
ATOM      7  C   UNL     1      34.893 -25.023 -13.753  0.00  0.00    +0.004 C 
ATOM      8  C   UNL     1      38.543 -24.047 -13.972  0.00  0.00    +0.004 C 
ATOM      9  C   UNL     1      34.346 -24.539 -15.113  0.00  0.00    +0.004 C 
ATOM     10  C   UNL     1      38.600 -24.930 -12.708  0.00  0.00    +0.039 C 
ATOM     11  C   UNL     1      37.265 -22.186 -16.162  0.00  0.00    +0.005 C 
ATOM     12  C   UNL     1      36.769 -26.399 -14.687  0.00  0.00    +0.003 C 
ATOM     13  C   UNL     1      34.533 -22.728 -16.960  0.00  0.00    -0.052 C 
ATOM     14  C   UNL     1      36.828 -21.923 -17.603  0.00  0.00    +0.022 C 
ATOM     15  C   UNL     1      35.354 -22.148 -17.864  0.00  0.00    -0.045 C 
ATOM     16  C   UNL     1      33.044 -22.843 -17.207  0.00  0.00    +0.029 C 
ATOM     17  C   UNL     1      34.899 -21.665 -19.217  0.00  0.00    +0.086 C 
ATOM     18  C   UNL     1      32.518 -21.930 -18.306  0.00  0.00    +0.069 C 
ATOM     19  C   UNL     1      33.445 -21.980 -19.489  0.00  0.00    +0.155 C 
ENDROOT
BRANCH   6  20
ATOM     20  O   UNL     1      37.110 -26.717 -11.961  0.00  0.00    -0.375 OA
ATOM     21  H   UNL     1      36.194 -27.039 -11.969  0.00  0.00    +0.211 HD
ENDBRANCH   6  20
BRANCH   6  22
ATOM     22  C   UNL     1      36.577 -24.521 -11.325  0.00  0.00    -0.053 C 
ATOM     23  C   UNL     1      36.118 -23.835 -10.454  0.00  0.00    -0.012 C 
ENDBRANCH   6  22
TORSDOF 2
ENDMDL
MODEL 4
REMARK VINA RESULT:      -8.1      5.647      8.715
REMARK  Name = 6231
REMARK  2 active torsions:
REMARK  status: ('A' for Active; 'I' for Inactive)
REMARK    1  A    between atoms: C_6  and  O_20
REMARK    2  A    between atoms: C_6  and  C_22
REMARK                            x       y       z     vdW  Elec       q    Type
REMARK                         _______ _______ _______ _____ _____    ______ ____
ROOT
ATOM      1  O   UNL     1      28.770 -23.821 -16.483  0.00  0.00    -0.296 OA
ATOM      2  C   UNL     1      36.432 -25.018 -13.720  0.00  0.00    +0.033 C 
ATOM      3  C   UNL     1      36.321 -23.895 -14.780  0.00  0.00    +0.004 C 
ATOM      4  C   UNL     1      34.955 -23.877 -15.467  0.00  0.00    +0.004 C 
ATOM      5  C   UNL     1      33.864 -23.601 -14.390  0.00  0.00    +0.018 C 
ATOM      6  C   UNL     1      37.920 -24.849 -13.290  0.00  0.00    +0.142 C 
ATOM      7  C   UNL     1      35.353 -24.780 -12.647  0.00  0.00    +0.004 C 
ATOM      8  C   UNL     1      37.575 -24.082 -15.630  0.00  0.00    +0.004 C 
ATOM      9  C   UNL     1      33.941 -24.660 -13.260  0.00  0.00    +0.004 C 
ATOM     10  C   UNL     1      38.644 -24.588 -14.639  0.00  0.00    +0.039 C 
ATOM     11  C   UNL     1      34.848 -22.830 -16.573  0.00  0.00    +0.005 C 
ATOM     12  C   UNL     1      36.226 -26.450 -14.300  0.00  0.00    +0.003 C 
ATOM     13  C   UNL     1      32.481 -23.435 -15.017  0.00  0.00    -0.052 C 
ATOM     14  C   UNL     1      33.492 -22.950 -17.269  0.00  0.00    +0.022 C 
ATOM     15  C   UNL     1      32.322 -23.165 -16.333  0.00  0.00    -0.045 C 
ATOM     16  C   UNL     1      31.292 -23.539 -14.086  0.00  0.00    +0.029 C 
ATOM     17  C   UNL     1      30.979 -23.048 -17.007  0.00  0.00    +0.086 C 
ATOM     18  C   UNL     1      30.007 -22.936 -14.638  0.00  0.00    +0.069 C 
ATOM     19  C   UNL     1      29.831 -23.353 -16.072  0.00  0.00    +0.155 C 
ENDROOT
BRANCH   6  20
ATOM     20  O   UNL     1      38.425 -26.028 -12.677  0.00  0.00    -0.375 OA
ATOM     21  H   UNL     1      38.423 -26.754 -13.321  0.00  0.00    +0.211 HD
ENDBRANCH   6  20
BRANCH   6  22
ATOM     22  C   UNL     1      38.141 -23.717 -12.367  0.00  0.00    -0.053 C 
ATOM     23  C   UNL     1      38.320 -22.797 -11.618  0.00  0.00    -0.012 C 
ENDBRANCH   6  22
TORSDOF 2
ENDMDL
MODEL 5
REMARK VINA RESULT:      -7.4     12.780     16.844
REMARK  Name = 6231
REMARK  2 active torsions:
REMARK  status: ('A' for Active; 'I' for Inactive)
REMARK    1  A    between atoms: C_6  and  O_20
REMARK    2  A    between atoms: C_6  and  C_22
REMARK                            x       y       z     vdW  Elec       q    Type
REMARK                         _______ _______ _______ _____ _____    ______ ____
ROOT
ATOM      1  O   UNL     1      31.414  -1.955 -29.282  0.00  0.00    -0.296 OA
ATOM      2  C   UNL     1      31.817  -7.521 -23.230  0.00  0.00    +0.033 C 
ATOM      3  C   UNL     1      33.202  -7.081 -23.764  0.00  0.00    +0.004 C 
ATOM      4  C   UNL     1      33.095  -6.265 -25.052  0.00  0.00    +0.004 C 
ATOM      5  C   UNL     1      32.287  -4.967 -24.750  0.00  0.00    +0.018 C 
ATOM      6  C   UNL     1      32.251  -8.392 -22.013  0.00  0.00    +0.142 C 
ATOM      7  C   UNL     1      30.987  -6.257 -22.935  0.00  0.00    +0.004 C 
ATOM      8  C   UNL     1      34.008  -8.377 -23.773  0.00  0.00    +0.004 C 
ATOM      9  C   UNL     1      30.897  -5.323 -24.161  0.00  0.00    +0.004 C 
ATOM     10  C   UNL     1      33.473  -9.176 -22.565  0.00  0.00    +0.039 C 
ATOM     11  C   UNL     1      34.452  -5.888 -25.643  0.00  0.00    +0.005 C 
ATOM     12  C   UNL     1      31.010  -8.404 -24.229  0.00  0.00    +0.003 C 
ATOM     13  C   UNL     1      32.250  -4.031 -25.956  0.00  0.00    -0.052 C 
ATOM     14  C   UNL     1      34.252  -5.164 -26.975  0.00  0.00    +0.022 C 
ATOM     15  C   UNL     1      33.132  -4.146 -26.976  0.00  0.00    -0.045 C 
ATOM     16  C   UNL     1      31.208  -2.934 -25.938  0.00  0.00    +0.029 C 
ATOM     17  C   UNL     1      33.100  -3.283 -28.211  0.00  0.00    +0.086 C 
ATOM     18  C   UNL     1      31.487  -1.786 -26.897  0.00  0.00    +0.069 C 
ATOM     19  C   UNL     1      31.922  -2.335 -28.227  0.00  0.00    +0.155 C 
ENDROOT
BRANCH   6  20
ATOM     20  O   UNL     1      31.223  -9.291 -21.619  0.00  0.00    -0.375 OA
ATOM     21  H   UNL     1      30.516  -9.286 -22.284  0.00  0.00    +0.211 HD
ENDBRANCH   6  20
BRANCH   6  22
ATOM     22  C   UNL     1      32.648  -7.599 -20.833  0.00  0.00    -0.053 C 
ATOM     23  C   UNL     1      32.970  -6.954 -19.873  0.00  0.00    -0.012 C 
ENDBRANCH   6  22
TORSDOF 2
ENDMDL
MODEL 6
REMARK VINA RESULT:      -7.4      6.041      8.142
REMARK  Name = 6231
REMARK  2 active torsions:
REMARK  status: ('A' for Active; 'I' for Inactive)
REMARK    1  A    between atoms: C_6  and  O_20
REMARK    2  A    between atoms: C_6  and  C_22
REMARK                            x       y       z     vdW  Elec       q    Type
REMARK                         _______ _______ _______ _____ _____    ______ ____
ROOT
ATOM      1  O   UNL     1      27.615 -21.584 -16.482  0.00  0.00    -0.296 OA
ATOM      2  C   UNL     1      35.512 -23.562 -15.264  0.00  0.00    +0.033 C 
ATOM      3  C   UNL     1      34.576 -24.003 -14.112  0.00  0.00    +0.004 C 
ATOM      4  C   UNL     1      33.180 -23.393 -14.234  0.00  0.00    +0.004 C 
ATOM      5  C   UNL     1      32.536 -23.888 -15.563  0.00  0.00    +0.018 C 
ATOM      6  C   UNL     1      36.842 -24.241 -14.817  0.00  0.00    +0.142 C 
ATOM      7  C   UNL     1      34.894 -24.026 -16.597  0.00  0.00    +0.004 C 
ATOM      8  C   UNL     1      35.399 -23.726 -12.858  0.00  0.00    +0.004 C 
ATOM      9  C   UNL     1      33.444 -23.527 -16.769  0.00  0.00    +0.004 C 
ATOM     10  C   UNL     1      36.858 -23.995 -13.283  0.00  0.00    +0.039 C 
ATOM     11  C   UNL     1      32.261 -23.747 -13.066  0.00  0.00    +0.005 C 
ATOM     12  C   UNL     1      35.726 -22.020 -15.344  0.00  0.00    +0.003 C 
ATOM     13  C   UNL     1      31.085 -23.428 -15.695  0.00  0.00    -0.052 C 
ATOM     14  C   UNL     1      30.927 -23.017 -13.218  0.00  0.00    +0.022 C 
ATOM     15  C   UNL     1      30.371 -23.009 -14.626  0.00  0.00    -0.045 C 
ATOM     16  C   UNL     1      30.467 -23.509 -17.074  0.00  0.00    +0.029 C 
ATOM     17  C   UNL     1      28.957 -22.494 -14.716  0.00  0.00    +0.086 C 
ATOM     18  C   UNL     1      28.944 -23.480 -17.081  0.00  0.00    +0.069 C 
ATOM     19  C   UNL     1      28.456 -22.414 -16.140  0.00  0.00    +0.155 C 
ENDROOT
BRANCH   6  20
ATOM     20  O   UNL     1      37.972 -23.631 -15.428  0.00  0.00    -0.375 OA
ATOM     21  H   UNL     1      37.779 -22.696 -15.604  0.00  0.00    +0.211 HD
ENDBRANCH   6  20
BRANCH   6  22
ATOM     22  C   UNL     1      36.889 -25.689 -15.100  0.00  0.00    -0.053 C 
ATOM     23  C   UNL     1      36.926 -26.866 -15.330  0.00  0.00    -0.012 C 
ENDBRANCH   6  22
TORSDOF 2
ENDMDL
MODEL 7
REMARK VINA RESULT:      -7.1      6.087      8.031
REMARK  Name = 6231
REMARK  2 active torsions:
REMARK  status: ('A' for Active; 'I' for Inactive)
REMARK    1  A    between atoms: C_6  and  O_20
REMARK    2  A    between atoms: C_6  and  C_22
REMARK                            x       y       z     vdW  Elec       q    Type
REMARK                         _______ _______ _______ _____ _____    ______ ____
ROOT
ATOM      1  O   UNL     1      38.775 -23.222 -11.618  0.00  0.00    -0.296 OA
ATOM      2  C   UNL     1      31.139 -23.386 -14.689  0.00  0.00    +0.033 C 
ATOM      3  C   UNL     1      32.245 -23.506 -15.765  0.00  0.00    +0.004 C 
ATOM      4  C   UNL     1      33.635 -23.203 -15.206  0.00  0.00    +0.004 C 
ATOM      5  C   UNL     1      33.960 -24.247 -14.096  0.00  0.00    +0.018 C 
ATOM      6  C   UNL     1      29.873 -23.640 -15.560  0.00  0.00    +0.142 C 
ATOM      7  C   UNL     1      31.441 -24.398 -13.567  0.00  0.00    +0.004 C 
ATOM      8  C   UNL     1      31.711 -22.663 -16.919  0.00  0.00    +0.004 C 
ATOM      9  C   UNL     1      32.865 -24.225 -12.997  0.00  0.00    +0.004 C 
ATOM     10  C   UNL     1      30.180 -22.846 -16.859  0.00  0.00    +0.039 C 
ATOM     11  C   UNL     1      34.734 -23.236 -16.266  0.00  0.00    +0.005 C 
ATOM     12  C   UNL     1      31.041 -21.970 -14.045  0.00  0.00    +0.003 C 
ATOM     13  C   UNL     1      35.389 -24.095 -13.578  0.00  0.00    -0.052 C 
ATOM     14  C   UNL     1      36.067 -22.825 -15.641  0.00  0.00    +0.022 C 
ATOM     15  C   UNL     1      36.333 -23.423 -14.276  0.00  0.00    -0.045 C 
ATOM     16  C   UNL     1      35.715 -24.772 -12.264  0.00  0.00    +0.029 C 
ATOM     17  C   UNL     1      37.739 -23.199 -13.780  0.00  0.00    +0.086 C 
ATOM     18  C   UNL     1      37.203 -24.979 -12.017  0.00  0.00    +0.069 C 
ATOM     19  C   UNL     1      37.953 -23.728 -12.380  0.00  0.00    +0.155 C 
ENDROOT
BRANCH   6  20
ATOM     20  O   UNL     1      28.698 -23.136 -14.937  0.00  0.00    -0.375 OA
ATOM     21  H   UNL     1      28.926 -22.764 -14.071  0.00  0.00    +0.211 HD
ENDBRANCH   6  20
BRANCH   6  22
ATOM     22  C   UNL     1      29.652 -25.065 -15.877  0.00  0.00    -0.053 C 
ATOM     23  C   UNL     1      29.474 -26.224 -16.135  0.00  0.00    -0.012 C 
ENDBRANCH   6  22
TORSDOF 2
ENDMDL
