MODEL 1
REMARK VINA RESULT:     -12.9      0.000      0.000
REMARK  Name = 447767
REMARK  2 active torsions:
REMARK  status: ('A' for Active; 'I' for Inactive)
REMARK    1  A    between atoms: N_2  and  C_10
REMARK    2  A    between atoms: C_8  and  C_24
REMARK                            x       y       z     vdW  Elec       q    Type
REMARK                         _______ _______ _______ _____ _____    ______ ____
ROOT
ATOM      1  O   UNL     1      35.876 -18.436 -23.020  0.00  0.00    -0.270 OA
ATOM      2  N   UNL     1      33.444 -14.178 -22.122  0.00  0.00    +0.396 N 
ATOM      3  N   UNL     1      34.699 -16.744 -21.915  0.00  0.00    -0.280 N 
ATOM      4  C   UNL     1      32.747 -15.295 -21.466  0.00  0.00    -0.054 C 
ATOM      5  C   UNL     1      34.307 -14.676 -23.203  0.00  0.00    -0.054 C 
ATOM      6  C   UNL     1      33.743 -16.305 -20.892  0.00  0.00    +0.071 C 
ATOM      7  C   UNL     1      35.339 -15.661 -22.657  0.00  0.00    +0.071 C 
ATOM      8  C   UNL     1      35.074 -18.067 -22.162  0.00  0.00    +0.249 C 
ATOM      9  H   UNL     1      34.029 -13.713 -21.429  0.00  0.00    -0.079 HD
ENDROOT
BRANCH   2  10
ATOM     10  C   UNL     1      32.482 -13.206 -22.640  0.00  0.00    -0.011 C 
ATOM     11  C   UNL     1      33.074 -12.342 -23.745  0.00  0.00    -0.038 C 
ATOM     12  C   UNL     1      32.111 -12.155 -21.602  0.00  0.00    -0.038 C 
ATOM     13  C   UNL     1      33.041 -10.978 -23.377  0.00  0.00    -0.006 C 
ATOM     14  C   UNL     1      32.449 -10.864 -22.062  0.00  0.00    -0.006 C 
ATOM     15  C   UNL     1      33.577 -12.743 -24.972  0.00  0.00    -0.006 C 
ATOM     16  C   UNL     1      31.506 -12.344 -20.369  0.00  0.00    -0.006 C 
ATOM     17  C   UNL     1      33.525 -10.004 -24.236  0.00  0.00    -0.000 C 
ATOM     18  C   UNL     1      32.195  -9.747 -21.281  0.00  0.00    -0.000 C 
ATOM     19  C   UNL     1      34.065 -11.762 -25.837  0.00  0.00    -0.000 C 
ATOM     20  C   UNL     1      31.251 -11.219 -19.582  0.00  0.00    -0.000 C 
ATOM     21  C   UNL     1      34.040 -10.406 -25.472  0.00  0.00    -0.000 C 
ATOM     22  C   UNL     1      31.593  -9.934 -20.034  0.00  0.00    -0.000 C 
ENDBRANCH   2  10
BRANCH   8  24
ATOM     23  N   UNL     1      33.042 -22.147 -18.937  0.00  0.00    -0.312 N 
ATOM     24  C   UNL     1      34.478 -19.124 -21.333  0.00  0.00    +0.054 C 
ATOM     25  C   UNL     1      35.312 -19.966 -20.592  0.00  0.00    +0.006 C 
ATOM     26  C   UNL     1      33.095 -19.269 -21.297  0.00  0.00    +0.006 C 
ATOM     27  C   UNL     1      34.733 -20.974 -19.799  0.00  0.00    +0.015 C 
ATOM     28  C   UNL     1      33.342 -21.100 -19.778  0.00  0.00    +0.048 C 
ATOM     29  C   UNL     1      32.499 -20.263 -20.516  0.00  0.00    +0.015 C 
ATOM     30  C   UNL     1      35.255 -21.982 -18.939  0.00  0.00    +0.017 C 
ATOM     31  C   UNL     1      34.192 -22.686 -18.425  0.00  0.00    +0.062 C 
ATOM     32  H   UNL     1      32.132 -22.462 -18.732  0.00  0.00    +0.152 HD
ENDBRANCH   8  24
TORSDOF 2
ENDMDL
MODEL 2
REMARK VINA RESULT:     -11.0      1.087      1.678
REMARK  Name = 447767
REMARK  2 active torsions:
REMARK  status: ('A' for Active; 'I' for Inactive)
REMARK    1  A    between atoms: N_2  and  C_10
REMARK    2  A    between atoms: C_8  and  C_24
REMARK                            x       y       z     vdW  Elec       q    Type
REMARK                         _______ _______ _______ _____ _____    ______ ____
ROOT
ATOM      1  O   UNL     1      36.738 -19.028 -22.891  0.00  0.00    -0.270 OA
ATOM      2  N   UNL     1      33.777 -15.077 -22.208  0.00  0.00    +0.396 N 
ATOM      3  N   UNL     1      35.434 -17.386 -21.857  0.00  0.00    -0.280 N 
ATOM      4  C   UNL     1      33.337 -16.182 -21.343  0.00  0.00    -0.054 C 
ATOM      5  C   UNL     1      34.589 -15.589 -23.321  0.00  0.00    -0.054 C 
ATOM      6  C   UNL     1      34.534 -16.952 -20.782  0.00  0.00    +0.071 C 
ATOM      7  C   UNL     1      35.814 -16.334 -22.796  0.00  0.00    +0.071 C 
ATOM      8  C   UNL     1      35.984 -18.664 -21.990  0.00  0.00    +0.249 C 
ATOM      9  H   UNL     1      34.352 -14.443 -21.654  0.00  0.00    -0.079 HD
ENDROOT
BRANCH   2  10
ATOM     10  C   UNL     1      32.625 -14.331 -22.714  0.00  0.00    -0.011 C 
ATOM     11  C   UNL     1      32.897 -13.705 -24.075  0.00  0.00    -0.038 C 
ATOM     12  C   UNL     1      32.323 -13.099 -21.871  0.00  0.00    -0.038 C 
ATOM     13  C   UNL     1      32.765 -12.300 -24.009  0.00  0.00    -0.006 C 
ATOM     14  C   UNL     1      32.412 -11.928 -22.656  0.00  0.00    -0.006 C 
ATOM     15  C   UNL     1      33.214 -14.342 -25.264  0.00  0.00    -0.006 C 
ATOM     16  C   UNL     1      31.981 -13.041 -20.529  0.00  0.00    -0.006 C 
ATOM     17  C   UNL     1      32.961 -11.519 -25.137  0.00  0.00    -0.000 C 
ATOM     18  C   UNL     1      32.170 -10.683 -22.097  0.00  0.00    -0.000 C 
ATOM     19  C   UNL     1      33.412 -13.555 -26.400  0.00  0.00    -0.000 C 
ATOM     20  C   UNL     1      31.737 -11.787 -19.966  0.00  0.00    -0.000 C 
ATOM     21  C   UNL     1      33.288 -12.158 -26.337  0.00  0.00    -0.000 C 
ATOM     22  C   UNL     1      31.832 -10.620 -20.742  0.00  0.00    -0.000 C 
ENDBRANCH   2  10
BRANCH   8  24
ATOM     23  N   UNL     1      34.478 -22.470 -18.192  0.00  0.00    -0.312 N 
ATOM     24  C   UNL     1      35.651 -19.672 -20.974  0.00  0.00    +0.054 C 
ATOM     25  C   UNL     1      34.314 -20.017 -20.762  0.00  0.00    +0.006 C 
ATOM     26  C   UNL     1      36.672 -20.269 -20.241  0.00  0.00    +0.006 C 
ATOM     27  C   UNL     1      34.004 -20.985 -19.789  0.00  0.00    +0.015 C 
ATOM     28  C   UNL     1      35.045 -21.570 -19.065  0.00  0.00    +0.048 C 
ATOM     29  C   UNL     1      36.388 -21.233 -19.270  0.00  0.00    +0.015 C 
ATOM     30  C   UNL     1      32.792 -21.566 -19.318  0.00  0.00    +0.017 C 
ATOM     31  C   UNL     1      33.116 -22.473 -18.337  0.00  0.00    +0.062 C 
ATOM     32  H   UNL     1      34.978 -23.029 -17.555  0.00  0.00    +0.152 HD
ENDBRANCH   8  24
TORSDOF 2
ENDMDL
MODEL 3
REMARK VINA RESULT:     -10.7      3.885      6.802
REMARK  Name = 447767
REMARK  2 active torsions:
REMARK  status: ('A' for Active; 'I' for Inactive)
REMARK    1  A    between atoms: N_2  and  C_10
REMARK    2  A    between atoms: C_8  and  C_24
REMARK                            x       y       z     vdW  Elec       q    Type
REMARK                         _______ _______ _______ _____ _____    ______ ____
ROOT
ATOM      1  O   UNL     1      31.784 -13.218 -20.295  0.00  0.00    -0.270 OA
ATOM      2  N   UNL     1      32.397  -8.836 -22.590  0.00  0.00    +0.396 N 
ATOM      3  N   UNL     1      32.119 -11.617 -21.965  0.00  0.00    -0.280 N 
ATOM      4  C   UNL     1      33.347  -9.817 -23.133  0.00  0.00    -0.054 C 
ATOM      5  C   UNL     1      31.923  -9.259 -21.264  0.00  0.00    -0.054 C 
ATOM      6  C   UNL     1      32.706 -11.202 -23.245  0.00  0.00    +0.071 C 
ATOM      7  C   UNL     1      31.244 -10.625 -21.346  0.00  0.00    +0.071 C 
ATOM      8  C   UNL     1      32.276 -12.870 -21.367  0.00  0.00    +0.249 C 
ATOM      9  H   UNL     1      31.594  -8.783 -23.217  0.00  0.00    -0.079 HD
ENDROOT
BRANCH   2  10
ATOM     10  C   UNL     1      33.011  -7.511 -22.517  0.00  0.00    -0.011 C 
ATOM     11  C   UNL     1      31.981  -6.409 -22.309  0.00  0.00    -0.038 C 
ATOM     12  C   UNL     1      33.637  -7.093 -23.841  0.00  0.00    -0.038 C 
ATOM     13  C   UNL     1      32.021  -5.487 -23.379  0.00  0.00    -0.006 C 
ATOM     14  C   UNL     1      33.037  -5.907 -24.319  0.00  0.00    -0.006 C 
ATOM     15  C   UNL     1      31.106  -6.241 -21.248  0.00  0.00    -0.006 C 
ATOM     16  C   UNL     1      34.662  -7.712 -24.538  0.00  0.00    -0.006 C 
ATOM     17  C   UNL     1      31.171  -4.392 -23.398  0.00  0.00    -0.000 C 
ATOM     18  C   UNL     1      33.454  -5.336 -25.511  0.00  0.00    -0.000 C 
ATOM     19  C   UNL     1      30.250  -5.139 -21.268  0.00  0.00    -0.000 C 
ATOM     20  C   UNL     1      35.082  -7.137 -25.739  0.00  0.00    -0.000 C 
ATOM     21  C   UNL     1      30.281  -4.224 -22.333  0.00  0.00    -0.000 C 
ATOM     22  C   UNL     1      34.483  -5.961 -26.220  0.00  0.00    -0.000 C 
ENDBRANCH   2  10
BRANCH   8  24
ATOM     23  N   UNL     1      35.234 -16.642 -24.231  0.00  0.00    -0.312 N 
ATOM     24  C   UNL     1      33.089 -13.875 -22.065  0.00  0.00    +0.054 C 
ATOM     25  C   UNL     1      32.830 -14.153 -23.410  0.00  0.00    +0.006 C 
ATOM     26  C   UNL     1      34.104 -14.533 -21.379  0.00  0.00    +0.006 C 
ATOM     27  C   UNL     1      33.614 -15.116 -24.073  0.00  0.00    +0.015 C 
ATOM     28  C   UNL     1      34.628 -15.763 -23.363  0.00  0.00    +0.048 C 
ATOM     29  C   UNL     1      34.896 -15.492 -22.016  0.00  0.00    +0.015 C 
ATOM     30  C   UNL     1      33.634 -15.638 -25.397  0.00  0.00    +0.017 C 
ATOM     31  C   UNL     1      34.639 -16.574 -25.463  0.00  0.00    +0.062 C 
ATOM     32  H   UNL     1      35.985 -17.234 -24.000  0.00  0.00    +0.152 HD
ENDBRANCH   8  24
TORSDOF 2
ENDMDL
MODEL 4
REMARK VINA RESULT:     -10.6      1.405      2.062
REMARK  Name = 447767
REMARK  2 active torsions:
REMARK  status: ('A' for Active; 'I' for Inactive)
REMARK    1  A    between atoms: N_2  and  C_10
REMARK    2  A    between atoms: C_8  and  C_24
REMARK                            x       y       z     vdW  Elec       q    Type
REMARK                         _______ _______ _______ _____ _____    ______ ____
ROOT
ATOM      1  O   UNL     1      34.771 -19.281 -24.897  0.00  0.00    -0.270 OA
ATOM      2  N   UNL     1      34.123 -14.386 -24.217  0.00  0.00    +0.396 N 
ATOM      3  N   UNL     1      34.946 -17.121 -24.018  0.00  0.00    -0.280 N 
ATOM      4  C   UNL     1      34.108 -15.074 -22.917  0.00  0.00    -0.054 C 
ATOM      5  C   UNL     1      33.832 -15.333 -25.302  0.00  0.00    -0.054 C 
ATOM      6  C   UNL     1      35.131 -16.210 -22.883  0.00  0.00    +0.071 C 
ATOM      7  C   UNL     1      34.858 -16.464 -25.320  0.00  0.00    +0.071 C 
ATOM      8  C   UNL     1      34.926 -18.517 -23.946  0.00  0.00    +0.249 C 
ATOM      9  H   UNL     1      35.055 -14.000 -24.366  0.00  0.00    -0.079 HD
ENDROOT
BRANCH   2  10
ATOM     10  C   UNL     1      33.163 -13.283 -24.226  0.00  0.00    -0.011 C 
ATOM     11  C   UNL     1      33.804 -11.964 -24.637  0.00  0.00    -0.038 C 
ATOM     12  C   UNL     1      32.656 -12.949 -22.829  0.00  0.00    -0.038 C 
ATOM     13  C   UNL     1      33.675 -11.009 -23.604  0.00  0.00    -0.006 C 
ATOM     14  C   UNL     1      32.971 -11.613 -22.494  0.00  0.00    -0.006 C 
ATOM     15  C   UNL     1      34.426 -11.649 -25.834  0.00  0.00    -0.006 C 
ATOM     16  C   UNL     1      31.961 -13.765 -21.951  0.00  0.00    -0.006 C 
ATOM     17  C   UNL     1      34.182  -9.729 -23.760  0.00  0.00    -0.000 C 
ATOM     18  C   UNL     1      32.599 -11.087 -21.267  0.00  0.00    -0.000 C 
ATOM     19  C   UNL     1      34.937 -10.360 -25.991  0.00  0.00    -0.000 C 
ATOM     20  C   UNL     1      31.587 -13.235 -20.715  0.00  0.00    -0.000 C 
ATOM     21  C   UNL     1      34.817  -9.409 -24.964  0.00  0.00    -0.000 C 
ATOM     22  C   UNL     1      31.904 -11.910 -20.376  0.00  0.00    -0.000 C 
ENDBRANCH   2  10
BRANCH   8  24
ATOM     23  N   UNL     1      35.392 -20.998 -18.965  0.00  0.00    -0.312 N 
ATOM     24  C   UNL     1      35.110 -19.146 -22.631  0.00  0.00    +0.054 C 
ATOM     25  C   UNL     1      34.054 -19.859 -22.058  0.00  0.00    +0.006 C 
ATOM     26  C   UNL     1      36.332 -19.024 -21.978  0.00  0.00    +0.006 C 
ATOM     27  C   UNL     1      34.239 -20.461 -20.799  0.00  0.00    +0.015 C 
ATOM     28  C   UNL     1      35.475 -20.325 -20.163  0.00  0.00    +0.048 C 
ATOM     29  C   UNL     1      36.539 -19.613 -20.727  0.00  0.00    +0.015 C 
ATOM     30  C   UNL     1      33.412 -21.240 -19.940  0.00  0.00    +0.017 C 
ATOM     31  C   UNL     1      34.148 -21.554 -18.822  0.00  0.00    +0.062 C 
ATOM     32  H   UNL     1      36.120 -21.070 -18.307  0.00  0.00    +0.152 HD
ENDBRANCH   8  24
TORSDOF 2
ENDMDL
MODEL 5
REMARK VINA RESULT:     -10.6      4.244     10.754
REMARK  Name = 447767
REMARK  2 active torsions:
REMARK  status: ('A' for Active; 'I' for Inactive)
REMARK    1  A    between atoms: N_2  and  C_10
REMARK    2  A    between atoms: C_8  and  C_24
REMARK                            x       y       z     vdW  Elec       q    Type
REMARK                         _______ _______ _______ _____ _____    ______ ____
ROOT
ATOM      1  O   UNL     1      31.649  -6.911 -22.215  0.00  0.00    -0.270 OA
ATOM      2  N   UNL     1      32.769 -11.741 -22.733  0.00  0.00    +0.396 N 
ATOM      3  N   UNL     1      32.799  -8.877 -22.744  0.00  0.00    -0.280 N 
ATOM      4  C   UNL     1      33.166 -11.007 -23.944  0.00  0.00    -0.054 C 
ATOM      5  C   UNL     1      31.761 -10.981 -21.980  0.00  0.00    -0.054 C 
ATOM      6  C   UNL     1      33.731  -9.629 -23.593  0.00  0.00    +0.071 C 
ATOM      7  C   UNL     1      32.306  -9.611 -21.582  0.00  0.00    +0.071 C 
ATOM      8  C   UNL     1      32.430  -7.542 -22.927  0.00  0.00    +0.249 C 
ATOM      9  H   UNL     1      33.592 -11.858 -22.142  0.00  0.00    -0.079 HD
ENDROOT
BRANCH   2  10
ATOM     10  C   UNL     1      32.260 -13.067 -23.079  0.00  0.00    -0.011 C 
ATOM     11  C   UNL     1      32.852 -14.159 -22.199  0.00  0.00    -0.038 C 
ATOM     12  C   UNL     1      32.714 -13.515 -24.462  0.00  0.00    -0.038 C 
ATOM     13  C   UNL     1      33.551 -15.103 -22.985  0.00  0.00    -0.006 C 
ATOM     14  C   UNL     1      33.466 -14.707 -24.374  0.00  0.00    -0.006 C 
ATOM     15  C   UNL     1      32.755 -14.301 -20.824  0.00  0.00    -0.006 C 
ATOM     16  C   UNL     1      32.457 -12.916 -25.685  0.00  0.00    -0.006 C 
ATOM     17  C   UNL     1      34.170 -16.193 -22.395  0.00  0.00    -0.000 C 
ATOM     18  C   UNL     1      33.979 -15.304 -25.515  0.00  0.00    -0.000 C 
ATOM     19  C   UNL     1      33.378 -15.399 -20.230  0.00  0.00    -0.000 C 
ATOM     20  C   UNL     1      32.974 -13.517 -26.834  0.00  0.00    -0.000 C 
ATOM     21  C   UNL     1      34.079 -16.336 -21.006  0.00  0.00    -0.000 C 
ATOM     22  C   UNL     1      33.728 -14.699 -26.749  0.00  0.00    -0.000 C 
ENDBRANCH   2  10
BRANCH   8  24
ATOM     23  N   UNL     1      34.447  -4.629 -27.242  0.00  0.00    -0.312 N 
ATOM     24  C   UNL     1      33.018  -6.807 -24.055  0.00  0.00    +0.054 C 
ATOM     25  C   UNL     1      32.235  -5.888 -24.758  0.00  0.00    +0.006 C 
ATOM     26  C   UNL     1      34.345  -7.036 -24.405  0.00  0.00    +0.006 C 
ATOM     27  C   UNL     1      32.807  -5.187 -25.837  0.00  0.00    +0.015 C 
ATOM     28  C   UNL     1      34.141  -5.433 -26.169  0.00  0.00    +0.048 C 
ATOM     29  C   UNL     1      34.934  -6.351 -25.471  0.00  0.00    +0.015 C 
ATOM     30  C   UNL     1      32.325  -4.206 -26.749  0.00  0.00    +0.017 C 
ATOM     31  C   UNL     1      33.356  -3.884 -27.601  0.00  0.00    +0.062 C 
ATOM     32  H   UNL     1      35.324  -4.594 -27.689  0.00  0.00    +0.152 HD
ENDBRANCH   8  24
TORSDOF 2
ENDMDL
MODEL 6
REMARK VINA RESULT:     -10.4      1.531      2.619
REMARK  Name = 447767
REMARK  2 active torsions:
REMARK  status: ('A' for Active; 'I' for Inactive)
REMARK    1  A    between atoms: N_2  and  C_10
REMARK    2  A    between atoms: C_8  and  C_24
REMARK                            x       y       z     vdW  Elec       q    Type
REMARK                         _______ _______ _______ _____ _____    ______ ____
ROOT
ATOM      1  O   UNL     1      34.461 -16.824 -25.148  0.00  0.00    -0.270 OA
ATOM      2  N   UNL     1      33.320 -12.459 -23.028  0.00  0.00    +0.396 N 
ATOM      3  N   UNL     1      34.389 -15.047 -23.630  0.00  0.00    -0.280 N 
ATOM      4  C   UNL     1      33.309 -13.522 -22.012  0.00  0.00    -0.054 C 
ATOM      5  C   UNL     1      33.171 -13.033 -24.372  0.00  0.00    -0.054 C 
ATOM      6  C   UNL     1      34.433 -14.531 -22.256  0.00  0.00    +0.071 C 
ATOM      7  C   UNL     1      34.300 -14.020 -24.665  0.00  0.00    +0.071 C 
ATOM      8  C   UNL     1      34.497 -16.391 -23.997  0.00  0.00    +0.249 C 
ATOM      9  H   UNL     1      34.218 -11.977 -22.980  0.00  0.00    -0.079 HD
ENDROOT
BRANCH   2  10
ATOM     10  C   UNL     1      32.261 -11.486 -22.765  0.00  0.00    -0.011 C 
ATOM     11  C   UNL     1      32.666 -10.072 -23.162  0.00  0.00    -0.038 C 
ATOM     12  C   UNL     1      31.993 -11.315 -21.275  0.00  0.00    -0.038 C 
ATOM     13  C   UNL     1      32.631  -9.214 -22.040  0.00  0.00    -0.006 C 
ATOM     14  C   UNL     1      32.218  -9.977 -20.882  0.00  0.00    -0.006 C 
ATOM     15  C   UNL     1      33.015  -9.600 -24.417  0.00  0.00    -0.006 C 
ATOM     16  C   UNL     1      31.568 -12.270 -20.366  0.00  0.00    -0.006 C 
ATOM     17  C   UNL     1      32.958  -7.873 -22.166  0.00  0.00    -0.000 C 
ATOM     18  C   UNL     1      32.029  -9.587 -19.566  0.00  0.00    -0.000 C 
ATOM     19  C   UNL     1      33.344  -8.250 -24.544  0.00  0.00    -0.000 C 
ATOM     20  C   UNL     1      31.378 -11.877 -19.040  0.00  0.00    -0.000 C 
ATOM     21  C   UNL     1      33.316  -7.395 -23.430  0.00  0.00    -0.000 C 
ATOM     22  C   UNL     1      31.607 -10.549 -18.644  0.00  0.00    -0.000 C 
ENDBRANCH   2  10
BRANCH   8  24
ATOM     23  N   UNL     1      34.943 -20.247 -19.984  0.00  0.00    -0.312 N 
ATOM     24  C   UNL     1      34.678 -17.388 -22.933  0.00  0.00    +0.054 C 
ATOM     25  C   UNL     1      33.590 -18.168 -22.532  0.00  0.00    +0.006 C 
ATOM     26  C   UNL     1      35.929 -17.543 -22.344  0.00  0.00    +0.006 C 
ATOM     27  C   UNL     1      33.772 -19.123 -21.514  0.00  0.00    +0.015 C 
ATOM     28  C   UNL     1      35.036 -19.260 -20.937  0.00  0.00    +0.048 C 
ATOM     29  C   UNL     1      36.133 -18.485 -21.332  0.00  0.00    +0.015 C 
ATOM     30  C   UNL     1      32.917 -20.063 -20.872  0.00  0.00    +0.017 C 
ATOM     31  C   UNL     1      33.665 -20.738 -19.936  0.00  0.00    +0.062 C 
ATOM     32  H   UNL     1      35.686 -20.556 -19.417  0.00  0.00    +0.152 HD
ENDBRANCH   8  24
TORSDOF 2
ENDMDL
MODEL 7
REMARK VINA RESULT:     -10.1      4.130     10.492
REMARK  Name = 447767
REMARK  2 active torsions:
REMARK  status: ('A' for Active; 'I' for Inactive)
REMARK    1  A    between atoms: N_2  and  C_10
REMARK    2  A    between atoms: C_8  and  C_24
REMARK                            x       y       z     vdW  Elec       q    Type
REMARK                         _______ _______ _______ _____ _____    ______ ____
ROOT
ATOM      1  O   UNL     1      31.342  -7.233 -21.426  0.00  0.00    -0.270 OA
ATOM      2  N   UNL     1      32.717 -11.877 -22.601  0.00  0.00    +0.396 N 
ATOM      3  N   UNL     1      32.507  -9.031 -22.360  0.00  0.00    -0.280 N 
ATOM      4  C   UNL     1      32.778 -11.025 -23.797  0.00  0.00    -0.054 C 
ATOM      5  C   UNL     1      31.839 -11.277 -21.587  0.00  0.00    -0.054 C 
ATOM      6  C   UNL     1      33.290  -9.625 -23.451  0.00  0.00    +0.071 C 
ATOM      7  C   UNL     1      32.342  -9.891 -21.191  0.00  0.00    +0.071 C 
ATOM      8  C   UNL     1      31.997  -7.730 -22.341  0.00  0.00    +0.249 C 
ATOM      9  H   UNL     1      33.657 -11.952 -22.211  0.00  0.00    -0.079 HD
ENDROOT
BRANCH   2  10
ATOM     10  C   UNL     1      32.257 -13.220 -22.950  0.00  0.00    -0.011 C 
ATOM     11  C   UNL     1      32.934 -14.297 -22.113  0.00  0.00    -0.038 C 
ATOM     12  C   UNL     1      32.675 -13.625 -24.357  0.00  0.00    -0.038 C 
ATOM     13  C   UNL     1      33.644 -15.195 -22.943  0.00  0.00    -0.006 C 
ATOM     14  C   UNL     1      33.484 -14.782 -24.320  0.00  0.00    -0.006 C 
ATOM     15  C   UNL     1      32.899 -14.465 -20.738  0.00  0.00    -0.006 C 
ATOM     16  C   UNL     1      32.341 -13.019 -25.558  0.00  0.00    -0.006 C 
ATOM     17  C   UNL     1      34.336 -16.264 -22.396  0.00  0.00    -0.000 C 
ATOM     18  C   UNL     1      33.977 -15.336 -25.491  0.00  0.00    -0.000 C 
ATOM     19  C   UNL     1      33.596 -15.541 -20.188  0.00  0.00    -0.000 C 
ATOM     20  C   UNL     1      32.838 -13.578 -26.737  0.00  0.00    -0.000 C 
ATOM     21  C   UNL     1      34.308 -16.432 -21.008  0.00  0.00    -0.000 C 
ATOM     22  C   UNL     1      33.649 -14.724 -26.703  0.00  0.00    -0.000 C 
ENDBRANCH   2  10
BRANCH   8  24
ATOM     23  N   UNL     1      33.235  -4.537 -26.750  0.00  0.00    -0.312 N 
ATOM     24  C   UNL     1      32.262  -6.863 -23.497  0.00  0.00    +0.054 C 
ATOM     25  C   UNL     1      33.515  -6.907 -24.114  0.00  0.00    +0.006 C 
ATOM     26  C   UNL     1      31.263  -6.015 -23.960  0.00  0.00    +0.006 C 
ATOM     27  C   UNL     1      33.761  -6.075 -25.223  0.00  0.00    +0.015 C 
ATOM     28  C   UNL     1      32.742  -5.231 -25.670  0.00  0.00    +0.048 C 
ATOM     29  C   UNL     1      31.483  -5.180 -25.060  0.00  0.00    +0.015 C 
ATOM     30  C   UNL     1      34.882  -5.861 -26.073  0.00  0.00    +0.017 C 
ATOM     31  C   UNL     1      34.528  -4.910 -27.001  0.00  0.00    +0.062 C 
ATOM     32  H   UNL     1      32.732  -3.867 -27.268  0.00  0.00    +0.152 HD
ENDBRANCH   8  24
TORSDOF 2
ENDMDL
