MODEL 1
REMARK VINA RESULT:     -10.2      0.000      0.000
REMARK  Name = 9820882
REMARK  12 active torsions:
REMARK  status: ('A' for Active; 'I' for Inactive)
REMARK    1  A    between atoms: N_1  and  C_4
REMARK    2  A    between atoms: N_1  and  C_17
REMARK    3  A    between atoms: C_4  and  C_6
REMARK    4  A    between atoms: C_6  and  C_7
REMARK    5  A    between atoms: C_6  and  O_15
REMARK    6  A    between atoms: C_12  and  O_13
REMARK    7  A    between atoms: C_17  and  C_18
REMARK    8  A    between atoms: C_18  and  C_19
REMARK    9  A    between atoms: C_24  and  O_27
REMARK   10  A    between atoms: O_27  and  C_28
REMARK   11  A    between atoms: C_28  and  C_30
REMARK   12  A    between atoms: C_30  and  O_31
REMARK                            x       y       z     vdW  Elec       q    Type
REMARK                         _______ _______ _______ _____ _____    ______ ____
ROOT
ATOM      1  N   UNL     1      34.934 -15.552 -21.792  0.00  0.00    +0.387 N 
ATOM      2  H   UNL     1      34.806 -14.864 -22.534  0.00  0.00    -0.084 HD
ATOM      3  H   UNL     1      35.888 -15.510 -21.434  0.00  0.00    -0.084 HD
ENDROOT
BRANCH   1   4
ATOM      4  C   UNL     1      34.689 -16.896 -22.333  0.00  0.00    -0.030 C 
ATOM      5  C   UNL     1      34.877 -16.836 -23.850  0.00  0.00    -0.021 C 
BRANCH   4   6
ATOM      6  C   UNL     1      35.642 -17.906 -21.656  0.00  0.00    +0.113 C 
BRANCH   6   7
ATOM      7  C   UNL     1      34.929 -19.077 -21.013  0.00  0.00    +0.002 C 
ATOM      8  C   UNL     1      33.546 -19.095 -20.988  0.00  0.00    +0.001 C 
ATOM      9  C   UNL     1      35.677 -20.103 -20.464  0.00  0.00    +0.001 C 
ATOM     10  C   UNL     1      32.889 -20.173 -20.394  0.00  0.00    +0.036 C 
ATOM     11  C   UNL     1      35.021 -21.182 -19.870  0.00  0.00    +0.036 C 
ATOM     12  C   UNL     1      33.627 -21.217 -19.836  0.00  0.00    +0.134 C 
BRANCH  12  13
ATOM     13  O   UNL     1      32.986 -22.269 -19.258  0.00  0.00    -0.506 OA
ATOM     14  H   UNL     1      32.052 -22.263 -19.178  0.00  0.00    +0.292 HD
ENDBRANCH  12  13
ENDBRANCH   6   7
BRANCH   6  15
ATOM     15  O   UNL     1      36.543 -18.453 -22.622  0.00  0.00    -0.382 OA
ATOM     16  H   UNL     1      37.388 -17.977 -22.581  0.00  0.00    +0.211 HD
ENDBRANCH   6  15
ENDBRANCH   4   6
ENDBRANCH   1   4
BRANCH   1  17
ATOM     17  C   UNL     1      34.012 -15.263 -20.708  0.00  0.00    -0.077 C 
BRANCH  17  18
ATOM     18  C   UNL     1      32.602 -15.010 -21.241  0.00  0.00    +0.003 C 
BRANCH  18  19
ATOM     19  C   UNL     1      32.306 -13.536 -21.350  0.00  0.00    -0.028 C 
ATOM     20  C   UNL     1      32.395 -12.889 -22.574  0.00  0.00    -0.023 C 
ATOM     21  C   UNL     1      31.946 -12.845 -20.201  0.00  0.00    -0.006 C 
ATOM     22  C   UNL     1      31.669 -11.480 -20.279  0.00  0.00    +0.012 C 
ATOM     23  C   UNL     1      32.118 -11.525 -22.653  0.00  0.00    +0.032 C 
ATOM     24  C   UNL     1      31.755 -10.820 -21.505  0.00  0.00    +0.135 C 
ATOM     25  C   UNL     1      32.781 -13.624 -23.816  0.00  0.00    +0.031 C 
ATOM     26  C   UNL     1      31.283 -10.742 -19.040  0.00  0.00    +0.034 C 
BRANCH  24  27
ATOM     27  O   UNL     1      31.487  -9.488 -21.599  0.00  0.00    -0.464 OA
BRANCH  27  28
ATOM     28  C   UNL     1      32.600  -8.615 -21.788  0.00  0.00    +0.314 C 
BRANCH  28  30
ATOM     29  O   UNL     1      31.960  -6.385 -21.066  0.00  0.00    -0.246 OA
ATOM     30  C   UNL     1      32.504  -7.455 -20.836  0.00  0.00    +0.359 C 
BRANCH  30  31
ATOM     31  O   UNL     1      33.113  -7.759 -19.662  0.00  0.00    -0.478 OA
ATOM     32  H   UNL     1      33.477  -8.613 -19.532  0.00  0.00    +0.295 HD
ENDBRANCH  30  31
ENDBRANCH  28  30
ENDBRANCH  27  28
ENDBRANCH  24  27
ENDBRANCH  18  19
ENDBRANCH  17  18
ENDBRANCH   1  17
TORSDOF 12
ENDMDL
MODEL 2
REMARK VINA RESULT:     -10.1      1.206      1.691
REMARK  Name = 9820882
REMARK  12 active torsions:
REMARK  status: ('A' for Active; 'I' for Inactive)
REMARK    1  A    between atoms: N_1  and  C_4
REMARK    2  A    between atoms: N_1  and  C_17
REMARK    3  A    between atoms: C_4  and  C_6
REMARK    4  A    between atoms: C_6  and  C_7
REMARK    5  A    between atoms: C_6  and  O_15
REMARK    6  A    between atoms: C_12  and  O_13
REMARK    7  A    between atoms: C_17  and  C_18
REMARK    8  A    between atoms: C_18  and  C_19
REMARK    9  A    between atoms: C_24  and  O_27
REMARK   10  A    between atoms: O_27  and  C_28
REMARK   11  A    between atoms: C_28  and  C_30
REMARK   12  A    between atoms: C_30  and  O_31
REMARK                            x       y       z     vdW  Elec       q    Type
REMARK                         _______ _______ _______ _____ _____    ______ ____
ROOT
ATOM      1  N   UNL     1      34.995 -15.766 -23.303  0.00  0.00    +0.387 N 
ATOM      2  H   UNL     1      35.328 -15.651 -24.260  0.00  0.00    -0.084 HD
ATOM      3  H   UNL     1      35.735 -15.532 -22.642  0.00  0.00    -0.084 HD
ENDROOT
BRANCH   1   4
ATOM      4  C   UNL     1      34.597 -17.165 -23.094  0.00  0.00    -0.030 C 
ATOM      5  C   UNL     1      34.708 -17.892 -24.436  0.00  0.00    -0.021 C 
BRANCH   4   6
ATOM      6  C   UNL     1      35.487 -17.798 -22.001  0.00  0.00    +0.113 C 
BRANCH   6   7
ATOM      7  C   UNL     1      34.824 -18.942 -21.264  0.00  0.00    +0.002 C 
ATOM      8  C   UNL     1      33.445 -18.962 -21.148  0.00  0.00    +0.001 C 
ATOM      9  C   UNL     1      35.612 -19.942 -20.723  0.00  0.00    +0.001 C 
ATOM     10  C   UNL     1      32.835 -20.016 -20.468  0.00  0.00    +0.036 C 
ATOM     11  C   UNL     1      35.002 -20.996 -20.043  0.00  0.00    +0.036 C 
ATOM     12  C   UNL     1      33.613 -21.033 -19.916  0.00  0.00    +0.134 C 
BRANCH  12  13
ATOM     13  O   UNL     1      33.016 -22.061 -19.254  0.00  0.00    -0.506 OA
ATOM     14  H   UNL     1      33.485 -22.525 -18.587  0.00  0.00    +0.292 HD
ENDBRANCH  12  13
ENDBRANCH   6   7
BRANCH   6  15
ATOM     15  O   UNL     1      36.683 -18.321 -22.585  0.00  0.00    -0.382 OA
ATOM     16  H   UNL     1      36.988 -19.084 -22.068  0.00  0.00    +0.211 HD
ENDBRANCH   6  15
ENDBRANCH   4   6
ENDBRANCH   1   4
BRANCH   1  17
ATOM     17  C   UNL     1      33.868 -14.878 -23.079  0.00  0.00    -0.077 C 
BRANCH  17  18
ATOM     18  C   UNL     1      33.819 -13.777 -24.139  0.00  0.00    +0.003 C 
BRANCH  18  19
ATOM     19  C   UNL     1      33.230 -12.503 -23.588  0.00  0.00    -0.028 C 
ATOM     20  C   UNL     1      33.601 -11.273 -24.110  0.00  0.00    -0.023 C 
ATOM     21  C   UNL     1      32.311 -12.592 -22.551  0.00  0.00    -0.006 C 
ATOM     22  C   UNL     1      31.754 -11.426 -22.026  0.00  0.00    +0.012 C 
ATOM     23  C   UNL     1      33.044 -10.107 -23.586  0.00  0.00    +0.032 C 
ATOM     24  C   UNL     1      32.120 -10.184 -22.543  0.00  0.00    +0.135 C 
ATOM     25  C   UNL     1      34.587 -11.167 -25.227  0.00  0.00    +0.031 C 
ATOM     26  C   UNL     1      30.768 -11.528 -20.909  0.00  0.00    +0.034 C 
BRANCH  24  27
ATOM     27  O   UNL     1      31.585  -9.036 -22.042  0.00  0.00    -0.464 OA
BRANCH  27  28
ATOM     28  C   UNL     1      32.497  -8.064 -21.534  0.00  0.00    +0.314 C 
BRANCH  28  30
ATOM     29  O   UNL     1      31.905  -8.906 -19.333  0.00  0.00    -0.246 OA
ATOM     30  C   UNL     1      32.470  -8.077 -20.031  0.00  0.00    +0.359 C 
BRANCH  30  31
ATOM     31  O   UNL     1      33.174  -7.026 -19.540  0.00  0.00    -0.478 OA
ATOM     32  H   UNL     1      32.887  -6.150 -19.711  0.00  0.00    +0.295 HD
ENDBRANCH  30  31
ENDBRANCH  28  30
ENDBRANCH  27  28
ENDBRANCH  24  27
ENDBRANCH  18  19
ENDBRANCH  17  18
ENDBRANCH   1  17
TORSDOF 12
ENDMDL
MODEL 3
REMARK VINA RESULT:      -9.8      5.508     11.443
REMARK  Name = 9820882
REMARK  12 active torsions:
REMARK  status: ('A' for Active; 'I' for Inactive)
REMARK    1  A    between atoms: N_1  and  C_4
REMARK    2  A    between atoms: N_1  and  C_17
REMARK    3  A    between atoms: C_4  and  C_6
REMARK    4  A    between atoms: C_6  and  C_7
REMARK    5  A    between atoms: C_6  and  O_15
REMARK    6  A    between atoms: C_12  and  O_13
REMARK    7  A    between atoms: C_17  and  C_18
REMARK    8  A    between atoms: C_18  and  C_19
REMARK    9  A    between atoms: C_24  and  O_27
REMARK   10  A    between atoms: O_27  and  C_28
REMARK   11  A    between atoms: C_28  and  C_30
REMARK   12  A    between atoms: C_30  and  O_31
REMARK                            x       y       z     vdW  Elec       q    Type
REMARK                         _______ _______ _______ _____ _____    ______ ____
ROOT
ATOM      1  N   UNL     1      34.949 -20.609 -19.726  0.00  0.00    +0.387 N 
ATOM      2  H   UNL     1      34.347 -20.171 -19.028  0.00  0.00    -0.084 HD
ATOM      3  H   UNL     1      35.922 -20.360 -19.555  0.00  0.00    -0.084 HD
ENDROOT
BRANCH   1   4
ATOM      4  C   UNL     1      34.565 -20.134 -21.061  0.00  0.00    -0.030 C 
ATOM      5  C   UNL     1      33.179 -19.493 -20.955  0.00  0.00    -0.021 C 
BRANCH   4   6
ATOM      6  C   UNL     1      35.634 -19.152 -21.588  0.00  0.00    +0.113 C 
BRANCH   6   7
ATOM      7  C   UNL     1      35.185 -18.351 -22.792  0.00  0.00    +0.002 C 
ATOM      8  C   UNL     1      35.124 -16.972 -22.702  0.00  0.00    +0.001 C 
ATOM      9  C   UNL     1      34.844 -19.018 -23.956  0.00  0.00    +0.001 C 
ATOM     10  C   UNL     1      34.708 -16.235 -23.811  0.00  0.00    +0.036 C 
ATOM     11  C   UNL     1      34.429 -18.282 -25.065  0.00  0.00    +0.036 C 
ATOM     12  C   UNL     1      34.361 -16.890 -24.993  0.00  0.00    +0.134 C 
BRANCH  12  13
ATOM     13  O   UNL     1      33.957 -16.170 -26.075  0.00  0.00    -0.506 OA
ATOM     14  H   UNL     1      34.590 -15.733 -26.610  0.00  0.00    +0.292 HD
ENDBRANCH  12  13
ENDBRANCH   6   7
BRANCH   6  15
ATOM     15  O   UNL     1      35.976 -18.208 -20.570  0.00  0.00    -0.382 OA
ATOM     16  H   UNL     1      35.718 -18.560 -19.703  0.00  0.00    +0.211 HD
ENDBRANCH   6  15
ENDBRANCH   4   6
ENDBRANCH   1   4
BRANCH   1  17
ATOM     17  C   UNL     1      34.809 -22.052 -19.638  0.00  0.00    -0.077 C 
BRANCH  17  18
ATOM     18  C   UNL     1      33.740 -22.439 -18.617  0.00  0.00    +0.003 C 
BRANCH  18  19
ATOM     19  C   UNL     1      34.348 -22.764 -17.275  0.00  0.00    -0.028 C 
ATOM     20  C   UNL     1      33.549 -23.206 -16.230  0.00  0.00    -0.023 C 
ATOM     21  C   UNL     1      35.718 -22.609 -17.113  0.00  0.00    -0.006 C 
ATOM     22  C   UNL     1      36.300 -22.904 -15.880  0.00  0.00    +0.012 C 
ATOM     23  C   UNL     1      34.131 -23.501 -14.998  0.00  0.00    +0.032 C 
ATOM     24  C   UNL     1      35.507 -23.350 -14.823  0.00  0.00    +0.135 C 
ATOM     25  C   UNL     1      32.075 -23.377 -16.395  0.00  0.00    +0.031 C 
ATOM     26  C   UNL     1      37.774 -22.734 -15.711  0.00  0.00    +0.034 C 
BRANCH  24  27
ATOM     27  O   UNL     1      36.060 -23.642 -13.613  0.00  0.00    -0.464 OA
BRANCH  27  28
ATOM     28  C   UNL     1      35.221 -24.284 -12.655  0.00  0.00    +0.314 C 
BRANCH  28  30
ATOM     29  O   UNL     1      36.909 -23.673 -11.018  0.00  0.00    -0.246 OA
ATOM     30  C   UNL     1      35.891 -24.282 -11.308  0.00  0.00    +0.359 C 
BRANCH  30  31
ATOM     31  O   UNL     1      35.198 -25.060 -10.439  0.00  0.00    -0.478 OA
ATOM     32  H   UNL     1      34.998 -24.741  -9.582  0.00  0.00    +0.295 HD
ENDBRANCH  30  31
ENDBRANCH  28  30
ENDBRANCH  27  28
ENDBRANCH  24  27
ENDBRANCH  18  19
ENDBRANCH  17  18
ENDBRANCH   1  17
TORSDOF 12
ENDMDL
MODEL 4
REMARK VINA RESULT:      -9.7      1.260      2.383
REMARK  Name = 9820882
REMARK  12 active torsions:
REMARK  status: ('A' for Active; 'I' for Inactive)
REMARK    1  A    between atoms: N_1  and  C_4
REMARK    2  A    between atoms: N_1  and  C_17
REMARK    3  A    between atoms: C_4  and  C_6
REMARK    4  A    between atoms: C_6  and  C_7
REMARK    5  A    between atoms: C_6  and  O_15
REMARK    6  A    between atoms: C_12  and  O_13
REMARK    7  A    between atoms: C_17  and  C_18
REMARK    8  A    between atoms: C_18  and  C_19
REMARK    9  A    between atoms: C_24  and  O_27
REMARK   10  A    between atoms: O_27  and  C_28
REMARK   11  A    between atoms: C_28  and  C_30
REMARK   12  A    between atoms: C_30  and  O_31
REMARK                            x       y       z     vdW  Elec       q    Type
REMARK                         _______ _______ _______ _____ _____    ______ ____
ROOT
ATOM      1  N   UNL     1      35.707 -17.045 -23.667  0.00  0.00    +0.387 N 
ATOM      2  H   UNL     1      35.971 -17.361 -24.600  0.00  0.00    -0.084 HD
ATOM      3  H   UNL     1      36.540 -16.850 -23.113  0.00  0.00    -0.084 HD
ENDROOT
BRANCH   1   4
ATOM      4  C   UNL     1      34.931 -18.100 -23.001  0.00  0.00    -0.030 C 
ATOM      5  C   UNL     1      34.929 -19.330 -23.911  0.00  0.00    -0.021 C 
BRANCH   4   6
ATOM      6  C   UNL     1      35.540 -18.391 -21.612  0.00  0.00    +0.113 C 
BRANCH   6   7
ATOM      7  C   UNL     1      34.845 -19.509 -20.865  0.00  0.00    +0.002 C 
ATOM      8  C   UNL     1      35.604 -20.515 -20.295  0.00  0.00    +0.001 C 
ATOM      9  C   UNL     1      33.464 -19.499 -20.769  0.00  0.00    +0.001 C 
ATOM     10  C   UNL     1      34.962 -21.546 -19.608  0.00  0.00    +0.036 C 
ATOM     11  C   UNL     1      32.822 -20.529 -20.082  0.00  0.00    +0.036 C 
ATOM     12  C   UNL     1      33.572 -21.553 -19.501  0.00  0.00    +0.134 C 
BRANCH  12  13
ATOM     13  O   UNL     1      32.947 -22.558 -18.830  0.00  0.00    -0.506 OA
ATOM     14  H   UNL     1      33.068 -23.448 -19.099  0.00  0.00    +0.292 HD
ENDBRANCH  12  13
ENDBRANCH   6   7
BRANCH   6  15
ATOM     15  O   UNL     1      36.910 -18.776 -21.748  0.00  0.00    -0.382 OA
ATOM     16  H   UNL     1      36.959 -19.677 -22.105  0.00  0.00    +0.211 HD
ENDBRANCH   6  15
ENDBRANCH   4   6
ENDBRANCH   1   4
BRANCH   1  17
ATOM     17  C   UNL     1      34.921 -15.829 -23.779  0.00  0.00    -0.077 C 
BRANCH  17  18
ATOM     18  C   UNL     1      34.031 -15.636 -22.551  0.00  0.00    +0.003 C 
BRANCH  18  19
ATOM     19  C   UNL     1      33.437 -14.251 -22.510  0.00  0.00    -0.028 C 
ATOM     20  C   UNL     1      32.561 -13.891 -21.496  0.00  0.00    -0.023 C 
ATOM     21  C   UNL     1      33.787 -13.349 -23.506  0.00  0.00    -0.006 C 
ATOM     22  C   UNL     1      33.249 -12.062 -23.487  0.00  0.00    +0.012 C 
ATOM     23  C   UNL     1      32.022 -12.604 -21.477  0.00  0.00    +0.032 C 
ATOM     24  C   UNL     1      32.367 -11.690 -22.473  0.00  0.00    +0.135 C 
ATOM     25  C   UNL     1      32.179 -14.853 -20.420  0.00  0.00    +0.031 C 
ATOM     26  C   UNL     1      33.627 -11.098 -24.562  0.00  0.00    +0.034 C 
BRANCH  24  27
ATOM     27  O   UNL     1      31.832 -10.437 -22.440  0.00  0.00    -0.464 OA
BRANCH  27  28
ATOM     28  C   UNL     1      31.659  -9.841 -21.156  0.00  0.00    +0.314 C 
BRANCH  28  30
ATOM     29  O   UNL     1      32.981  -7.968 -21.961  0.00  0.00    -0.246 OA
ATOM     30  C   UNL     1      32.543  -8.631 -21.032  0.00  0.00    +0.359 C 
BRANCH  30  31
ATOM     31  O   UNL     1      32.795  -8.366 -19.726  0.00  0.00    -0.478 OA
ATOM     32  H   UNL     1      32.243  -8.728 -19.060  0.00  0.00    +0.295 HD
ENDBRANCH  30  31
ENDBRANCH  28  30
ENDBRANCH  27  28
ENDBRANCH  24  27
ENDBRANCH  18  19
ENDBRANCH  17  18
ENDBRANCH   1  17
TORSDOF 12
ENDMDL
MODEL 5
REMARK VINA RESULT:      -9.5      3.298      5.259
REMARK  Name = 9820882
REMARK  12 active torsions:
REMARK  status: ('A' for Active; 'I' for Inactive)
REMARK    1  A    between atoms: N_1  and  C_4
REMARK    2  A    between atoms: N_1  and  C_17
REMARK    3  A    between atoms: C_4  and  C_6
REMARK    4  A    between atoms: C_6  and  C_7
REMARK    5  A    between atoms: C_6  and  O_15
REMARK    6  A    between atoms: C_12  and  O_13
REMARK    7  A    between atoms: C_17  and  C_18
REMARK    8  A    between atoms: C_18  and  C_19
REMARK    9  A    between atoms: C_24  and  O_27
REMARK   10  A    between atoms: O_27  and  C_28
REMARK   11  A    between atoms: C_28  and  C_30
REMARK   12  A    between atoms: C_30  and  O_31
REMARK                            x       y       z     vdW  Elec       q    Type
REMARK                         _______ _______ _______ _____ _____    ______ ____
ROOT
ATOM      1  N   UNL     1      35.226 -20.153 -21.161  0.00  0.00    +0.387 N 
ATOM      2  H   UNL     1      35.545 -21.034 -21.564  0.00  0.00    -0.084 HD
ATOM      3  H   UNL     1      36.017 -19.632 -20.783  0.00  0.00    -0.084 HD
ENDROOT
BRANCH   1   4
ATOM      4  C   UNL     1      34.280 -20.434 -20.073  0.00  0.00    -0.030 C 
ATOM      5  C   UNL     1      32.875 -20.076 -20.564  0.00  0.00    -0.021 C 
BRANCH   4   6
ATOM      6  C   UNL     1      34.402 -21.915 -19.652  0.00  0.00    +0.113 C 
BRANCH   6   7
ATOM      7  C   UNL     1      35.196 -22.122 -18.380  0.00  0.00    +0.002 C 
ATOM      8  C   UNL     1      34.614 -22.795 -17.322  0.00  0.00    +0.001 C 
ATOM      9  C   UNL     1      36.489 -21.633 -18.306  0.00  0.00    +0.001 C 
ATOM     10  C   UNL     1      35.346 -22.985 -16.149  0.00  0.00    +0.036 C 
ATOM     11  C   UNL     1      37.222 -21.823 -17.134  0.00  0.00    +0.036 C 
ATOM     12  C   UNL     1      36.650 -22.499 -16.056  0.00  0.00    +0.134 C 
BRANCH  12  13
ATOM     13  O   UNL     1      37.364 -22.685 -14.913  0.00  0.00    -0.506 OA
ATOM     14  H   UNL     1      37.138 -22.212 -14.136  0.00  0.00    +0.292 HD
ENDBRANCH  12  13
ENDBRANCH   6   7
BRANCH   6  15
ATOM     15  O   UNL     1      33.103 -22.468 -19.421  0.00  0.00    -0.382 OA
ATOM     16  H   UNL     1      32.636 -21.930 -18.761  0.00  0.00    +0.211 HD
ENDBRANCH   6  15
ENDBRANCH   4   6
ENDBRANCH   1   4
BRANCH   1  17
ATOM     17  C   UNL     1      34.590 -19.356 -22.196  0.00  0.00    -0.077 C 
BRANCH  17  18
ATOM     18  C   UNL     1      35.543 -18.284 -22.724  0.00  0.00    +0.003 C 
BRANCH  18  19
ATOM     19  C   UNL     1      34.809 -17.012 -23.069  0.00  0.00    -0.028 C 
ATOM     20  C   UNL     1      34.487 -16.096 -22.078  0.00  0.00    -0.023 C 
ATOM     21  C   UNL     1      34.465 -16.783 -24.394  0.00  0.00    -0.006 C 
ATOM     22  C   UNL     1      33.785 -15.613 -24.734  0.00  0.00    +0.012 C 
ATOM     23  C   UNL     1      33.807 -14.926 -22.418  0.00  0.00    +0.032 C 
ATOM     24  C   UNL     1      33.457 -14.685 -23.747  0.00  0.00    +0.135 C 
ATOM     25  C   UNL     1      34.853 -16.332 -20.650  0.00  0.00    +0.031 C 
ATOM     26  C   UNL     1      33.417 -15.373 -26.161  0.00  0.00    +0.034 C 
BRANCH  24  27
ATOM     27  O   UNL     1      32.794 -13.538 -24.062  0.00  0.00    -0.464 OA
BRANCH  27  28
ATOM     28  C   UNL     1      33.383 -12.311 -23.637  0.00  0.00    +0.314 C 
BRANCH  28  30
ATOM     29  O   UNL     1      33.792 -11.860 -25.989  0.00  0.00    -0.246 OA
ATOM     30  C   UNL     1      34.008 -11.611 -24.812  0.00  0.00    +0.359 C 
BRANCH  30  31
ATOM     31  O   UNL     1      34.859 -10.645 -24.384  0.00  0.00    -0.478 OA
ATOM     32  H   UNL     1      35.759 -10.666 -24.644  0.00  0.00    +0.295 HD
ENDBRANCH  30  31
ENDBRANCH  28  30
ENDBRANCH  27  28
ENDBRANCH  24  27
ENDBRANCH  18  19
ENDBRANCH  17  18
ENDBRANCH   1  17
TORSDOF 12
ENDMDL
MODEL 6
REMARK VINA RESULT:      -9.5      5.151     10.938
REMARK  Name = 9820882
REMARK  12 active torsions:
REMARK  status: ('A' for Active; 'I' for Inactive)
REMARK    1  A    between atoms: N_1  and  C_4
REMARK    2  A    between atoms: N_1  and  C_17
REMARK    3  A    between atoms: C_4  and  C_6
REMARK    4  A    between atoms: C_6  and  C_7
REMARK    5  A    between atoms: C_6  and  O_15
REMARK    6  A    between atoms: C_12  and  O_13
REMARK    7  A    between atoms: C_17  and  C_18
REMARK    8  A    between atoms: C_18  and  C_19
REMARK    9  A    between atoms: C_24  and  O_27
REMARK   10  A    between atoms: O_27  and  C_28
REMARK   11  A    between atoms: C_28  and  C_30
REMARK   12  A    between atoms: C_30  and  O_31
REMARK                            x       y       z     vdW  Elec       q    Type
REMARK                         _______ _______ _______ _____ _____    ______ ____
ROOT
ATOM      1  N   UNL     1      36.322 -20.037 -20.287  0.00  0.00    +0.387 N 
ATOM      2  H   UNL     1      36.498 -19.338 -19.565  0.00  0.00    -0.084 HD
ATOM      3  H   UNL     1      37.196 -20.300 -20.741  0.00  0.00    -0.084 HD
ENDROOT
BRANCH   1   4
ATOM      4  C   UNL     1      35.415 -19.472 -21.295  0.00  0.00    -0.030 C 
ATOM      5  C   UNL     1      33.984 -19.613 -20.774  0.00  0.00    -0.021 C 
BRANCH   4   6
ATOM      6  C   UNL     1      35.804 -18.003 -21.575  0.00  0.00    +0.113 C 
BRANCH   6   7
ATOM      7  C   UNL     1      35.210 -17.450 -22.853  0.00  0.00    +0.002 C 
ATOM      8  C   UNL     1      35.113 -18.270 -23.963  0.00  0.00    +0.001 C 
ATOM      9  C   UNL     1      34.777 -16.136 -22.881  0.00  0.00    +0.001 C 
ATOM     10  C   UNL     1      34.567 -17.759 -25.141  0.00  0.00    +0.036 C 
ATOM     11  C   UNL     1      34.231 -15.625 -24.059  0.00  0.00    +0.036 C 
ATOM     12  C   UNL     1      34.125 -16.437 -25.188  0.00  0.00    +0.134 C 
BRANCH  12  13
ATOM     13  O   UNL     1      33.591 -15.941 -26.337  0.00  0.00    -0.506 OA
ATOM     14  H   UNL     1      34.146 -15.748 -27.068  0.00  0.00    +0.292 HD
ENDBRANCH  12  13
ENDBRANCH   6   7
BRANCH   6  15
ATOM     15  O   UNL     1      35.346 -17.164 -20.511  0.00  0.00    -0.382 OA
ATOM     16  H   UNL     1      34.747 -17.668 -19.937  0.00  0.00    +0.211 HD
ENDBRANCH   6  15
ENDBRANCH   4   6
ENDBRANCH   1   4
BRANCH   1  17
ATOM     17  C   UNL     1      35.735 -21.217 -19.677  0.00  0.00    -0.077 C 
BRANCH  17  18
ATOM     18  C   UNL     1      36.517 -21.638 -18.433  0.00  0.00    +0.003 C 
BRANCH  18  19
ATOM     19  C   UNL     1      35.636 -22.353 -17.440  0.00  0.00    -0.028 C 
ATOM     20  C   UNL     1      36.162 -22.829 -16.248  0.00  0.00    -0.023 C 
ATOM     21  C   UNL     1      34.292 -22.521 -17.747  0.00  0.00    -0.006 C 
ATOM     22  C   UNL     1      33.459 -23.179 -16.842  0.00  0.00    +0.012 C 
ATOM     23  C   UNL     1      35.329 -23.488 -15.344  0.00  0.00    +0.032 C 
ATOM     24  C   UNL     1      33.978 -23.662 -15.641  0.00  0.00    +0.135 C 
ATOM     25  C   UNL     1      37.606 -22.653 -15.909  0.00  0.00    +0.031 C 
ATOM     26  C   UNL     1      32.015 -23.359 -17.179  0.00  0.00    +0.034 C 
BRANCH  24  27
ATOM     27  O   UNL     1      33.177 -24.307 -14.747  0.00  0.00    -0.464 OA
BRANCH  27  28
ATOM     28  C   UNL     1      32.604 -23.520 -13.705  0.00  0.00    +0.314 C 
BRANCH  28  30
ATOM     29  O   UNL     1      30.272 -23.081 -14.227  0.00  0.00    -0.246 OA
ATOM     30  C   UNL     1      31.119 -23.749 -13.652  0.00  0.00    +0.359 C 
BRANCH  30  31
ATOM     31  O   UNL     1      30.837 -24.819 -12.868  0.00  0.00    -0.478 OA
ATOM     32  H   UNL     1      30.195 -24.745 -12.189  0.00  0.00    +0.295 HD
ENDBRANCH  30  31
ENDBRANCH  28  30
ENDBRANCH  27  28
ENDBRANCH  24  27
ENDBRANCH  18  19
ENDBRANCH  17  18
ENDBRANCH   1  17
TORSDOF 12
ENDMDL
MODEL 7
REMARK VINA RESULT:      -9.4      2.436      4.502
REMARK  Name = 9820882
REMARK  12 active torsions:
REMARK  status: ('A' for Active; 'I' for Inactive)
REMARK    1  A    between atoms: N_1  and  C_4
REMARK    2  A    between atoms: N_1  and  C_17
REMARK    3  A    between atoms: C_4  and  C_6
REMARK    4  A    between atoms: C_6  and  C_7
REMARK    5  A    between atoms: C_6  and  O_15
REMARK    6  A    between atoms: C_12  and  O_13
REMARK    7  A    between atoms: C_17  and  C_18
REMARK    8  A    between atoms: C_18  and  C_19
REMARK    9  A    between atoms: C_24  and  O_27
REMARK   10  A    between atoms: O_27  and  C_28
REMARK   11  A    between atoms: C_28  and  C_30
REMARK   12  A    between atoms: C_30  and  O_31
REMARK                            x       y       z     vdW  Elec       q    Type
REMARK                         _______ _______ _______ _____ _____    ______ ____
ROOT
ATOM      1  N   UNL     1      35.327 -20.100 -21.252  0.00  0.00    +0.387 N 
ATOM      2  H   UNL     1      35.664 -20.992 -21.616  0.00  0.00    -0.084 HD
ATOM      3  H   UNL     1      36.102 -19.565 -20.861  0.00  0.00    -0.084 HD
ENDROOT
BRANCH   1   4
ATOM      4  C   UNL     1      34.341 -20.352 -20.194  0.00  0.00    -0.030 C 
ATOM      5  C   UNL     1      32.972 -19.898 -20.705  0.00  0.00    -0.021 C 
BRANCH   4   6
ATOM      6  C   UNL     1      34.365 -21.849 -19.811  0.00  0.00    +0.113 C 
BRANCH   6   7
ATOM      7  C   UNL     1      35.035 -22.126 -18.481  0.00  0.00    +0.002 C 
ATOM      8  C   UNL     1      36.330 -21.687 -18.273  0.00  0.00    +0.001 C 
ATOM      9  C   UNL     1      34.335 -22.811 -17.504  0.00  0.00    +0.001 C 
ATOM     10  C   UNL     1      36.947 -21.944 -17.049  0.00  0.00    +0.036 C 
ATOM     11  C   UNL     1      34.952 -23.068 -16.279  0.00  0.00    +0.036 C 
ATOM     12  C   UNL     1      36.258 -22.633 -16.052  0.00  0.00    +0.134 C 
BRANCH  12  13
ATOM     13  O   UNL     1      36.860 -22.882 -14.857  0.00  0.00    -0.506 OA
ATOM     14  H   UNL     1      36.342 -23.100 -14.106  0.00  0.00    +0.292 HD
ENDBRANCH  12  13
ENDBRANCH   6   7
BRANCH   6  15
ATOM     15  O   UNL     1      33.030 -22.351 -19.712  0.00  0.00    -0.382 OA
ATOM     16  H   UNL     1      32.923 -22.820 -18.869  0.00  0.00    +0.211 HD
ENDBRANCH   6  15
ENDBRANCH   4   6
ENDBRANCH   1   4
BRANCH   1  17
ATOM     17  C   UNL     1      34.730 -19.338 -22.335  0.00  0.00    -0.077 C 
BRANCH  17  18
ATOM     18  C   UNL     1      35.516 -18.054 -22.601  0.00  0.00    +0.003 C 
BRANCH  18  19
ATOM     19  C   UNL     1      34.611 -16.849 -22.642  0.00  0.00    -0.028 C 
ATOM     20  C   UNL     1      34.319 -16.229 -23.848  0.00  0.00    -0.023 C 
ATOM     21  C   UNL     1      34.080 -16.378 -21.449  0.00  0.00    -0.006 C 
ATOM     22  C   UNL     1      33.241 -15.263 -21.464  0.00  0.00    +0.012 C 
ATOM     23  C   UNL     1      33.480 -15.115 -23.864  0.00  0.00    +0.032 C 
ATOM     24  C   UNL     1      32.941 -14.633 -22.671  0.00  0.00    +0.135 C 
ATOM     25  C   UNL     1      34.884 -16.729 -25.137  0.00  0.00    +0.031 C 
ATOM     26  C   UNL     1      32.674 -14.760 -20.177  0.00  0.00    +0.034 C 
BRANCH  24  27
ATOM     27  O   UNL     1      32.123 -13.544 -22.703  0.00  0.00    -0.464 OA
BRANCH  27  28
ATOM     28  C   UNL     1      32.724 -12.291 -23.023  0.00  0.00    +0.314 C 
BRANCH  28  30
ATOM     29  O   UNL     1      32.313 -10.012 -22.288  0.00  0.00    -0.246 OA
ATOM     30  C   UNL     1      31.950 -11.175 -22.377  0.00  0.00    +0.359 C 
BRANCH  30  31
ATOM     31  O   UNL     1      30.768 -11.640 -21.900  0.00  0.00    -0.478 OA
ATOM     32  H   UNL     1      30.625 -12.562 -21.820  0.00  0.00    +0.295 HD
ENDBRANCH  30  31
ENDBRANCH  28  30
ENDBRANCH  27  28
ENDBRANCH  24  27
ENDBRANCH  18  19
ENDBRANCH  17  18
ENDBRANCH   1  17
TORSDOF 12
ENDMDL
MODEL 8
REMARK VINA RESULT:      -9.3      1.509      2.624
REMARK  Name = 9820882
REMARK  12 active torsions:
REMARK  status: ('A' for Active; 'I' for Inactive)
REMARK    1  A    between atoms: N_1  and  C_4
REMARK    2  A    between atoms: N_1  and  C_17
REMARK    3  A    between atoms: C_4  and  C_6
REMARK    4  A    between atoms: C_6  and  C_7
REMARK    5  A    between atoms: C_6  and  O_15
REMARK    6  A    between atoms: C_12  and  O_13
REMARK    7  A    between atoms: C_17  and  C_18
REMARK    8  A    between atoms: C_18  and  C_19
REMARK    9  A    between atoms: C_24  and  O_27
REMARK   10  A    between atoms: O_27  and  C_28
REMARK   11  A    between atoms: C_28  and  C_30
REMARK   12  A    between atoms: C_30  and  O_31
REMARK                            x       y       z     vdW  Elec       q    Type
REMARK                         _______ _______ _______ _____ _____    ______ ____
ROOT
ATOM      1  N   UNL     1      35.278 -17.081 -23.984  0.00  0.00    +0.387 N 
ATOM      2  H   UNL     1      35.970 -17.396 -24.663  0.00  0.00    -0.084 HD
ATOM      3  H   UNL     1      35.714 -16.471 -23.294  0.00  0.00    -0.084 HD
ENDROOT
BRANCH   1   4
ATOM      4  C   UNL     1      34.711 -18.248 -23.295  0.00  0.00    -0.030 C 
ATOM      5  C   UNL     1      34.992 -19.485 -24.152  0.00  0.00    -0.021 C 
BRANCH   4   6
ATOM      6  C   UNL     1      35.318 -18.357 -21.879  0.00  0.00    +0.113 C 
BRANCH   6   7
ATOM      7  C   UNL     1      34.699 -19.450 -21.034  0.00  0.00    +0.002 C 
ATOM      8  C   UNL     1      35.522 -20.369 -20.409  0.00  0.00    +0.001 C 
ATOM      9  C   UNL     1      33.322 -19.505 -20.907  0.00  0.00    +0.001 C 
ATOM     10  C   UNL     1      34.950 -21.378 -19.632  0.00  0.00    +0.036 C 
ATOM     11  C   UNL     1      32.750 -20.513 -20.130  0.00  0.00    +0.036 C 
ATOM     12  C   UNL     1      33.564 -21.449 -19.492  0.00  0.00    +0.134 C 
BRANCH  12  13
ATOM     13  O   UNL     1      33.008 -22.431 -18.733  0.00  0.00    -0.506 OA
ATOM     14  H   UNL     1      33.064 -23.326 -19.008  0.00  0.00    +0.292 HD
ENDBRANCH  12  13
ENDBRANCH   6   7
BRANCH   6  15
ATOM     15  O   UNL     1      36.716 -18.646 -21.965  0.00  0.00    -0.382 OA
ATOM     16  H   UNL     1      37.225 -17.854 -21.727  0.00  0.00    +0.211 HD
ENDBRANCH   6  15
ENDBRANCH   4   6
ENDBRANCH   1   4
BRANCH   1  17
ATOM     17  C   UNL     1      34.235 -16.341 -24.673  0.00  0.00    -0.077 C 
BRANCH  17  18
ATOM     18  C   UNL     1      34.525 -14.840 -24.653  0.00  0.00    +0.003 C 
BRANCH  18  19
ATOM     19  C   UNL     1      33.723 -14.136 -23.588  0.00  0.00    -0.028 C 
ATOM     20  C   UNL     1      33.320 -12.820 -23.766  0.00  0.00    -0.023 C 
ATOM     21  C   UNL     1      33.401 -14.832 -22.431  0.00  0.00    -0.006 C 
ATOM     22  C   UNL     1      32.661 -14.199 -21.433  0.00  0.00    +0.012 C 
ATOM     23  C   UNL     1      32.580 -12.187 -22.768  0.00  0.00    +0.032 C 
ATOM     24  C   UNL     1      32.250 -12.877 -21.601  0.00  0.00    +0.135 C 
ATOM     25  C   UNL     1      33.660 -12.063 -25.007  0.00  0.00    +0.031 C 
ATOM     26  C   UNL     1      32.319 -14.953 -20.190  0.00  0.00    +0.034 C 
BRANCH  24  27
ATOM     27  O   UNL     1      31.526 -12.245 -20.636  0.00  0.00    -0.464 OA
BRANCH  27  28
ATOM     28  C   UNL     1      31.363 -10.834 -20.768  0.00  0.00    +0.314 C 
BRANCH  28  30
ATOM     29  O   UNL     1      32.171  -9.038 -19.346  0.00  0.00    -0.246 OA
ATOM     30  C   UNL     1      31.698 -10.158 -19.468  0.00  0.00    +0.359 C 
BRANCH  30  31
ATOM     31  O   UNL     1      31.397 -10.972 -18.425  0.00  0.00    -0.478 OA
ATOM     32  H   UNL     1      30.582 -11.435 -18.412  0.00  0.00    +0.295 HD
ENDBRANCH  30  31
ENDBRANCH  28  30
ENDBRANCH  27  28
ENDBRANCH  24  27
ENDBRANCH  18  19
ENDBRANCH  17  18
ENDBRANCH   1  17
TORSDOF 12
ENDMDL
MODEL 9
REMARK VINA RESULT:      -9.2      5.234      9.088
REMARK  Name = 9820882
REMARK  12 active torsions:
REMARK  status: ('A' for Active; 'I' for Inactive)
REMARK    1  A    between atoms: N_1  and  C_4
REMARK    2  A    between atoms: N_1  and  C_17
REMARK    3  A    between atoms: C_4  and  C_6
REMARK    4  A    between atoms: C_6  and  C_7
REMARK    5  A    between atoms: C_6  and  O_15
REMARK    6  A    between atoms: C_12  and  O_13
REMARK    7  A    between atoms: C_17  and  C_18
REMARK    8  A    between atoms: C_18  and  C_19
REMARK    9  A    between atoms: C_24  and  O_27
REMARK   10  A    between atoms: O_27  and  C_28
REMARK   11  A    between atoms: C_28  and  C_30
REMARK   12  A    between atoms: C_30  and  O_31
REMARK                            x       y       z     vdW  Elec       q    Type
REMARK                         _______ _______ _______ _____ _____    ______ ____
ROOT
ATOM      1  N   UNL     1      32.514 -23.744 -16.464  0.00  0.00    +0.387 N 
ATOM      2  H   UNL     1      31.580 -24.145 -16.538  0.00  0.00    -0.084 HD
ATOM      3  H   UNL     1      33.219 -24.473 -16.573  0.00  0.00    -0.084 HD
ENDROOT
BRANCH   1   4
ATOM      4  C   UNL     1      32.671 -23.125 -15.141  0.00  0.00    -0.030 C 
ATOM      5  C   UNL     1      31.275 -22.878 -14.567  0.00  0.00    -0.021 C 
BRANCH   4   6
ATOM      6  C   UNL     1      33.530 -24.041 -14.241  0.00  0.00    +0.113 C 
BRANCH   6   7
ATOM      7  C   UNL     1      35.002 -24.035 -14.594  0.00  0.00    +0.002 C 
ATOM      8  C   UNL     1      35.682 -25.236 -14.678  0.00  0.00    +0.001 C 
ATOM      9  C   UNL     1      35.634 -22.825 -14.824  0.00  0.00    +0.001 C 
ATOM     10  C   UNL     1      37.039 -25.229 -15.002  0.00  0.00    +0.036 C 
ATOM     11  C   UNL     1      36.991 -22.818 -15.148  0.00  0.00    +0.036 C 
ATOM     12  C   UNL     1      37.693 -24.020 -15.237  0.00  0.00    +0.134 C 
BRANCH  12  13
ATOM     13  O   UNL     1      39.016 -24.014 -15.555  0.00  0.00    -0.506 OA
ATOM     14  H   UNL     1      39.293 -23.744 -16.409  0.00  0.00    +0.292 HD
ENDBRANCH  12  13
ENDBRANCH   6   7
BRANCH   6  15
ATOM     15  O   UNL     1      33.431 -23.621 -12.877  0.00  0.00    -0.382 OA
ATOM     16  H   UNL     1      32.805 -24.195 -12.407  0.00  0.00    +0.211 HD
ENDBRANCH   6  15
ENDBRANCH   4   6
ENDBRANCH   1   4
BRANCH   1  17
ATOM     17  C   UNL     1      32.694 -22.756 -17.513  0.00  0.00    -0.077 C 
BRANCH  17  18
ATOM     18  C   UNL     1      34.134 -22.756 -18.026  0.00  0.00    +0.003 C 
BRANCH  18  19
ATOM     19  C   UNL     1      34.356 -21.679 -19.057  0.00  0.00    -0.028 C 
ATOM     20  C   UNL     1      35.639 -21.250 -19.362  0.00  0.00    -0.023 C 
ATOM     21  C   UNL     1      33.249 -21.129 -19.689  0.00  0.00    -0.006 C 
ATOM     22  C   UNL     1      33.431 -20.130 -20.646  0.00  0.00    +0.012 C 
ATOM     23  C   UNL     1      35.822 -20.252 -20.319  0.00  0.00    +0.032 C 
ATOM     24  C   UNL     1      34.717 -19.692 -20.960  0.00  0.00    +0.135 C 
ATOM     25  C   UNL     1      36.836 -21.836 -18.688  0.00  0.00    +0.031 C 
ATOM     26  C   UNL     1      32.237 -19.541 -21.321  0.00  0.00    +0.034 C 
BRANCH  24  27
ATOM     27  O   UNL     1      34.912 -18.718 -21.893  0.00  0.00    -0.464 OA
BRANCH  27  28
ATOM     28  C   UNL     1      35.291 -17.430 -21.414  0.00  0.00    +0.314 C 
BRANCH  28  30
ATOM     29  O   UNL     1      33.661 -15.801 -22.183  0.00  0.00    -0.246 OA
ATOM     30  C   UNL     1      34.735 -16.366 -22.320  0.00  0.00    +0.359 C 
BRANCH  30  31
ATOM     31  O   UNL     1      35.605 -16.108 -23.329  0.00  0.00    -0.478 OA
ATOM     32  H   UNL     1      35.943 -15.242 -23.446  0.00  0.00    +0.295 HD
ENDBRANCH  30  31
ENDBRANCH  28  30
ENDBRANCH  27  28
ENDBRANCH  24  27
ENDBRANCH  18  19
ENDBRANCH  17  18
ENDBRANCH   1  17
TORSDOF 12
ENDMDL
