MODEL 1
REMARK VINA RESULT:      -7.4      0.000      0.000
REMARK  Name = 5284627
REMARK  4 active torsions:
REMARK  status: ('A' for Active; 'I' for Inactive)
REMARK    1  A    between atoms: C_8  and  C_17
REMARK    2  A    between atoms: C_17  and  O_18
REMARK    3  A    between atoms: O_18  and  S_19
REMARK    4  A    between atoms: S_19  and  N_22
REMARK                            x       y       z     vdW  Elec       q    Type
REMARK                         _______ _______ _______ _____ _____    ______ ____
ROOT
ATOM      1  O   UNL     1      33.556 -24.147 -13.120  0.00  0.00    -0.329 OA
ATOM      2  O   UNL     1      34.508 -25.421 -15.570  0.00  0.00    -0.328 OA
ATOM      3  O   UNL     1      32.879 -23.758 -15.330  0.00  0.00    -0.310 OA
ATOM      4  O   UNL     1      37.107 -23.560 -13.790  0.00  0.00    -0.332 OA
ATOM      5  O   UNL     1      37.623 -25.848 -13.696  0.00  0.00    -0.332 OA
ATOM      6  C   UNL     1      34.671 -23.652 -13.877  0.00  0.00    +0.201 C 
ATOM      7  C   UNL     1      35.949 -24.273 -13.350  0.00  0.00    +0.179 C 
ATOM      8  C   UNL     1      34.293 -24.031 -15.304  0.00  0.00    +0.247 C 
ATOM      9  C   UNL     1      36.209 -25.678 -13.851  0.00  0.00    +0.177 C 
ATOM     10  C   UNL     1      35.832 -25.869 -15.313  0.00  0.00    +0.177 C 
ATOM     11  C   UNL     1      32.425 -23.981 -13.985  0.00  0.00    +0.190 C 
ATOM     12  C   UNL     1      38.172 -24.518 -13.679  0.00  0.00    +0.187 C 
ATOM     13  C   UNL     1      31.583 -25.249 -13.936  0.00  0.00    +0.061 C 
ATOM     14  C   UNL     1      31.618 -22.768 -13.539  0.00  0.00    +0.061 C 
ATOM     15  C   UNL     1      38.906 -24.317 -12.355  0.00  0.00    +0.061 C 
ATOM     16  C   UNL     1      39.127 -24.339 -14.851  0.00  0.00    +0.061 C 
ENDROOT
BRANCH   8  17
ATOM     17  C   UNL     1      34.951 -23.161 -16.369  0.00  0.00    +0.232 C 
BRANCH  17  18
ATOM     18  O   UNL     1      33.955 -22.727 -17.277  0.00  0.00    -0.224 OA
BRANCH  18  19
ATOM     19  S   UNL     1      34.300 -22.609 -18.873  0.00  0.00    +0.046 S 
ATOM     20  O   UNL     1      35.655 -22.111 -19.016  0.00  0.00    -0.056 OA
ATOM     21  O   UNL     1      33.918 -23.864 -19.494  0.00  0.00    -0.056 OA
BRANCH  19  22
ATOM     22  N   UNL     1      33.225 -21.401 -19.444  0.00  0.00    -0.204 NA
ATOM     23  H   UNL     1      32.281 -21.783 -19.497  0.00  0.00    +0.144 HD
ATOM     24  H   UNL     1      33.520 -21.095 -20.372  0.00  0.00    +0.144 HD
ENDBRANCH  19  22
ENDBRANCH  18  19
ENDBRANCH  17  18
ENDBRANCH   8  17
TORSDOF 4
ENDMDL
MODEL 2
REMARK VINA RESULT:      -6.8      1.672      5.048
REMARK  Name = 5284627
REMARK  4 active torsions:
REMARK  status: ('A' for Active; 'I' for Inactive)
REMARK    1  A    between atoms: C_8  and  C_17
REMARK    2  A    between atoms: C_17  and  O_18
REMARK    3  A    between atoms: O_18  and  S_19
REMARK    4  A    between atoms: S_19  and  N_22
REMARK                            x       y       z     vdW  Elec       q    Type
REMARK                         _______ _______ _______ _____ _____    ______ ____
ROOT
ATOM      1  O   UNL     1      34.123 -24.906 -13.600  0.00  0.00    -0.329 OA
ATOM      2  O   UNL     1      33.231 -22.388 -14.782  0.00  0.00    -0.328 OA
ATOM      3  O   UNL     1      35.144 -23.638 -15.286  0.00  0.00    -0.310 OA
ATOM      4  O   UNL     1      30.905 -25.159 -15.325  0.00  0.00    -0.332 OA
ATOM      5  O   UNL     1      29.888 -23.591 -13.905  0.00  0.00    -0.332 OA
ATOM      6  C   UNL     1      33.251 -24.841 -14.739  0.00  0.00    +0.201 C 
ATOM      7  C   UNL     1      31.811 -24.846 -14.266  0.00  0.00    +0.179 C 
ATOM      8  C   UNL     1      33.714 -23.568 -15.435  0.00  0.00    +0.247 C 
ATOM      9  C   UNL     1      31.312 -23.500 -13.784  0.00  0.00    +0.177 C 
ATOM     10  C   UNL     1      31.819 -22.339 -14.628  0.00  0.00    +0.177 C 
ATOM     11  C   UNL     1      35.363 -24.351 -14.059  0.00  0.00    +0.190 C 
ATOM     12  C   UNL     1      29.648 -24.617 -14.885  0.00  0.00    +0.187 C 
ATOM     13  C   UNL     1      35.891 -23.392 -13.001  0.00  0.00    +0.061 C 
ATOM     14  C   UNL     1      36.356 -25.477 -14.324  0.00  0.00    +0.061 C 
ATOM     15  C   UNL     1      28.816 -25.720 -14.235  0.00  0.00    +0.061 C 
ATOM     16  C   UNL     1      28.914 -24.029 -16.081  0.00  0.00    +0.061 C 
ENDROOT
BRANCH   8  17
ATOM     17  C   UNL     1      33.404 -23.532 -16.927  0.00  0.00    +0.232 C 
BRANCH  17  18
ATOM     18  O   UNL     1      34.442 -22.831 -17.587  0.00  0.00    -0.224 OA
BRANCH  18  19
ATOM     19  S   UNL     1      34.328 -22.522 -19.191  0.00  0.00    +0.046 S 
ATOM     20  O   UNL     1      35.415 -21.638 -19.568  0.00  0.00    -0.056 OA
ATOM     21  O   UNL     1      34.159 -23.795 -19.868  0.00  0.00    -0.056 OA
BRANCH  19  22
ATOM     22  N   UNL     1      32.857 -21.654 -19.345  0.00  0.00    -0.204 NA
ATOM     23  H   UNL     1      32.626 -21.550 -20.333  0.00  0.00    +0.144 HD
ATOM     24  H   UNL     1      32.961 -20.732 -18.922  0.00  0.00    +0.144 HD
ENDBRANCH  19  22
ENDBRANCH  18  19
ENDBRANCH  17  18
ENDBRANCH   8  17
TORSDOF 4
ENDMDL
MODEL 3
REMARK VINA RESULT:      -6.0      3.292      4.717
REMARK  Name = 5284627
REMARK  4 active torsions:
REMARK  status: ('A' for Active; 'I' for Inactive)
REMARK    1  A    between atoms: C_8  and  C_17
REMARK    2  A    between atoms: C_17  and  O_18
REMARK    3  A    between atoms: O_18  and  S_19
REMARK    4  A    between atoms: S_19  and  N_22
REMARK                            x       y       z     vdW  Elec       q    Type
REMARK                         _______ _______ _______ _____ _____    ______ ____
ROOT
ATOM      1  O   UNL     1      34.641 -24.695 -15.966  0.00  0.00    -0.329 OA
ATOM      2  O   UNL     1      35.912 -22.216 -15.088  0.00  0.00    -0.328 OA
ATOM      3  O   UNL     1      33.784 -23.031 -14.556  0.00  0.00    -0.310 OA
ATOM      4  O   UNL     1      37.675 -25.227 -13.988  0.00  0.00    -0.332 OA
ATOM      5  O   UNL     1      39.024 -24.089 -15.535  0.00  0.00    -0.332 OA
ATOM      6  C   UNL     1      35.455 -24.608 -14.786  0.00  0.00    +0.201 C 
ATOM      7  C   UNL     1      36.892 -24.929 -15.146  0.00  0.00    +0.179 C 
ATOM      8  C   UNL     1      35.195 -23.183 -14.313  0.00  0.00    +0.247 C 
ATOM      9  C   UNL     1      37.647 -23.776 -15.774  0.00  0.00    +0.177 C 
ATOM     10  C   UNL     1      37.315 -22.431 -15.142  0.00  0.00    +0.177 C 
ATOM     11  C   UNL     1      33.500 -23.874 -15.683  0.00  0.00    +0.190 C 
ATOM     12  C   UNL     1      39.027 -24.980 -14.406  0.00  0.00    +0.187 C 
ATOM     13  C   UNL     1      33.204 -23.011 -16.903  0.00  0.00    +0.061 C 
ATOM     14  C   UNL     1      32.310 -24.761 -15.337  0.00  0.00    +0.061 C 
ATOM     15  C   UNL     1      39.679 -26.295 -14.830  0.00  0.00    +0.061 C 
ATOM     16  C   UNL     1      39.797 -24.351 -13.253  0.00  0.00    +0.061 C 
ENDROOT
BRANCH   8  17
ATOM     17  C   UNL     1      35.433 -22.974 -12.822  0.00  0.00    +0.232 C 
BRANCH  17  18
ATOM     18  O   UNL     1      35.065 -24.157 -12.136  0.00  0.00    -0.224 OA
BRANCH  18  19
ATOM     19  S   UNL     1      36.043 -24.764 -10.971  0.00  0.00    +0.046 S 
ATOM     20  O   UNL     1      37.154 -23.850 -10.781  0.00  0.00    -0.056 OA
ATOM     21  O   UNL     1      35.203 -25.129  -9.845  0.00  0.00    -0.056 OA
BRANCH  19  22
ATOM     22  N   UNL     1      36.655 -26.213 -11.654  0.00  0.00    -0.204 NA
ATOM     23  H   UNL     1      37.673 -26.218 -11.583  0.00  0.00    +0.144 HD
ATOM     24  H   UNL     1      36.383 -26.267 -12.636  0.00  0.00    +0.144 HD
ENDBRANCH  19  22
ENDBRANCH  18  19
ENDBRANCH  17  18
ENDBRANCH   8  17
TORSDOF 4
ENDMDL
MODEL 4
REMARK VINA RESULT:      -5.7     15.215     17.545
REMARK  Name = 5284627
REMARK  4 active torsions:
REMARK  status: ('A' for Active; 'I' for Inactive)
REMARK    1  A    between atoms: C_8  and  C_17
REMARK    2  A    between atoms: C_17  and  O_18
REMARK    3  A    between atoms: O_18  and  S_19
REMARK    4  A    between atoms: S_19  and  N_22
REMARK                            x       y       z     vdW  Elec       q    Type
REMARK                         _______ _______ _______ _____ _____    ______ ____
ROOT
ATOM      1  O   UNL     1      31.052  -8.945 -21.231  0.00  0.00    -0.329 OA
ATOM      2  O   UNL     1      33.830  -8.768 -22.119  0.00  0.00    -0.328 OA
ATOM      3  O   UNL     1      32.524 -10.682 -21.789  0.00  0.00    -0.310 OA
ATOM      4  O   UNL     1      31.462  -7.176 -24.409  0.00  0.00    -0.332 OA
ATOM      5  O   UNL     1      32.808  -5.513 -23.444  0.00  0.00    -0.332 OA
ATOM      6  C   UNL     1      31.427  -8.825 -22.612  0.00  0.00    +0.201 C 
ATOM      7  C   UNL     1      31.469  -7.358 -22.992  0.00  0.00    +0.179 C 
ATOM      8  C   UNL     1      32.762  -9.557 -22.655  0.00  0.00    +0.247 C 
ATOM      9  C   UNL     1      32.734  -6.643 -22.568  0.00  0.00    +0.177 C 
ATOM     10  C   UNL     1      33.985  -7.496 -22.733  0.00  0.00    +0.177 C 
ATOM     11  C   UNL     1      31.564 -10.222 -20.825  0.00  0.00    +0.190 C 
ATOM     12  C   UNL     1      32.025  -5.867 -24.598  0.00  0.00    +0.187 C 
ATOM     13  C   UNL     1      32.237 -10.069 -19.468  0.00  0.00    +0.061 C 
ATOM     14  C   UNL     1      30.422 -11.229 -20.761  0.00  0.00    +0.061 C 
ATOM     15  C   UNL     1      30.902  -4.845 -24.752  0.00  0.00    +0.061 C 
ATOM     16  C   UNL     1      32.909  -5.880 -25.838  0.00  0.00    +0.061 C 
ENDROOT
BRANCH   8  17
ATOM     17  C   UNL     1      33.123 -10.102 -24.032  0.00  0.00    +0.232 C 
BRANCH  17  18
ATOM     18  O   UNL     1      34.022 -11.183 -23.869  0.00  0.00    -0.224 OA
BRANCH  18  19
ATOM     19  S   UNL     1      33.542 -12.706 -24.233  0.00  0.00    +0.046 S 
ATOM     20  O   UNL     1      33.388 -12.808 -25.672  0.00  0.00    -0.056 OA
ATOM     21  O   UNL     1      34.426 -13.619 -23.532  0.00  0.00    -0.056 OA
BRANCH  19  22
ATOM     22  N   UNL     1      31.989 -12.836 -23.519  0.00  0.00    -0.204 NA
ATOM     23  H   UNL     1      31.409 -12.054 -23.824  0.00  0.00    +0.144 HD
ATOM     24  H   UNL     1      32.079 -12.815 -22.503  0.00  0.00    +0.144 HD
ENDBRANCH  19  22
ENDBRANCH  18  19
ENDBRANCH  17  18
ENDBRANCH   8  17
TORSDOF 4
ENDMDL
MODEL 5
REMARK VINA RESULT:      -5.7      1.517      4.631
REMARK  Name = 5284627
REMARK  4 active torsions:
REMARK  status: ('A' for Active; 'I' for Inactive)
REMARK    1  A    between atoms: C_8  and  C_17
REMARK    2  A    between atoms: C_17  and  O_18
REMARK    3  A    between atoms: O_18  and  S_19
REMARK    4  A    between atoms: S_19  and  N_22
REMARK                            x       y       z     vdW  Elec       q    Type
REMARK                         _______ _______ _______ _____ _____    ______ ____
ROOT
ATOM      1  O   UNL     1      35.802 -25.913 -14.252  0.00  0.00    -0.329 OA
ATOM      2  O   UNL     1      35.579 -23.044 -13.749  0.00  0.00    -0.328 OA
ATOM      3  O   UNL     1      37.074 -24.165 -15.158  0.00  0.00    -0.310 OA
ATOM      4  O   UNL     1      32.583 -24.495 -15.267  0.00  0.00    -0.332 OA
ATOM      5  O   UNL     1      32.063 -23.811 -13.083  0.00  0.00    -0.332 OA
ATOM      6  C   UNL     1      34.945 -25.048 -15.014  0.00  0.00    +0.201 C 
ATOM      7  C   UNL     1      33.570 -25.018 -14.376  0.00  0.00    +0.179 C 
ATOM      8  C   UNL     1      35.710 -23.731 -14.998  0.00  0.00    +0.247 C 
ATOM      9  C   UNL     1      33.462 -24.098 -13.178  0.00  0.00    +0.177 C 
ATOM     10  C   UNL     1      34.236 -22.799 -13.353  0.00  0.00    +0.177 C 
ATOM     11  C   UNL     1      37.130 -25.467 -14.553  0.00  0.00    +0.190 C 
ATOM     12  C   UNL     1      31.530 -24.044 -14.399  0.00  0.00    +0.187 C 
ATOM     13  C   UNL     1      37.926 -25.391 -13.256  0.00  0.00    +0.061 C 
ATOM     14  C   UNL     1      37.779 -26.431 -15.539  0.00  0.00    +0.061 C 
ATOM     15  C   UNL     1      30.453 -25.122 -14.299  0.00  0.00    +0.061 C 
ATOM     16  C   UNL     1      30.944 -22.754 -14.956  0.00  0.00    +0.061 C 
ENDROOT
BRANCH   8  17
ATOM     17  C   UNL     1      35.378 -22.809 -16.166  0.00  0.00    +0.232 C 
BRANCH  17  18
ATOM     18  O   UNL     1      34.700 -23.561 -17.156  0.00  0.00    -0.224 OA
BRANCH  18  19
ATOM     19  S   UNL     1      33.986 -22.797 -18.416  0.00  0.00    +0.046 S 
ATOM     20  O   UNL     1      32.608 -22.512 -18.060  0.00  0.00    -0.056 OA
ATOM     21  O   UNL     1      34.867 -21.719 -18.826  0.00  0.00    -0.056 OA
BRANCH  19  22
ATOM     22  N   UNL     1      33.982 -23.969 -19.668  0.00  0.00    -0.204 NA
ATOM     23  H   UNL     1      33.851 -24.896 -19.264  0.00  0.00    +0.144 HD
ATOM     24  H   UNL     1      34.873 -23.938 -20.164  0.00  0.00    +0.144 HD
ENDBRANCH  19  22
ENDBRANCH  18  19
ENDBRANCH  17  18
ENDBRANCH   8  17
TORSDOF 4
ENDMDL
MODEL 6
REMARK VINA RESULT:      -5.6      1.767      4.738
REMARK  Name = 5284627
REMARK  4 active torsions:
REMARK  status: ('A' for Active; 'I' for Inactive)
REMARK    1  A    between atoms: C_8  and  C_17
REMARK    2  A    between atoms: C_17  and  O_18
REMARK    3  A    between atoms: O_18  and  S_19
REMARK    4  A    between atoms: S_19  and  N_22
REMARK                            x       y       z     vdW  Elec       q    Type
REMARK                         _______ _______ _______ _____ _____    ______ ____
ROOT
ATOM      1  O   UNL     1      37.281 -25.890 -14.216  0.00  0.00    -0.329 OA
ATOM      2  O   UNL     1      36.926 -23.244 -13.032  0.00  0.00    -0.328 OA
ATOM      3  O   UNL     1      38.521 -23.938 -14.597  0.00  0.00    -0.310 OA
ATOM      4  O   UNL     1      34.055 -24.352 -15.010  0.00  0.00    -0.332 OA
ATOM      5  O   UNL     1      33.417 -24.247 -12.753  0.00  0.00    -0.332 OA
ATOM      6  C   UNL     1      36.424 -24.887 -14.783  0.00  0.00    +0.201 C 
ATOM      7  C   UNL     1      35.024 -25.053 -14.227  0.00  0.00    +0.179 C 
ATOM      8  C   UNL     1      37.136 -23.595 -14.404  0.00  0.00    +0.247 C 
ATOM      9  C   UNL     1      34.830 -24.463 -12.846  0.00  0.00    +0.177 C 
ATOM     10  C   UNL     1      35.560 -23.141 -12.655  0.00  0.00    +0.177 C 
ATOM     11  C   UNL     1      38.603 -25.347 -14.330  0.00  0.00    +0.190 C 
ATOM     12  C   UNL     1      32.950 -24.160 -14.111  0.00  0.00    +0.187 C 
ATOM     13  C   UNL     1      39.339 -25.575 -13.017  0.00  0.00    +0.061 C 
ATOM     14  C   UNL     1      39.329 -26.018 -15.490  0.00  0.00    +0.061 C 
ATOM     15  C   UNL     1      31.912 -25.258 -14.335  0.00  0.00    +0.061 C 
ATOM     16  C   UNL     1      32.338 -22.789 -14.360  0.00  0.00    +0.061 C 
ENDROOT
BRANCH   8  17
ATOM     17  C   UNL     1      36.818 -22.421 -15.323  0.00  0.00    +0.232 C 
BRANCH  17  18
ATOM     18  O   UNL     1      36.724 -22.901 -16.652  0.00  0.00    -0.224 OA
BRANCH  18  19
ATOM     19  S   UNL     1      36.532 -21.846 -17.890  0.00  0.00    +0.046 S 
ATOM     20  O   UNL     1      37.302 -22.322 -19.024  0.00  0.00    -0.056 OA
ATOM     21  O   UNL     1      35.109 -21.597 -18.032  0.00  0.00    -0.056 OA
BRANCH  19  22
ATOM     22  N   UNL     1      37.257 -20.400 -17.322  0.00  0.00    -0.204 NA
ATOM     23  H   UNL     1      38.015 -20.130 -17.950  0.00  0.00    +0.144 HD
ATOM     24  H   UNL     1      37.632 -20.553 -16.386  0.00  0.00    +0.144 HD
ENDBRANCH  19  22
ENDBRANCH  18  19
ENDBRANCH  17  18
ENDBRANCH   8  17
TORSDOF 4
ENDMDL
MODEL 7
REMARK VINA RESULT:      -5.5      3.121      5.469
REMARK  Name = 5284627
REMARK  4 active torsions:
REMARK  status: ('A' for Active; 'I' for Inactive)
REMARK    1  A    between atoms: C_8  and  C_17
REMARK    2  A    between atoms: C_17  and  O_18
REMARK    3  A    between atoms: O_18  and  S_19
REMARK    4  A    between atoms: S_19  and  N_22
REMARK                            x       y       z     vdW  Elec       q    Type
REMARK                         _______ _______ _______ _____ _____    ______ ____
ROOT
ATOM      1  O   UNL     1      35.107 -23.492 -12.562  0.00  0.00    -0.329 OA
ATOM      2  O   UNL     1      37.126 -23.258 -14.661  0.00  0.00    -0.328 OA
ATOM      3  O   UNL     1      37.101 -24.698 -12.815  0.00  0.00    -0.310 OA
ATOM      4  O   UNL     1      33.845 -24.299 -15.902  0.00  0.00    -0.332 OA
ATOM      5  O   UNL     1      34.315 -22.151 -16.726  0.00  0.00    -0.332 OA
ATOM      6  C   UNL     1      35.056 -24.242 -13.785  0.00  0.00    +0.201 C 
ATOM      7  C   UNL     1      34.253 -23.469 -14.812  0.00  0.00    +0.179 C 
ATOM      8  C   UNL     1      36.530 -24.439 -14.112  0.00  0.00    +0.247 C 
ATOM      9  C   UNL     1      35.026 -22.365 -15.501  0.00  0.00    +0.177 C 
ATOM     10  C   UNL     1      36.466 -22.749 -15.811  0.00  0.00    +0.177 C 
ATOM     11  C   UNL     1      36.277 -23.974 -11.888  0.00  0.00    +0.190 C 
ATOM     12  C   UNL     1      33.598 -23.374 -16.974  0.00  0.00    +0.187 C 
ATOM     13  C   UNL     1      37.052 -22.783 -11.340  0.00  0.00    +0.061 C 
ATOM     14  C   UNL     1      35.863 -24.922 -10.768  0.00  0.00    +0.061 C 
ATOM     15  C   UNL     1      32.106 -23.053 -17.038  0.00  0.00    +0.061 C 
ATOM     16  C   UNL     1      34.067 -23.992 -18.283  0.00  0.00    +0.061 C 
ENDROOT
BRANCH   8  17
ATOM     17  C   UNL     1      36.812 -25.653 -14.991  0.00  0.00    +0.232 C 
BRANCH  17  18
ATOM     18  O   UNL     1      38.042 -25.449 -15.662  0.00  0.00    -0.224 OA
BRANCH  18  19
ATOM     19  S   UNL     1      39.441 -25.948 -14.971  0.00  0.00    +0.046 S 
ATOM     20  O   UNL     1      39.181 -27.174 -14.240  0.00  0.00    -0.056 OA
ATOM     21  O   UNL     1      40.466 -25.919 -15.998  0.00  0.00    -0.056 OA
BRANCH  19  22
ATOM     22  N   UNL     1      39.807 -24.717 -13.836  0.00  0.00    -0.204 NA
ATOM     23  H   UNL     1      39.296 -23.868 -14.078  0.00  0.00    +0.144 HD
ATOM     24  H   UNL     1      40.809 -24.526 -13.854  0.00  0.00    +0.144 HD
ENDBRANCH  19  22
ENDBRANCH  18  19
ENDBRANCH  17  18
ENDBRANCH   8  17
TORSDOF 4
ENDMDL
MODEL 8
REMARK VINA RESULT:      -5.4      1.767      1.972
REMARK  Name = 5284627
REMARK  4 active torsions:
REMARK  status: ('A' for Active; 'I' for Inactive)
REMARK    1  A    between atoms: C_8  and  C_17
REMARK    2  A    between atoms: C_17  and  O_18
REMARK    3  A    between atoms: O_18  and  S_19
REMARK    4  A    between atoms: S_19  and  N_22
REMARK                            x       y       z     vdW  Elec       q    Type
REMARK                         _______ _______ _______ _____ _____    ______ ____
ROOT
ATOM      1  O   UNL     1      33.287 -24.591 -13.198  0.00  0.00    -0.329 OA
ATOM      2  O   UNL     1      34.649 -24.709 -15.779  0.00  0.00    -0.328 OA
ATOM      3  O   UNL     1      33.100 -23.128 -15.019  0.00  0.00    -0.310 OA
ATOM      4  O   UNL     1      36.927 -24.290 -12.947  0.00  0.00    -0.332 OA
ATOM      5  O   UNL     1      37.284 -26.408 -13.892  0.00  0.00    -0.332 OA
ATOM      6  C   UNL     1      34.559 -23.971 -13.441  0.00  0.00    +0.201 C 
ATOM      7  C   UNL     1      35.665 -24.946 -13.090  0.00  0.00    +0.179 C 
ATOM      8  C   UNL     1      34.461 -23.586 -14.911  0.00  0.00    +0.247 C 
ATOM      9  C   UNL     1      35.944 -25.980 -14.160  0.00  0.00    +0.177 C 
ATOM     10  C   UNL     1      35.865 -25.414 -15.571  0.00  0.00    +0.177 C 
ATOM     11  C   UNL     1      32.369 -23.879 -14.038  0.00  0.00    +0.190 C 
ATOM     12  C   UNL     1      37.892 -25.335 -13.151  0.00  0.00    +0.187 C 
ATOM     13  C   UNL     1      31.465 -24.885 -14.737  0.00  0.00    +0.061 C 
ATOM     14  C   UNL     1      31.556 -22.907 -13.192  0.00  0.00    +0.061 C 
ATOM     15  C   UNL     1      38.348 -25.880 -11.799  0.00  0.00    +0.061 C 
ATOM     16  C   UNL     1      39.075 -24.775 -13.928  0.00  0.00    +0.061 C 
ENDROOT
BRANCH   8  17
ATOM     17  C   UNL     1      35.372 -22.429 -15.309  0.00  0.00    +0.232 C 
BRANCH  17  18
ATOM     18  O   UNL     1      35.446 -22.377 -16.722  0.00  0.00    -0.224 OA
BRANCH  18  19
ATOM     19  S   UNL     1      36.827 -21.883 -17.450  0.00  0.00    +0.046 S 
ATOM     20  O   UNL     1      36.717 -22.147 -18.873  0.00  0.00    -0.056 OA
ATOM     21  O   UNL     1      37.108 -20.539 -16.981  0.00  0.00    -0.056 OA
BRANCH  19  22
ATOM     22  N   UNL     1      38.031 -22.920 -16.807  0.00  0.00    -0.204 NA
ATOM     23  H   UNL     1      38.930 -22.437 -16.805  0.00  0.00    +0.144 HD
ATOM     24  H   UNL     1      38.099 -23.760 -17.383  0.00  0.00    +0.144 HD
ENDBRANCH  19  22
ENDBRANCH  18  19
ENDBRANCH  17  18
ENDBRANCH   8  17
TORSDOF 4
ENDMDL
MODEL 9
REMARK VINA RESULT:      -5.3      3.021      4.502
REMARK  Name = 5284627
REMARK  4 active torsions:
REMARK  status: ('A' for Active; 'I' for Inactive)
REMARK    1  A    between atoms: C_8  and  C_17
REMARK    2  A    between atoms: C_17  and  O_18
REMARK    3  A    between atoms: O_18  and  S_19
REMARK    4  A    between atoms: S_19  and  N_22
REMARK                            x       y       z     vdW  Elec       q    Type
REMARK                         _______ _______ _______ _____ _____    ______ ____
ROOT
ATOM      1  O   UNL     1      36.817 -23.739 -12.388  0.00  0.00    -0.329 OA
ATOM      2  O   UNL     1      35.495 -25.393 -14.401  0.00  0.00    -0.328 OA
ATOM      3  O   UNL     1      34.767 -24.866 -12.240  0.00  0.00    -0.310 OA
ATOM      4  O   UNL     1      35.930 -21.910 -15.432  0.00  0.00    -0.332 OA
ATOM      5  O   UNL     1      37.285 -23.269 -16.784  0.00  0.00    -0.332 OA
ATOM      6  C   UNL     1      35.911 -23.207 -13.367  0.00  0.00    +0.201 C 
ATOM      7  C   UNL     1      36.694 -22.776 -14.590  0.00  0.00    +0.179 C 
ATOM      8  C   UNL     1      34.940 -24.362 -13.577  0.00  0.00    +0.247 C 
ATOM      9  C   UNL     1      37.063 -23.910 -15.523  0.00  0.00    +0.177 C 
ATOM     10  C   UNL     1      35.957 -24.946 -15.668  0.00  0.00    +0.177 C 
ATOM     11  C   UNL     1      36.007 -24.593 -11.569  0.00  0.00    +0.190 C 
ATOM     12  C   UNL     1      36.556 -22.030 -16.720  0.00  0.00    +0.187 C 
ATOM     13  C   UNL     1      36.756 -25.898 -11.333  0.00  0.00    +0.061 C 
ATOM     14  C   UNL     1      35.700 -23.891 -10.252  0.00  0.00    +0.061 C 
ATOM     15  C   UNL     1      37.542 -20.880 -16.919  0.00  0.00    +0.061 C 
ATOM     16  C   UNL     1      35.483 -22.006 -17.799  0.00  0.00    +0.061 C 
ENDROOT
BRANCH   8  17
ATOM     17  C   UNL     1      33.570 -23.931 -14.090  0.00  0.00    +0.232 C 
BRANCH  17  18
ATOM     18  O   UNL     1      32.625 -24.928 -13.747  0.00  0.00    -0.224 OA
BRANCH  18  19
ATOM     19  S   UNL     1      31.031 -24.671 -14.020  0.00  0.00    +0.046 S 
ATOM     20  O   UNL     1      30.862 -23.320 -14.522  0.00  0.00    -0.056 OA
ATOM     21  O   UNL     1      30.534 -25.799 -14.788  0.00  0.00    -0.056 OA
BRANCH  19  22
ATOM     22  N   UNL     1      30.322 -24.753 -12.461  0.00  0.00    -0.204 NA
ATOM     23  H   UNL     1      29.485 -25.336 -12.498  0.00  0.00    +0.144 HD
ATOM     24  H   UNL     1      30.069 -23.815 -12.153  0.00  0.00    +0.144 HD
ENDBRANCH  19  22
ENDBRANCH  18  19
ENDBRANCH  17  18
ENDBRANCH   8  17
TORSDOF 4
ENDMDL
