MODEL 1
REMARK VINA RESULT:      -9.0      0.000      0.000
REMARK  Name = 449244
REMARK  11 active torsions:
REMARK  status: ('A' for Active; 'I' for Inactive)
REMARK    1  A    between atoms: P_1  and  O_3
REMARK    2  A    between atoms: P_1  and  O_5
REMARK    3  A    between atoms: P_1  and  C_15
REMARK    4  A    between atoms: O_5  and  C_6
REMARK    5  A    between atoms: C_11  and  N_14
REMARK    6  A    between atoms: C_15  and  C_16
REMARK    7  A    between atoms: C_16  and  C_17
REMARK    8  A    between atoms: C_17  and  C_20
REMARK    9  A    between atoms: N_19  and  C_22
REMARK   10  A    between atoms: C_22  and  C_24
REMARK   11  A    between atoms: C_24  and  O_25
REMARK                            x       y       z     vdW  Elec       q    Type
REMARK                         _______ _______ _______ _____ _____    ______ ____
ROOT
ATOM      1  P   UNL     1      34.549 -23.431 -16.031  0.00  0.00    +0.388 P 
ATOM      2  O   UNL     1      35.242 -22.205 -15.540  0.00  0.00    -0.244 OA
ENDROOT
BRANCH   1   3
ATOM      3  O   UNL     1      35.305 -24.830 -15.769  0.00  0.00    -0.315 OA
ATOM      4  H   UNL     1      36.245 -24.736 -15.990  0.00  0.00    +0.221 HD
ENDBRANCH   1   3
BRANCH   1   5
ATOM      5  O   UNL     1      34.139 -23.466 -17.585  0.00  0.00    -0.422 OA
BRANCH   5   6
ATOM      6  C   UNL     1      34.362 -22.446 -18.468  0.00  0.00    +0.147 C 
ATOM      7  C   UNL     1      33.286 -21.823 -19.102  0.00  0.00    +0.039 C 
ATOM      8  C   UNL     1      35.665 -22.028 -18.737  0.00  0.00    +0.039 C 
ATOM      9  C   UNL     1      33.513 -20.783 -20.003  0.00  0.00    +0.027 C 
ATOM     10  C   UNL     1      35.893 -20.988 -19.638  0.00  0.00    +0.027 C 
ATOM     11  C   UNL     1      34.817 -20.366 -20.271  0.00  0.00    +0.143 C 
BRANCH  11  14
ATOM     12  O   UNL     1      35.535 -18.230 -20.765  0.00  0.00    -0.126 OA
ATOM     13  O   UNL     1      34.763 -19.478 -22.398  0.00  0.00    -0.126 OA
ATOM     14  N   UNL     1      35.049 -19.307 -21.189  0.00  0.00    +0.058 N 
ENDBRANCH  11  14
ENDBRANCH   5   6
ENDBRANCH   1   5
BRANCH   1  15
ATOM     15  C   UNL     1      32.959 -23.708 -15.218  0.00  0.00    +0.129 C 
BRANCH  15  16
ATOM     16  C   UNL     1      31.761 -23.296 -16.064  0.00  0.00    +0.023 C 
BRANCH  16  17
ATOM     17  C   UNL     1      30.594 -22.804 -15.210  0.00  0.00    +0.086 C 
BRANCH  17  20
ATOM     18  O   UNL     1      28.661 -24.259 -15.285  0.00  0.00    -0.275 OA
ATOM     19  N   UNL     1      28.798 -22.481 -16.775  0.00  0.00    -0.295 N 
ATOM     20  C   UNL     1      29.251 -23.281 -15.736  0.00  0.00    +0.223 C 
ATOM     21  H   UNL     1      29.352 -21.719 -17.058  0.00  0.00    +0.150 HD
BRANCH  19  22
ATOM     22  C   UNL     1      27.547 -22.716 -17.459  0.00  0.00    +0.200 C 
BRANCH  22  24
ATOM     23  O   UNL     1      25.734 -21.999 -16.046  0.00  0.00    -0.248 OA
ATOM     24  C   UNL     1      26.451 -21.781 -17.016  0.00  0.00    +0.334 C 
BRANCH  24  25
ATOM     25  O   UNL     1      26.333 -20.678 -17.791  0.00  0.00    -0.479 OA
ATOM     26  H   UNL     1      25.532 -20.510 -18.247  0.00  0.00    +0.295 HD
ENDBRANCH  24  25
ENDBRANCH  22  24
ENDBRANCH  19  22
ENDBRANCH  17  20
ENDBRANCH  16  17
ENDBRANCH  15  16
ENDBRANCH   1  15
TORSDOF 11
ENDMDL
MODEL 2
REMARK VINA RESULT:      -9.0      5.038      9.323
REMARK  Name = 449244
REMARK  11 active torsions:
REMARK  status: ('A' for Active; 'I' for Inactive)
REMARK    1  A    between atoms: P_1  and  O_3
REMARK    2  A    between atoms: P_1  and  O_5
REMARK    3  A    between atoms: P_1  and  C_15
REMARK    4  A    between atoms: O_5  and  C_6
REMARK    5  A    between atoms: C_11  and  N_14
REMARK    6  A    between atoms: C_15  and  C_16
REMARK    7  A    between atoms: C_16  and  C_17
REMARK    8  A    between atoms: C_17  and  C_20
REMARK    9  A    between atoms: N_19  and  C_22
REMARK   10  A    between atoms: C_22  and  C_24
REMARK   11  A    between atoms: C_24  and  O_25
REMARK                            x       y       z     vdW  Elec       q    Type
REMARK                         _______ _______ _______ _____ _____    ______ ____
ROOT
ATOM      1  P   UNL     1      34.533 -16.537 -21.761  0.00  0.00    +0.388 P 
ATOM      2  O   UNL     1      35.226 -15.737 -22.812  0.00  0.00    -0.244 OA
ENDROOT
BRANCH   1   3
ATOM      3  O   UNL     1      35.315 -16.702 -20.360  0.00  0.00    -0.315 OA
ATOM      4  H   UNL     1      35.898 -17.476 -20.404  0.00  0.00    +0.221 HD
ENDBRANCH   1   3
BRANCH   1   5
ATOM      5  O   UNL     1      34.077 -18.027 -22.158  0.00  0.00    -0.422 OA
BRANCH   5   6
ATOM      6  C   UNL     1      34.196 -19.117 -21.342  0.00  0.00    +0.147 C 
ATOM      7  C   UNL     1      33.068 -19.645 -20.713  0.00  0.00    +0.039 C 
ATOM      8  C   UNL     1      35.446 -19.699 -21.135  0.00  0.00    +0.039 C 
ATOM      9  C   UNL     1      33.190 -20.757 -19.879  0.00  0.00    +0.027 C 
ATOM     10  C   UNL     1      35.569 -20.811 -20.300  0.00  0.00    +0.027 C 
ATOM     11  C   UNL     1      34.441 -21.339 -19.673  0.00  0.00    +0.143 C 
BRANCH  11  14
ATOM     12  O   UNL     1      33.821 -23.463 -19.019  0.00  0.00    -0.126 OA
ATOM     13  O   UNL     1      35.416 -22.448 -17.901  0.00  0.00    -0.126 OA
ATOM     14  N   UNL     1      34.565 -22.471 -18.824  0.00  0.00    +0.058 N 
ENDBRANCH  11  14
ENDBRANCH   5   6
ENDBRANCH   1   5
BRANCH   1  15
ATOM     15  C   UNL     1      32.972 -15.795 -21.232  0.00  0.00    +0.129 C 
BRANCH  15  16
ATOM     16  C   UNL     1      33.075 -14.306 -20.932  0.00  0.00    +0.023 C 
BRANCH  16  17
ATOM     17  C   UNL     1      32.212 -13.467 -21.873  0.00  0.00    +0.086 C 
BRANCH  17  20
ATOM     18  O   UNL     1      33.552 -12.156 -23.404  0.00  0.00    -0.275 OA
ATOM     19  N   UNL     1      32.713 -14.206 -24.105  0.00  0.00    -0.295 N 
ATOM     20  C   UNL     1      32.907 -13.179 -23.193  0.00  0.00    +0.223 C 
ATOM     21  H   UNL     1      32.177 -14.985 -23.830  0.00  0.00    +0.150 HD
BRANCH  19  22
ATOM     22  C   UNL     1      33.262 -14.185 -25.441  0.00  0.00    +0.200 C 
BRANCH  22  24
ATOM     23  O   UNL     1      32.472 -16.043 -26.751  0.00  0.00    -0.248 OA
ATOM     24  C   UNL     1      33.358 -15.555 -26.059  0.00  0.00    +0.334 C 
BRANCH  24  25
ATOM     25  O   UNL     1      34.515 -16.198 -25.775  0.00  0.00    -0.479 OA
ATOM     26  H   UNL     1      35.267 -16.070 -26.321  0.00  0.00    +0.295 HD
ENDBRANCH  24  25
ENDBRANCH  22  24
ENDBRANCH  19  22
ENDBRANCH  17  20
ENDBRANCH  16  17
ENDBRANCH  15  16
ENDBRANCH   1  15
TORSDOF 11
ENDMDL
MODEL 3
REMARK VINA RESULT:      -8.9      4.305      8.704
REMARK  Name = 449244
REMARK  11 active torsions:
REMARK  status: ('A' for Active; 'I' for Inactive)
REMARK    1  A    between atoms: P_1  and  O_3
REMARK    2  A    between atoms: P_1  and  O_5
REMARK    3  A    between atoms: P_1  and  C_15
REMARK    4  A    between atoms: O_5  and  C_6
REMARK    5  A    between atoms: C_11  and  N_14
REMARK    6  A    between atoms: C_15  and  C_16
REMARK    7  A    between atoms: C_16  and  C_17
REMARK    8  A    between atoms: C_17  and  C_20
REMARK    9  A    between atoms: N_19  and  C_22
REMARK   10  A    between atoms: C_22  and  C_24
REMARK   11  A    between atoms: C_24  and  O_25
REMARK                            x       y       z     vdW  Elec       q    Type
REMARK                         _______ _______ _______ _____ _____    ______ ____
ROOT
ATOM      1  P   UNL     1      33.310 -23.939 -13.536  0.00  0.00    +0.388 P 
ATOM      2  O   UNL     1      34.282 -24.670 -12.673  0.00  0.00    -0.244 OA
ENDROOT
BRANCH   1   3
ATOM      3  O   UNL     1      32.350 -22.882 -12.789  0.00  0.00    -0.315 OA
ATOM      4  H   UNL     1      32.464 -22.963 -11.829  0.00  0.00    +0.221 HD
ENDBRANCH   1   3
BRANCH   1   5
ATOM      5  O   UNL     1      32.323 -24.829 -14.441  0.00  0.00    -0.422 OA
BRANCH   5   6
ATOM      6  C   UNL     1      31.159 -24.373 -14.996  0.00  0.00    +0.147 C 
ATOM      7  C   UNL     1      29.945 -24.973 -14.663  0.00  0.00    +0.039 C 
ATOM      8  C   UNL     1      31.187 -23.308 -15.897  0.00  0.00    +0.039 C 
ATOM      9  C   UNL     1      28.758 -24.508 -15.230  0.00  0.00    +0.027 C 
ATOM     10  C   UNL     1      30.000 -22.843 -16.464  0.00  0.00    +0.027 C 
ATOM     11  C   UNL     1      28.787 -23.443 -16.130  0.00  0.00    +0.143 C 
BRANCH  11  14
ATOM     12  O   UNL     1      27.435 -23.031 -17.954  0.00  0.00    -0.126 OA
ATOM     13  O   UNL     1      26.687 -22.505 -15.957  0.00  0.00    -0.126 OA
ATOM     14  N   UNL     1      27.578 -22.970 -16.708  0.00  0.00    +0.058 N 
ENDBRANCH  11  14
ENDBRANCH   5   6
ENDBRANCH   1   5
BRANCH   1  15
ATOM     15  C   UNL     1      34.118 -22.900 -14.774  0.00  0.00    +0.129 C 
BRANCH  15  16
ATOM     16  C   UNL     1      35.010 -23.676 -15.734  0.00  0.00    +0.023 C 
BRANCH  16  17
ATOM     17  C   UNL     1      36.399 -23.053 -15.862  0.00  0.00    +0.086 C 
BRANCH  17  20
ATOM     18  O   UNL     1      37.791 -23.074 -13.882  0.00  0.00    -0.275 OA
ATOM     19  N   UNL     1      37.793 -24.925 -15.287  0.00  0.00    -0.295 N 
ATOM     20  C   UNL     1      37.396 -23.657 -14.888  0.00  0.00    +0.223 C 
ATOM     21  H   UNL     1      37.412 -25.298 -16.114  0.00  0.00    +0.150 HD
BRANCH  19  22
ATOM     22  C   UNL     1      38.740 -25.722 -14.542  0.00  0.00    +0.200 C 
BRANCH  22  24
ATOM     23  O   UNL     1      40.923 -24.751 -14.247  0.00  0.00    -0.248 OA
ATOM     24  C   UNL     1      40.171 -25.443 -14.923  0.00  0.00    +0.334 C 
BRANCH  24  25
ATOM     25  O   UNL     1      40.546 -26.027 -16.085  0.00  0.00    -0.479 OA
ATOM     26  H   UNL     1      39.919 -26.506 -16.591  0.00  0.00    +0.295 HD
ENDBRANCH  24  25
ENDBRANCH  22  24
ENDBRANCH  19  22
ENDBRANCH  17  20
ENDBRANCH  16  17
ENDBRANCH  15  16
ENDBRANCH   1  15
TORSDOF 11
ENDMDL
MODEL 4
REMARK VINA RESULT:      -8.9      1.303      1.622
REMARK  Name = 449244
REMARK  11 active torsions:
REMARK  status: ('A' for Active; 'I' for Inactive)
REMARK    1  A    between atoms: P_1  and  O_3
REMARK    2  A    between atoms: P_1  and  O_5
REMARK    3  A    between atoms: P_1  and  C_15
REMARK    4  A    between atoms: O_5  and  C_6
REMARK    5  A    between atoms: C_11  and  N_14
REMARK    6  A    between atoms: C_15  and  C_16
REMARK    7  A    between atoms: C_16  and  C_17
REMARK    8  A    between atoms: C_17  and  C_20
REMARK    9  A    between atoms: N_19  and  C_22
REMARK   10  A    between atoms: C_22  and  C_24
REMARK   11  A    between atoms: C_24  and  O_25
REMARK                            x       y       z     vdW  Elec       q    Type
REMARK                         _______ _______ _______ _____ _____    ______ ____
ROOT
ATOM      1  P   UNL     1      33.818 -23.061 -18.035  0.00  0.00    +0.388 P 
ATOM      2  O   UNL     1      35.163 -22.769 -17.461  0.00  0.00    -0.244 OA
ENDROOT
BRANCH   1   3
ATOM      3  O   UNL     1      33.745 -24.270 -19.100  0.00  0.00    -0.315 OA
ATOM      4  H   UNL     1      33.614 -25.108 -18.630  0.00  0.00    +0.221 HD
ENDBRANCH   1   3
BRANCH   1   5
ATOM      5  O   UNL     1      33.043 -21.841 -18.739  0.00  0.00    -0.422 OA
BRANCH   5   6
ATOM      6  C   UNL     1      33.594 -21.010 -19.674  0.00  0.00    +0.147 C 
ATOM      7  C   UNL     1      32.780 -20.148 -20.409  0.00  0.00    +0.039 C 
ATOM      8  C   UNL     1      34.972 -21.024 -19.894  0.00  0.00    +0.039 C 
ATOM      9  C   UNL     1      33.343 -19.301 -21.364  0.00  0.00    +0.027 C 
ATOM     10  C   UNL     1      35.535 -20.177 -20.849  0.00  0.00    +0.027 C 
ATOM     11  C   UNL     1      34.721 -19.316 -21.583  0.00  0.00    +0.143 C 
BRANCH  11  14
ATOM     12  O   UNL     1      35.707 -17.323 -22.197  0.00  0.00    -0.126 OA
ATOM     13  O   UNL     1      35.372 -18.845 -23.744  0.00  0.00    -0.126 OA
ATOM     14  N   UNL     1      35.294 -18.453 -22.555  0.00  0.00    +0.058 N 
ENDBRANCH  11  14
ENDBRANCH   5   6
ENDBRANCH   1   5
BRANCH   1  15
ATOM     15  C   UNL     1      32.625 -23.593 -16.786  0.00  0.00    +0.129 C 
BRANCH  15  16
ATOM     16  C   UNL     1      31.427 -22.662 -16.652  0.00  0.00    +0.023 C 
BRANCH  16  17
ATOM     17  C   UNL     1      30.528 -23.044 -15.478  0.00  0.00    +0.086 C 
BRANCH  17  20
ATOM     18  O   UNL     1      28.428 -24.245 -15.381  0.00  0.00    -0.275 OA
ATOM     19  N   UNL     1      28.712 -22.586 -16.984  0.00  0.00    -0.295 N 
ATOM     20  C   UNL     1      29.113 -23.377 -15.917  0.00  0.00    +0.223 C 
ATOM     21  H   UNL     1      29.342 -21.918 -17.337  0.00  0.00    +0.150 HD
BRANCH  19  22
ATOM     22  C   UNL     1      27.410 -22.700 -17.600  0.00  0.00    +0.200 C 
BRANCH  22  24
ATOM     23  O   UNL     1      25.757 -21.969 -16.009  0.00  0.00    -0.248 OA
ATOM     24  C   UNL     1      26.402 -21.738 -17.024  0.00  0.00    +0.334 C 
BRANCH  24  25
ATOM     25  O   UNL     1      26.277 -20.594 -17.737  0.00  0.00    -0.479 OA
ATOM     26  H   UNL     1      25.650 -19.948 -17.478  0.00  0.00    +0.295 HD
ENDBRANCH  24  25
ENDBRANCH  22  24
ENDBRANCH  19  22
ENDBRANCH  17  20
ENDBRANCH  16  17
ENDBRANCH  15  16
ENDBRANCH   1  15
TORSDOF 11
ENDMDL
MODEL 5
REMARK VINA RESULT:      -8.8      4.145      8.548
REMARK  Name = 449244
REMARK  11 active torsions:
REMARK  status: ('A' for Active; 'I' for Inactive)
REMARK    1  A    between atoms: P_1  and  O_3
REMARK    2  A    between atoms: P_1  and  O_5
REMARK    3  A    between atoms: P_1  and  C_15
REMARK    4  A    between atoms: O_5  and  C_6
REMARK    5  A    between atoms: C_11  and  N_14
REMARK    6  A    between atoms: C_15  and  C_16
REMARK    7  A    between atoms: C_16  and  C_17
REMARK    8  A    between atoms: C_17  and  C_20
REMARK    9  A    between atoms: N_19  and  C_22
REMARK   10  A    between atoms: C_22  and  C_24
REMARK   11  A    between atoms: C_24  and  O_25
REMARK                            x       y       z     vdW  Elec       q    Type
REMARK                         _______ _______ _______ _____ _____    ______ ____
ROOT
ATOM      1  P   UNL     1      34.904 -24.460 -14.838  0.00  0.00    +0.388 P 
ATOM      2  O   UNL     1      34.990 -23.995 -16.253  0.00  0.00    -0.244 OA
ENDROOT
BRANCH   1   3
ATOM      3  O   UNL     1      35.528 -25.914 -14.527  0.00  0.00    -0.315 OA
ATOM      4  H   UNL     1      35.943 -25.906 -13.650  0.00  0.00    +0.221 HD
ENDBRANCH   1   3
BRANCH   1   5
ATOM      5  O   UNL     1      33.445 -24.482 -14.164  0.00  0.00    -0.422 OA
BRANCH   5   6
ATOM      6  C   UNL     1      32.284 -24.181 -14.820  0.00  0.00    +0.147 C 
ATOM      7  C   UNL     1      32.262 -23.156 -15.766  0.00  0.00    +0.039 C 
ATOM      8  C   UNL     1      31.120 -24.898 -14.543  0.00  0.00    +0.039 C 
ATOM      9  C   UNL     1      31.077 -22.848 -16.435  0.00  0.00    +0.027 C 
ATOM     10  C   UNL     1      29.934 -24.591 -15.212  0.00  0.00    +0.027 C 
ATOM     11  C   UNL     1      29.914 -23.566 -16.158  0.00  0.00    +0.143 C 
BRANCH  11  14
ATOM     12  O   UNL     1      27.967 -24.190 -17.226  0.00  0.00    -0.126 OA
ATOM     13  O   UNL     1      28.415 -22.049 -17.034  0.00  0.00    -0.126 OA
ATOM     14  N   UNL     1      28.708 -23.253 -16.839  0.00  0.00    +0.058 N 
ENDBRANCH  11  14
ENDBRANCH   5   6
ENDBRANCH   1   5
BRANCH   1  15
ATOM     15  C   UNL     1      35.828 -23.405 -13.698  0.00  0.00    +0.129 C 
BRANCH  15  16
ATOM     16  C   UNL     1      35.468 -23.626 -12.235  0.00  0.00    +0.023 C 
BRANCH  16  17
ATOM     17  C   UNL     1      36.493 -24.498 -11.514  0.00  0.00    +0.086 C 
BRANCH  17  20
ATOM     18  O   UNL     1      38.602 -23.318 -11.648  0.00  0.00    -0.275 OA
ATOM     19  N   UNL     1      38.295 -25.237 -12.923  0.00  0.00    -0.295 N 
ATOM     20  C   UNL     1      37.908 -24.263 -12.014  0.00  0.00    +0.223 C 
ATOM     21  H   UNL     1      37.658 -25.952 -13.146  0.00  0.00    +0.150 HD
BRANCH  19  22
ATOM     22  C   UNL     1      39.594 -25.248 -13.556  0.00  0.00    +0.200 C 
BRANCH  22  24
ATOM     23  O   UNL     1      40.570 -26.052 -15.605  0.00  0.00    -0.248 OA
ATOM     24  C   UNL     1      39.561 -25.809 -14.954  0.00  0.00    +0.334 C 
BRANCH  24  25
ATOM     25  O   UNL     1      38.309 -26.017 -15.425  0.00  0.00    -0.479 OA
ATOM     26  H   UNL     1      37.691 -25.312 -15.438  0.00  0.00    +0.295 HD
ENDBRANCH  24  25
ENDBRANCH  22  24
ENDBRANCH  19  22
ENDBRANCH  17  20
ENDBRANCH  16  17
ENDBRANCH  15  16
ENDBRANCH   1  15
TORSDOF 11
ENDMDL
MODEL 6
REMARK VINA RESULT:      -8.8      5.671      9.985
REMARK  Name = 449244
REMARK  11 active torsions:
REMARK  status: ('A' for Active; 'I' for Inactive)
REMARK    1  A    between atoms: P_1  and  O_3
REMARK    2  A    between atoms: P_1  and  O_5
REMARK    3  A    between atoms: P_1  and  C_15
REMARK    4  A    between atoms: O_5  and  C_6
REMARK    5  A    between atoms: C_11  and  N_14
REMARK    6  A    between atoms: C_15  and  C_16
REMARK    7  A    between atoms: C_16  and  C_17
REMARK    8  A    between atoms: C_17  and  C_20
REMARK    9  A    between atoms: N_19  and  C_22
REMARK   10  A    between atoms: C_22  and  C_24
REMARK   11  A    between atoms: C_24  and  O_25
REMARK                            x       y       z     vdW  Elec       q    Type
REMARK                         _______ _______ _______ _____ _____    ______ ____
ROOT
ATOM      1  P   UNL     1      34.970 -18.231 -23.302  0.00  0.00    +0.388 P 
ATOM      2  O   UNL     1      34.791 -19.385 -24.230  0.00  0.00    -0.244 OA
ENDROOT
BRANCH   1   3
ATOM      3  O   UNL     1      36.492 -17.815 -22.969  0.00  0.00    -0.315 OA
ATOM      4  H   UNL     1      36.804 -17.176 -23.629  0.00  0.00    +0.221 HD
ENDBRANCH   1   3
BRANCH   1   5
ATOM      5  O   UNL     1      34.242 -18.324 -21.871  0.00  0.00    -0.422 OA
BRANCH   5   6
ATOM      6  C   UNL     1      34.267 -19.425 -21.060  0.00  0.00    +0.147 C 
ATOM      7  C   UNL     1      33.073 -19.963 -20.578  0.00  0.00    +0.039 C 
ATOM      8  C   UNL     1      35.485 -20.009 -20.713  0.00  0.00    +0.039 C 
ATOM      9  C   UNL     1      33.098 -21.085 -19.750  0.00  0.00    +0.027 C 
ATOM     10  C   UNL     1      35.510 -21.131 -19.885  0.00  0.00    +0.027 C 
ATOM     11  C   UNL     1      34.317 -21.669 -19.404  0.00  0.00    +0.143 C 
BRANCH  11  14
ATOM     12  O   UNL     1      33.744 -23.852 -18.928  0.00  0.00    -0.126 OA
ATOM     13  O   UNL     1      34.962 -22.749 -17.471  0.00  0.00    -0.126 OA
ATOM     14  N   UNL     1      34.342 -22.811 -18.560  0.00  0.00    +0.058 N 
ENDBRANCH  11  14
ENDBRANCH   5   6
ENDBRANCH   1   5
BRANCH   1  15
ATOM     15  C   UNL     1      34.298 -16.690 -23.965  0.00  0.00    +0.129 C 
BRANCH  15  16
ATOM     16  C   UNL     1      34.862 -15.442 -23.298  0.00  0.00    +0.023 C 
BRANCH  16  17
ATOM     17  C   UNL     1      33.817 -14.719 -22.450  0.00  0.00    +0.086 C 
BRANCH  17  20
ATOM     18  O   UNL     1      32.049 -13.170 -23.028  0.00  0.00    -0.275 OA
ATOM     19  N   UNL     1      34.149 -12.900 -23.986  0.00  0.00    -0.295 N 
ATOM     20  C   UNL     1      33.217 -13.522 -23.168  0.00  0.00    +0.223 C 
ATOM     21  H   UNL     1      35.061 -13.267 -24.023  0.00  0.00    +0.150 HD
BRANCH  19  22
ATOM     22  C   UNL     1      33.839 -11.738 -24.787  0.00  0.00    +0.200 C 
BRANCH  22  24
ATOM     23  O   UNL     1      33.176  -9.798 -23.525  0.00  0.00    -0.248 OA
ATOM     24  C   UNL     1      34.074 -10.442 -24.055  0.00  0.00    +0.334 C 
BRANCH  24  25
ATOM     25  O   UNL     1      35.371 -10.056 -24.039  0.00  0.00    -0.479 OA
ATOM     26  H   UNL     1      35.588  -9.145 -24.063  0.00  0.00    +0.295 HD
ENDBRANCH  24  25
ENDBRANCH  22  24
ENDBRANCH  19  22
ENDBRANCH  17  20
ENDBRANCH  16  17
ENDBRANCH  15  16
ENDBRANCH   1  15
TORSDOF 11
ENDMDL
MODEL 7
REMARK VINA RESULT:      -8.8      4.386      6.879
REMARK  Name = 449244
REMARK  11 active torsions:
REMARK  status: ('A' for Active; 'I' for Inactive)
REMARK    1  A    between atoms: P_1  and  O_3
REMARK    2  A    between atoms: P_1  and  O_5
REMARK    3  A    between atoms: P_1  and  C_15
REMARK    4  A    between atoms: O_5  and  C_6
REMARK    5  A    between atoms: C_11  and  N_14
REMARK    6  A    between atoms: C_15  and  C_16
REMARK    7  A    between atoms: C_16  and  C_17
REMARK    8  A    between atoms: C_17  and  C_20
REMARK    9  A    between atoms: N_19  and  C_22
REMARK   10  A    between atoms: C_22  and  C_24
REMARK   11  A    between atoms: C_24  and  O_25
REMARK                            x       y       z     vdW  Elec       q    Type
REMARK                         _______ _______ _______ _____ _____    ______ ____
ROOT
ATOM      1  P   UNL     1      35.680 -22.984 -16.059  0.00  0.00    +0.388 P 
ATOM      2  O   UNL     1      36.457 -21.733 -15.829  0.00  0.00    -0.244 OA
ENDROOT
BRANCH   1   3
ATOM      3  O   UNL     1      36.510 -24.364 -15.974  0.00  0.00    -0.315 OA
ATOM      4  H   UNL     1      36.162 -24.906 -15.248  0.00  0.00    +0.221 HD
ENDBRANCH   1   3
BRANCH   1   5
ATOM      5  O   UNL     1      34.847 -23.086 -17.431  0.00  0.00    -0.422 OA
BRANCH   5   6
ATOM      6  C   UNL     1      34.914 -22.173 -18.447  0.00  0.00    +0.147 C 
ATOM      7  C   UNL     1      33.744 -21.701 -19.041  0.00  0.00    +0.039 C 
ATOM      8  C   UNL     1      36.155 -21.716 -18.892  0.00  0.00    +0.039 C 
ATOM      9  C   UNL     1      33.813 -20.771 -20.078  0.00  0.00    +0.027 C 
ATOM     10  C   UNL     1      36.225 -20.786 -19.930  0.00  0.00    +0.027 C 
ATOM     11  C   UNL     1      35.054 -20.314 -20.522  0.00  0.00    +0.143 C 
BRANCH  11  14
ATOM     12  O   UNL     1      34.231 -19.374 -22.461  0.00  0.00    -0.126 OA
ATOM     13  O   UNL     1      36.077 -18.551 -21.601  0.00  0.00    -0.126 OA
ATOM     14  N   UNL     1      35.124 -19.367 -21.579  0.00  0.00    +0.058 N 
ENDBRANCH  11  14
ENDBRANCH   5   6
ENDBRANCH   1   5
BRANCH   1  15
ATOM     15  C   UNL     1      34.392 -23.246 -14.819  0.00  0.00    +0.129 C 
BRANCH  15  16
ATOM     16  C   UNL     1      34.643 -24.454 -13.925  0.00  0.00    +0.023 C 
BRANCH  16  17
ATOM     17  C   UNL     1      35.493 -24.102 -12.706  0.00  0.00    +0.086 C 
BRANCH  17  20
ATOM     18  O   UNL     1      36.673 -25.930 -11.644  0.00  0.00    -0.275 OA
ATOM     19  N   UNL     1      37.666 -24.830 -13.433  0.00  0.00    -0.295 N 
ATOM     20  C   UNL     1      36.654 -25.064 -12.514  0.00  0.00    +0.223 C 
ATOM     21  H   UNL     1      37.547 -24.107 -14.090  0.00  0.00    +0.150 HD
BRANCH  19  22
ATOM     22  C   UNL     1      38.888 -25.600 -13.469  0.00  0.00    +0.200 C 
BRANCH  22  24
ATOM     23  O   UNL     1      40.885 -25.732 -14.806  0.00  0.00    -0.248 OA
ATOM     24  C   UNL     1      39.790 -25.218 -14.613  0.00  0.00    +0.334 C 
BRANCH  24  25
ATOM     25  O   UNL     1      39.276 -24.250 -15.408  0.00  0.00    -0.479 OA
ATOM     26  H   UNL     1      39.187 -24.398 -16.328  0.00  0.00    +0.295 HD
ENDBRANCH  24  25
ENDBRANCH  22  24
ENDBRANCH  19  22
ENDBRANCH  17  20
ENDBRANCH  16  17
ENDBRANCH  15  16
ENDBRANCH   1  15
TORSDOF 11
ENDMDL
MODEL 8
REMARK VINA RESULT:      -8.7      3.546      5.686
REMARK  Name = 449244
REMARK  11 active torsions:
REMARK  status: ('A' for Active; 'I' for Inactive)
REMARK    1  A    between atoms: P_1  and  O_3
REMARK    2  A    between atoms: P_1  and  O_5
REMARK    3  A    between atoms: P_1  and  C_15
REMARK    4  A    between atoms: O_5  and  C_6
REMARK    5  A    between atoms: C_11  and  N_14
REMARK    6  A    between atoms: C_15  and  C_16
REMARK    7  A    between atoms: C_16  and  C_17
REMARK    8  A    between atoms: C_17  and  C_20
REMARK    9  A    between atoms: N_19  and  C_22
REMARK   10  A    between atoms: C_22  and  C_24
REMARK   11  A    between atoms: C_24  and  O_25
REMARK                            x       y       z     vdW  Elec       q    Type
REMARK                         _______ _______ _______ _____ _____    ______ ____
ROOT
ATOM      1  P   UNL     1      33.568 -23.127 -17.667  0.00  0.00    +0.388 P 
ATOM      2  O   UNL     1      34.842 -22.792 -16.966  0.00  0.00    -0.244 OA
ENDROOT
BRANCH   1   3
ATOM      3  O   UNL     1      33.605 -24.416 -18.634  0.00  0.00    -0.315 OA
ATOM      4  H   UNL     1      33.956 -25.177 -18.146  0.00  0.00    +0.221 HD
ENDBRANCH   1   3
BRANCH   1   5
ATOM      5  O   UNL     1      32.892 -21.966 -18.549  0.00  0.00    -0.422 OA
BRANCH   5   6
ATOM      6  C   UNL     1      33.555 -21.216 -19.481  0.00  0.00    +0.147 C 
ATOM      7  C   UNL     1      32.852 -20.311 -20.277  0.00  0.00    +0.039 C 
ATOM      8  C   UNL     1      34.933 -21.358 -19.638  0.00  0.00    +0.039 C 
ATOM      9  C   UNL     1      33.529 -19.547 -21.229  0.00  0.00    +0.027 C 
ATOM     10  C   UNL     1      35.610 -20.595 -20.590  0.00  0.00    +0.027 C 
ATOM     11  C   UNL     1      34.907 -19.690 -21.384  0.00  0.00    +0.143 C 
BRANCH  11  14
ATOM     12  O   UNL     1      35.226 -18.968 -23.552  0.00  0.00    -0.126 OA
ATOM     13  O   UNL     1      36.554 -18.191 -21.986  0.00  0.00    -0.126 OA
ATOM     14  N   UNL     1      35.596 -18.912 -22.354  0.00  0.00    +0.058 N 
ENDBRANCH  11  14
ENDBRANCH   5   6
ENDBRANCH   1   5
BRANCH   1  15
ATOM     15  C   UNL     1      32.234 -23.555 -16.526  0.00  0.00    +0.129 C 
BRANCH  15  16
ATOM     16  C   UNL     1      32.530 -23.191 -15.077  0.00  0.00    +0.023 C 
BRANCH  16  17
ATOM     17  C   UNL     1      32.776 -24.425 -14.211  0.00  0.00    +0.086 C 
BRANCH  17  20
ATOM     18  O   UNL     1      34.513 -24.023 -12.573  0.00  0.00    -0.275 OA
ATOM     19  N   UNL     1      35.059 -25.091 -14.563  0.00  0.00    -0.295 N 
ATOM     20  C   UNL     1      34.194 -24.477 -13.669  0.00  0.00    +0.223 C 
ATOM     21  H   UNL     1      34.696 -25.421 -15.416  0.00  0.00    +0.150 HD
BRANCH  19  22
ATOM     22  C   UNL     1      36.468 -25.268 -14.298  0.00  0.00    +0.200 C 
BRANCH  22  24
ATOM     23  O   UNL     1      38.103 -27.003 -14.632  0.00  0.00    -0.248 OA
ATOM     24  C   UNL     1      37.043 -26.490 -14.967  0.00  0.00    +0.334 C 
BRANCH  24  25
ATOM     25  O   UNL     1      36.275 -26.965 -15.976  0.00  0.00    -0.479 OA
ATOM     26  H   UNL     1      36.521 -27.754 -16.419  0.00  0.00    +0.295 HD
ENDBRANCH  24  25
ENDBRANCH  22  24
ENDBRANCH  19  22
ENDBRANCH  17  20
ENDBRANCH  16  17
ENDBRANCH  15  16
ENDBRANCH   1  15
TORSDOF 11
ENDMDL
MODEL 9
REMARK VINA RESULT:      -8.7      6.020      9.319
REMARK  Name = 449244
REMARK  11 active torsions:
REMARK  status: ('A' for Active; 'I' for Inactive)
REMARK    1  A    between atoms: P_1  and  O_3
REMARK    2  A    between atoms: P_1  and  O_5
REMARK    3  A    between atoms: P_1  and  C_15
REMARK    4  A    between atoms: O_5  and  C_6
REMARK    5  A    between atoms: C_11  and  N_14
REMARK    6  A    between atoms: C_15  and  C_16
REMARK    7  A    between atoms: C_16  and  C_17
REMARK    8  A    between atoms: C_17  and  C_20
REMARK    9  A    between atoms: N_19  and  C_22
REMARK   10  A    between atoms: C_22  and  C_24
REMARK   11  A    between atoms: C_24  and  O_25
REMARK                            x       y       z     vdW  Elec       q    Type
REMARK                         _______ _______ _______ _____ _____    ______ ____
ROOT
ATOM      1  P   UNL     1      34.114 -16.571 -21.433  0.00  0.00    +0.388 P 
ATOM      2  O   UNL     1      35.159 -16.119 -20.469  0.00  0.00    -0.244 OA
ENDROOT
BRANCH   1   3
ATOM      3  O   UNL     1      32.585 -16.423 -20.946  0.00  0.00    -0.315 OA
ATOM      4  H   UNL     1      32.011 -16.294 -21.717  0.00  0.00    +0.221 HD
ENDBRANCH   1   3
BRANCH   1   5
ATOM      5  O   UNL     1      34.231 -18.077 -21.984  0.00  0.00    -0.422 OA
BRANCH   5   6
ATOM      6  C   UNL     1      34.305 -19.188 -21.190  0.00  0.00    +0.147 C 
ATOM      7  C   UNL     1      33.137 -19.792 -20.724  0.00  0.00    +0.039 C 
ATOM      8  C   UNL     1      35.548 -19.716 -20.844  0.00  0.00    +0.039 C 
ATOM      9  C   UNL     1      33.212 -20.925 -19.913  0.00  0.00    +0.027 C 
ATOM     10  C   UNL     1      35.625 -20.849 -20.032  0.00  0.00    +0.027 C 
ATOM     11  C   UNL     1      34.457 -21.453 -19.568  0.00  0.00    +0.143 C 
BRANCH  11  14
ATOM     12  O   UNL     1      35.296 -22.589 -17.745  0.00  0.00    -0.126 OA
ATOM     13  O   UNL     1      33.837 -23.608 -19.032  0.00  0.00    -0.126 OA
ATOM     14  N   UNL     1      34.534 -22.606 -18.742  0.00  0.00    +0.058 N 
ENDBRANCH  11  14
ENDBRANCH   5   6
ENDBRANCH   1   5
BRANCH   1  15
ATOM     15  C   UNL     1      34.113 -15.611 -22.964  0.00  0.00    +0.129 C 
BRANCH  15  16
ATOM     16  C   UNL     1      34.114 -14.105 -22.740  0.00  0.00    +0.023 C 
BRANCH  16  17
ATOM     17  C   UNL     1      32.711 -13.508 -22.825  0.00  0.00    +0.086 C 
BRANCH  17  20
ATOM     18  O   UNL     1      32.415 -13.539 -20.422  0.00  0.00    -0.275 OA
ATOM     19  N   UNL     1      31.574 -11.750 -21.643  0.00  0.00    -0.295 N 
ATOM     20  C   UNL     1      32.233 -12.961 -21.490  0.00  0.00    +0.223 C 
ATOM     21  H   UNL     1      31.485 -11.374 -22.548  0.00  0.00    +0.150 HD
BRANCH  19  22
ATOM     22  C   UNL     1      31.014 -11.014 -20.532  0.00  0.00    +0.200 C 
BRANCH  22  24
ATOM     23  O   UNL     1      31.942  -8.846 -21.016  0.00  0.00    -0.248 OA
ATOM     24  C   UNL     1      31.782  -9.758 -20.214  0.00  0.00    +0.334 C 
BRANCH  24  25
ATOM     25  O   UNL     1      32.281  -9.733 -18.955  0.00  0.00    -0.479 OA
ATOM     26  H   UNL     1      33.202  -9.632 -18.819  0.00  0.00    +0.295 HD
ENDBRANCH  24  25
ENDBRANCH  22  24
ENDBRANCH  19  22
ENDBRANCH  17  20
ENDBRANCH  16  17
ENDBRANCH  15  16
ENDBRANCH   1  15
TORSDOF 11
ENDMDL
