MODEL 1
REMARK VINA RESULT:      -8.6      0.000      0.000
REMARK  Name = 153941
REMARK  4 active torsions:
REMARK  status: ('A' for Active; 'I' for Inactive)
REMARK    1  A    between atoms: N_2  and  C_15
REMARK    2  A    between atoms: C_16  and  C_23
REMARK    3  A    between atoms: C_17  and  O_21
REMARK    4  A    between atoms: C_23  and  O_24
REMARK                            x       y       z     vdW  Elec       q    Type
REMARK                         _______ _______ _______ _____ _____    ______ ____
ROOT
ATOM      1  O   UNL     1      32.892 -22.960 -17.936  0.00  0.00    -0.208 OA
ATOM      2  N   UNL     1      36.548 -23.063 -15.280  0.00  0.00    -0.230 NA
ATOM      3  N   UNL     1      34.512 -24.037 -14.372  0.00  0.00    -0.279 N 
ATOM      4  N   UNL     1      35.718 -22.441 -17.269  0.00  0.00    -0.241 NA
ATOM      5  N   UNL     1      32.624 -23.938 -15.851  0.00  0.00    -0.301 NA
ATOM      6  N   UNL     1      32.477 -24.908 -13.709  0.00  0.00    -0.320 N 
ATOM      7  C   UNL     1      35.245 -23.425 -15.306  0.00  0.00    +0.189 C 
ATOM      8  C   UNL     1      36.791 -22.467 -16.497  0.00  0.00    +0.203 C 
ATOM      9  C   UNL     1      34.748 -23.043 -16.518  0.00  0.00    +0.183 C 
ATOM     10  C   UNL     1      33.360 -23.294 -16.854  0.00  0.00    +0.224 C 
ATOM     11  C   UNL     1      33.179 -24.275 -14.703  0.00  0.00    +0.245 C 
ATOM     12  H   UNL     1      34.891 -24.304 -13.505  0.00  0.00    +0.152 HD
ATOM     13  H   UNL     1      32.924 -25.144 -12.864  0.00  0.00    +0.146 HD
ATOM     14  H   UNL     1      31.525 -25.124 -13.840  0.00  0.00    +0.146 HD
ENDROOT
BRANCH   2  15
ATOM     15  C   UNL     1      37.516 -23.254 -14.199  0.00  0.00    +0.082 C 
ATOM     16  C   UNL     1      38.156 -25.119 -12.678  0.00  0.00    +0.076 C 
ATOM     17  C   UNL     1      37.829 -23.847 -11.882  0.00  0.00    +0.118 C 
ATOM     18  C   UNL     1      36.920 -23.034 -12.801  0.00  0.00    +0.050 C 
ATOM     19  C   UNL     1      38.133 -24.634 -14.115  0.00  0.00    -0.025 C 
ATOM     20  C   UNL     1      38.652 -25.316 -15.145  0.00  0.00    -0.008 C 
BRANCH  17  21
ATOM     21  O   UNL     1      39.035 -23.128 -11.635  0.00  0.00    -0.384 OA
ATOM     22  H   UNL     1      39.009 -22.749 -10.742  0.00  0.00    +0.210 HD
ENDBRANCH  17  21
BRANCH  16  23
ATOM     23  C   UNL     1      37.128 -26.221 -12.437  0.00  0.00    +0.144 C 
BRANCH  23  24
ATOM     24  O   UNL     1      36.176 -25.737 -11.518  0.00  0.00    -0.382 OA
ATOM     25  H   UNL     1      36.479 -24.890 -11.155  0.00  0.00    +0.210 HD
ENDBRANCH  23  24
ENDBRANCH  16  23
ENDBRANCH   2  15
TORSDOF 4
ENDMDL
MODEL 2
REMARK VINA RESULT:      -8.5      1.089      2.693
REMARK  Name = 153941
REMARK  4 active torsions:
REMARK  status: ('A' for Active; 'I' for Inactive)
REMARK    1  A    between atoms: N_2  and  C_15
REMARK    2  A    between atoms: C_16  and  C_23
REMARK    3  A    between atoms: C_17  and  O_21
REMARK    4  A    between atoms: C_23  and  O_24
REMARK                            x       y       z     vdW  Elec       q    Type
REMARK                         _______ _______ _______ _____ _____    ______ ____
ROOT
ATOM      1  O   UNL     1      32.684 -23.083 -18.394  0.00  0.00    -0.208 OA
ATOM      2  N   UNL     1      35.531 -23.294 -14.891  0.00  0.00    -0.230 NA
ATOM      3  N   UNL     1      36.325 -22.129 -16.873  0.00  0.00    -0.279 N 
ATOM      4  N   UNL     1      33.503 -23.854 -15.668  0.00  0.00    -0.241 NA
ATOM      5  N   UNL     1      34.747 -22.067 -18.682  0.00  0.00    -0.301 NA
ATOM      6  N   UNL     1      36.876 -21.069 -18.852  0.00  0.00    -0.320 N 
ATOM      7  C   UNL     1      35.434 -22.814 -16.152  0.00  0.00    +0.189 C 
ATOM      8  C   UNL     1      34.331 -23.920 -14.640  0.00  0.00    +0.203 C 
ATOM      9  C   UNL     1      34.198 -23.159 -16.617  0.00  0.00    +0.183 C 
ATOM     10  C   UNL     1      33.788 -22.784 -17.956  0.00  0.00    +0.224 C 
ATOM     11  C   UNL     1      35.923 -21.772 -18.159  0.00  0.00    +0.245 C 
ATOM     12  H   UNL     1      37.211 -21.890 -16.518  0.00  0.00    +0.152 HD
ATOM     13  H   UNL     1      37.742 -20.867 -18.430  0.00  0.00    +0.146 HD
ATOM     14  H   UNL     1      36.692 -20.767 -19.771  0.00  0.00    +0.146 HD
ENDROOT
BRANCH   2  15
ATOM     15  C   UNL     1      36.662 -23.184 -13.968  0.00  0.00    +0.082 C 
ATOM     16  C   UNL     1      38.161 -24.773 -12.774  0.00  0.00    +0.076 C 
ATOM     17  C   UNL     1      37.530 -23.772 -11.796  0.00  0.00    +0.118 C 
ATOM     18  C   UNL     1      36.256 -23.296 -12.491  0.00  0.00    +0.050 C 
ATOM     19  C   UNL     1      37.738 -24.236 -14.128  0.00  0.00    -0.025 C 
ATOM     20  C   UNL     1      38.297 -24.604 -15.289  0.00  0.00    -0.008 C 
BRANCH  17  21
ATOM     21  O   UNL     1      38.420 -22.674 -11.613  0.00  0.00    -0.384 OA
ATOM     22  H   UNL     1      37.910 -21.871 -11.422  0.00  0.00    +0.210 HD
ENDBRANCH  17  21
BRANCH  16  23
ATOM     23  C   UNL     1      37.650 -26.193 -12.544  0.00  0.00    +0.144 C 
BRANCH  23  24
ATOM     24  O   UNL     1      36.651 -26.142 -11.552  0.00  0.00    -0.382 OA
ATOM     25  H   UNL     1      36.657 -26.968 -11.044  0.00  0.00    +0.210 HD
ENDBRANCH  23  24
ENDBRANCH  16  23
ENDBRANCH   2  15
TORSDOF 4
ENDMDL
MODEL 3
REMARK VINA RESULT:      -8.5      1.996      2.976
REMARK  Name = 153941
REMARK  4 active torsions:
REMARK  status: ('A' for Active; 'I' for Inactive)
REMARK    1  A    between atoms: N_2  and  C_15
REMARK    2  A    between atoms: C_16  and  C_23
REMARK    3  A    between atoms: C_17  and  O_21
REMARK    4  A    between atoms: C_23  and  O_24
REMARK                            x       y       z     vdW  Elec       q    Type
REMARK                         _______ _______ _______ _____ _____    ______ ____
ROOT
ATOM      1  O   UNL     1      30.367 -23.143 -14.852  0.00  0.00    -0.208 OA
ATOM      2  N   UNL     1      34.800 -24.024 -14.850  0.00  0.00    -0.230 NA
ATOM      3  N   UNL     1      33.856 -23.184 -16.928  0.00  0.00    -0.279 N 
ATOM      4  N   UNL     1      32.909 -24.026 -13.645  0.00  0.00    -0.241 NA
ATOM      5  N   UNL     1      31.498 -22.745 -16.837  0.00  0.00    -0.301 NA
ATOM      6  N   UNL     1      32.757 -22.379 -18.795  0.00  0.00    -0.320 N 
ATOM      7  C   UNL     1      33.809 -23.575 -15.652  0.00  0.00    +0.189 C 
ATOM      8  C   UNL     1      34.205 -24.286 -13.637  0.00  0.00    +0.203 C 
ATOM      9  C   UNL     1      32.662 -23.579 -14.912  0.00  0.00    +0.183 C 
ATOM     10  C   UNL     1      31.409 -23.147 -15.498  0.00  0.00    +0.224 C 
ATOM     11  C   UNL     1      32.647 -22.770 -17.484  0.00  0.00    +0.245 C 
ATOM     12  H   UNL     1      34.694 -23.188 -17.444  0.00  0.00    +0.152 HD
ATOM     13  H   UNL     1      33.631 -22.411 -19.247  0.00  0.00    +0.146 HD
ATOM     14  H   UNL     1      31.961 -22.067 -19.283  0.00  0.00    +0.146 HD
ENDROOT
BRANCH   2  15
ATOM     15  C   UNL     1      36.216 -24.201 -15.178  0.00  0.00    +0.082 C 
ATOM     16  C   UNL     1      38.123 -25.496 -14.238  0.00  0.00    +0.076 C 
ATOM     17  C   UNL     1      38.486 -24.012 -14.386  0.00  0.00    +0.118 C 
ATOM     18  C   UNL     1      37.148 -23.278 -14.377  0.00  0.00    +0.050 C 
ATOM     19  C   UNL     1      36.774 -25.585 -14.925  0.00  0.00    -0.025 C 
ATOM     20  C   UNL     1      36.202 -26.734 -15.309  0.00  0.00    -0.008 C 
BRANCH  17  21
ATOM     21  O   UNL     1      39.138 -23.814 -15.640  0.00  0.00    -0.384 OA
ATOM     22  H   UNL     1      40.027 -24.198 -15.607  0.00  0.00    +0.210 HD
ENDBRANCH  17  21
BRANCH  16  23
ATOM     23  C   UNL     1      38.041 -25.917 -12.773  0.00  0.00    +0.144 C 
BRANCH  23  24
ATOM     24  O   UNL     1      36.748 -26.426 -12.537  0.00  0.00    -0.382 OA
ATOM     25  H   UNL     1      36.090 -25.828 -12.925  0.00  0.00    +0.210 HD
ENDBRANCH  23  24
ENDBRANCH  16  23
ENDBRANCH   2  15
TORSDOF 4
ENDMDL
MODEL 4
REMARK VINA RESULT:      -8.4      1.901      2.847
REMARK  Name = 153941
REMARK  4 active torsions:
REMARK  status: ('A' for Active; 'I' for Inactive)
REMARK    1  A    between atoms: N_2  and  C_15
REMARK    2  A    between atoms: C_16  and  C_23
REMARK    3  A    between atoms: C_17  and  O_21
REMARK    4  A    between atoms: C_23  and  O_24
REMARK                            x       y       z     vdW  Elec       q    Type
REMARK                         _______ _______ _______ _____ _____    ______ ____
ROOT
ATOM      1  O   UNL     1      31.066 -22.373 -17.224  0.00  0.00    -0.208 OA
ATOM      2  N   UNL     1      34.609 -24.278 -15.164  0.00  0.00    -0.230 NA
ATOM      3  N   UNL     1      32.418 -24.734 -14.210  0.00  0.00    -0.279 N 
ATOM      4  N   UNL     1      33.930 -22.965 -16.851  0.00  0.00    -0.241 NA
ATOM      5  N   UNL     1      30.597 -23.682 -15.369  0.00  0.00    -0.301 NA
ATOM      6  N   UNL     1      30.248 -25.036 -13.472  0.00  0.00    -0.320 N 
ATOM      7  C   UNL     1      33.262 -24.185 -15.088  0.00  0.00    +0.189 C 
ATOM      8  C   UNL     1      34.971 -23.519 -16.253  0.00  0.00    +0.203 C 
ATOM      9  C   UNL     1      32.857 -23.385 -16.117  0.00  0.00    +0.183 C 
ATOM     10  C   UNL     1      31.451 -23.088 -16.307  0.00  0.00    +0.224 C 
ATOM     11  C   UNL     1      31.068 -24.444 -14.400  0.00  0.00    +0.245 C 
ATOM     12  H   UNL     1      32.731 -25.308 -13.475  0.00  0.00    +0.152 HD
ATOM     13  H   UNL     1      30.635 -25.599 -12.762  0.00  0.00    +0.146 HD
ATOM     14  H   UNL     1      29.275 -24.897 -13.516  0.00  0.00    +0.146 HD
ENDROOT
BRANCH   2  15
ATOM     15  C   UNL     1      35.512 -25.023 -14.286  0.00  0.00    +0.082 C 
ATOM     16  C   UNL     1      37.969 -25.091 -13.886  0.00  0.00    +0.076 C 
ATOM     17  C   UNL     1      37.419 -26.496 -14.171  0.00  0.00    +0.118 C 
ATOM     18  C   UNL     1      36.130 -26.260 -14.955  0.00  0.00    +0.050 C 
ATOM     19  C   UNL     1      36.711 -24.251 -13.779  0.00  0.00    -0.025 C 
ATOM     20  C   UNL     1      36.673 -23.023 -13.245  0.00  0.00    -0.008 C 
BRANCH  17  21
ATOM     21  O   UNL     1      37.121 -27.141 -12.934  0.00  0.00    -0.384 OA
ATOM     22  H   UNL     1      37.720 -26.812 -12.246  0.00  0.00    +0.210 HD
ENDBRANCH  17  21
BRANCH  16  23
ATOM     23  C   UNL     1      38.883 -24.601 -15.007  0.00  0.00    +0.144 C 
BRANCH  23  24
ATOM     24  O   UNL     1      39.559 -25.716 -15.538  0.00  0.00    -0.382 OA
ATOM     25  H   UNL     1      39.627 -25.624 -16.501  0.00  0.00    +0.210 HD
ENDBRANCH  23  24
ENDBRANCH  16  23
ENDBRANCH   2  15
TORSDOF 4
ENDMDL
MODEL 5
REMARK VINA RESULT:      -8.2      2.323      6.136
REMARK  Name = 153941
REMARK  4 active torsions:
REMARK  status: ('A' for Active; 'I' for Inactive)
REMARK    1  A    between atoms: N_2  and  C_15
REMARK    2  A    between atoms: C_16  and  C_23
REMARK    3  A    between atoms: C_17  and  O_21
REMARK    4  A    between atoms: C_23  and  O_24
REMARK                            x       y       z     vdW  Elec       q    Type
REMARK                         _______ _______ _______ _____ _____    ______ ____
ROOT
ATOM      1  O   UNL     1      38.453 -24.433 -14.466  0.00  0.00    -0.208 OA
ATOM      2  N   UNL     1      34.049 -23.608 -15.058  0.00  0.00    -0.230 NA
ATOM      3  N   UNL     1      35.600 -22.109 -16.182  0.00  0.00    -0.279 N 
ATOM      4  N   UNL     1      35.572 -24.932 -14.080  0.00  0.00    -0.241 NA
ATOM      5  N   UNL     1      37.916 -22.623 -15.812  0.00  0.00    -0.301 NA
ATOM      6  N   UNL     1      37.243 -20.811 -17.160  0.00  0.00    -0.320 N 
ATOM      7  C   UNL     1      35.271 -23.147 -15.408  0.00  0.00    +0.189 C 
ATOM      8  C   UNL     1      34.282 -24.696 -14.248  0.00  0.00    +0.203 C 
ATOM      9  C   UNL     1      36.191 -23.957 -14.809  0.00  0.00    +0.183 C 
ATOM     10  C   UNL     1      37.609 -23.718 -14.994  0.00  0.00    +0.224 C 
ATOM     11  C   UNL     1      36.965 -21.887 -16.355  0.00  0.00    +0.245 C 
ATOM     12  H   UNL     1      34.920 -21.538 -16.605  0.00  0.00    +0.152 HD
ATOM     13  H   UNL     1      36.508 -20.284 -17.549  0.00  0.00    +0.146 HD
ATOM     14  H   UNL     1      38.179 -20.567 -17.348  0.00  0.00    +0.146 HD
ENDROOT
BRANCH   2  15
ATOM     15  C   UNL     1      32.740 -23.080 -15.446  0.00  0.00    +0.082 C 
ATOM     16  C   UNL     1      30.374 -23.833 -15.247  0.00  0.00    +0.076 C 
ATOM     17  C   UNL     1      30.719 -23.479 -16.701  0.00  0.00    +0.118 C 
ATOM     18  C   UNL     1      32.236 -23.625 -16.790  0.00  0.00    +0.050 C 
ATOM     19  C   UNL     1      31.607 -23.380 -14.488  0.00  0.00    -0.025 C 
ATOM     20  C   UNL     1      31.649 -23.211 -13.159  0.00  0.00    -0.008 C 
BRANCH  17  21
ATOM     21  O   UNL     1      30.348 -22.124 -16.952  0.00  0.00    -0.384 OA
ATOM     22  H   UNL     1      31.075 -21.536 -16.692  0.00  0.00    +0.210 HD
ENDBRANCH  17  21
BRANCH  16  23
ATOM     23  C   UNL     1      30.119 -25.328 -15.071  0.00  0.00    +0.144 C 
BRANCH  23  24
ATOM     24  O   UNL     1      28.942 -25.484 -14.313  0.00  0.00    -0.382 OA
ATOM     25  H   UNL     1      28.175 -25.495 -14.906  0.00  0.00    +0.210 HD
ENDBRANCH  23  24
ENDBRANCH  16  23
ENDBRANCH   2  15
TORSDOF 4
ENDMDL
MODEL 6
REMARK VINA RESULT:      -8.2      3.154      6.510
REMARK  Name = 153941
REMARK  4 active torsions:
REMARK  status: ('A' for Active; 'I' for Inactive)
REMARK    1  A    between atoms: N_2  and  C_15
REMARK    2  A    between atoms: C_16  and  C_23
REMARK    3  A    between atoms: C_17  and  O_21
REMARK    4  A    between atoms: C_23  and  O_24
REMARK                            x       y       z     vdW  Elec       q    Type
REMARK                         _______ _______ _______ _____ _____    ______ ____
ROOT
ATOM      1  O   UNL     1      36.922 -24.450 -15.753  0.00  0.00    -0.208 OA
ATOM      2  N   UNL     1      32.541 -23.353 -15.580  0.00  0.00    -0.230 NA
ATOM      3  N   UNL     1      33.694 -23.578 -13.450  0.00  0.00    -0.279 N 
ATOM      4  N   UNL     1      34.283 -23.825 -16.912  0.00  0.00    -0.241 NA
ATOM      5  N   UNL     1      36.015 -24.162 -13.639  0.00  0.00    -0.301 NA
ATOM      6  N   UNL     1      34.979 -23.841 -11.547  0.00  0.00    -0.320 N 
ATOM      7  C   UNL     1      33.606 -23.595 -14.783  0.00  0.00    +0.189 C 
ATOM      8  C   UNL     1      33.001 -23.506 -16.868  0.00  0.00    +0.203 C 
ATOM      9  C   UNL     1      34.661 -23.881 -15.600  0.00  0.00    +0.183 C 
ATOM     10  C   UNL     1      35.962 -24.189 -15.039  0.00  0.00    +0.224 C 
ATOM     11  C   UNL     1      34.948 -23.875 -12.919  0.00  0.00    +0.245 C 
ATOM     12  H   UNL     1      32.921 -23.368 -12.879  0.00  0.00    +0.152 HD
ATOM     13  H   UNL     1      34.163 -23.623 -11.041  0.00  0.00    +0.146 HD
ATOM     14  H   UNL     1      35.818 -24.035 -11.070  0.00  0.00    +0.146 HD
ENDROOT
BRANCH   2  15
ATOM     15  C   UNL     1      31.177 -23.001 -15.182  0.00  0.00    +0.082 C 
ATOM     16  C   UNL     1      28.918 -24.017 -15.436  0.00  0.00    +0.076 C 
ATOM     17  C   UNL     1      28.928 -22.565 -15.935  0.00  0.00    +0.118 C 
ATOM     18  C   UNL     1      30.387 -22.280 -16.284  0.00  0.00    +0.050 C 
ATOM     19  C   UNL     1      30.289 -24.166 -14.803  0.00  0.00    -0.025 C 
ATOM     20  C   UNL     1      30.627 -25.161 -13.972  0.00  0.00    -0.008 C 
BRANCH  17  21
ATOM     21  O   UNL     1      28.507 -21.705 -14.877  0.00  0.00    -0.384 OA
ATOM     22  H   UNL     1      29.266 -21.494 -14.311  0.00  0.00    +0.210 HD
ENDBRANCH  17  21
BRANCH  16  23
ATOM     23  C   UNL     1      28.712 -25.009 -16.578  0.00  0.00    +0.144 C 
BRANCH  23  24
ATOM     24  O   UNL     1      27.810 -24.437 -17.496  0.00  0.00    -0.382 OA
ATOM     25  H   UNL     1      28.057 -24.698 -18.397  0.00  0.00    +0.210 HD
ENDBRANCH  23  24
ENDBRANCH  16  23
ENDBRANCH   2  15
TORSDOF 4
ENDMDL
MODEL 7
REMARK VINA RESULT:      -8.2      1.592      2.698
REMARK  Name = 153941
REMARK  4 active torsions:
REMARK  status: ('A' for Active; 'I' for Inactive)
REMARK    1  A    between atoms: N_2  and  C_15
REMARK    2  A    between atoms: C_16  and  C_23
REMARK    3  A    between atoms: C_17  and  O_21
REMARK    4  A    between atoms: C_23  and  O_24
REMARK                            x       y       z     vdW  Elec       q    Type
REMARK                         _______ _______ _______ _____ _____    ______ ____
ROOT
ATOM      1  O   UNL     1      31.134 -22.454 -17.176  0.00  0.00    -0.208 OA
ATOM      2  N   UNL     1      34.662 -24.298 -15.036  0.00  0.00    -0.230 NA
ATOM      3  N   UNL     1      32.454 -24.857 -14.181  0.00  0.00    -0.279 N 
ATOM      4  N   UNL     1      34.002 -22.959 -16.710  0.00  0.00    -0.241 NA
ATOM      5  N   UNL     1      30.642 -23.834 -15.378  0.00  0.00    -0.301 NA
ATOM      6  N   UNL     1      30.271 -25.256 -13.536  0.00  0.00    -0.320 N 
ATOM      7  C   UNL     1      33.310 -24.254 -15.009  0.00  0.00    +0.189 C 
ATOM      8  C   UNL     1      35.038 -23.495 -16.088  0.00  0.00    +0.203 C 
ATOM      9  C   UNL     1      32.917 -23.437 -16.030  0.00  0.00    +0.183 C 
ATOM     10  C   UNL     1      31.509 -23.183 -16.265  0.00  0.00    +0.224 C 
ATOM     11  C   UNL     1      31.103 -24.608 -14.415  0.00  0.00    +0.245 C 
ATOM     12  H   UNL     1      32.759 -25.443 -13.452  0.00  0.00    +0.152 HD
ATOM     13  H   UNL     1      30.649 -25.826 -12.829  0.00  0.00    +0.146 HD
ATOM     14  H   UNL     1      29.295 -25.149 -13.614  0.00  0.00    +0.146 HD
ENDROOT
BRANCH   2  15
ATOM     15  C   UNL     1      35.557 -25.039 -14.146  0.00  0.00    +0.082 C 
ATOM     16  C   UNL     1      37.264 -24.452 -12.430  0.00  0.00    +0.076 C 
ATOM     17  C   UNL     1      37.844 -25.414 -13.477  0.00  0.00    +0.118 C 
ATOM     18  C   UNL     1      36.973 -25.218 -14.715  0.00  0.00    +0.050 C 
ATOM     19  C   UNL     1      35.791 -24.411 -12.788  0.00  0.00    -0.025 C 
ATOM     20  C   UNL     1      34.835 -23.941 -11.976  0.00  0.00    -0.008 C 
BRANCH  17  21
ATOM     21  O   UNL     1      37.715 -26.753 -13.003  0.00  0.00    -0.384 OA
ATOM     22  H   UNL     1      38.585 -27.182 -13.003  0.00  0.00    +0.210 HD
ENDBRANCH  17  21
BRANCH  16  23
ATOM     23  C   UNL     1      37.906 -23.069 -12.513  0.00  0.00    +0.144 C 
BRANCH  23  24
ATOM     24  O   UNL     1      38.971 -23.026 -11.592  0.00  0.00    -0.382 OA
ATOM     25  H   UNL     1      39.402 -22.158 -11.638  0.00  0.00    +0.210 HD
ENDBRANCH  23  24
ENDBRANCH  16  23
ENDBRANCH   2  15
TORSDOF 4
ENDMDL
MODEL 8
REMARK VINA RESULT:      -8.1      9.375     11.481
REMARK  Name = 153941
REMARK  4 active torsions:
REMARK  status: ('A' for Active; 'I' for Inactive)
REMARK    1  A    between atoms: N_2  and  C_15
REMARK    2  A    between atoms: C_16  and  C_23
REMARK    3  A    between atoms: C_17  and  O_21
REMARK    4  A    between atoms: C_23  and  O_24
REMARK                            x       y       z     vdW  Elec       q    Type
REMARK                         _______ _______ _______ _____ _____    ______ ____
ROOT
ATOM      1  O   UNL     1      32.602 -13.513 -26.033  0.00  0.00    -0.208 OA
ATOM      2  N   UNL     1      34.811 -16.858 -23.947  0.00  0.00    -0.230 NA
ATOM      3  N   UNL     1      33.655 -15.260 -22.523  0.00  0.00    -0.279 N 
ATOM      4  N   UNL     1      34.266 -15.945 -25.922  0.00  0.00    -0.241 NA
ATOM      5  N   UNL     1      32.510 -13.520 -23.717  0.00  0.00    -0.301 NA
ATOM      6  N   UNL     1      32.490 -13.636 -21.363  0.00  0.00    -0.320 N 
ATOM      7  C   UNL     1      34.052 -15.768 -23.693  0.00  0.00    +0.189 C 
ATOM      8  C   UNL     1      34.915 -16.926 -25.318  0.00  0.00    +0.203 C 
ATOM      9  C   UNL     1      33.725 -15.219 -24.899  0.00  0.00    +0.183 C 
ATOM     10  C   UNL     1      32.907 -14.023 -24.962  0.00  0.00    +0.224 C 
ATOM     11  C   UNL     1      32.869 -14.111 -22.593  0.00  0.00    +0.245 C 
ATOM     12  H   UNL     1      33.902 -15.673 -21.665  0.00  0.00    +0.152 HD
ATOM     13  H   UNL     1      32.776 -14.103 -20.545  0.00  0.00    +0.146 HD
ATOM     14  H   UNL     1      31.931 -12.828 -21.300  0.00  0.00    +0.146 HD
ENDROOT
BRANCH   2  15
ATOM     15  C   UNL     1      35.407 -17.787 -22.985  0.00  0.00    +0.082 C 
ATOM     16  C   UNL     1      34.600 -19.690 -21.597  0.00  0.00    +0.076 C 
ATOM     17  C   UNL     1      35.330 -18.650 -20.735  0.00  0.00    +0.118 C 
ATOM     18  C   UNL     1      35.231 -17.347 -21.524  0.00  0.00    +0.050 C 
ATOM     19  C   UNL     1      34.850 -19.194 -23.008  0.00  0.00    -0.025 C 
ATOM     20  C   UNL     1      34.662 -19.936 -24.108  0.00  0.00    -0.008 C 
BRANCH  17  21
ATOM     21  O   UNL     1      36.697 -19.032 -20.601  0.00  0.00    -0.384 OA
ATOM     22  H   UNL     1      36.786 -19.672 -19.878  0.00  0.00    +0.210 HD
ENDBRANCH  17  21
BRANCH  16  23
ATOM     23  C   UNL     1      33.108 -19.749 -21.275  0.00  0.00    +0.144 C 
BRANCH  23  24
ATOM     24  O   UNL     1      32.902 -20.792 -20.351  0.00  0.00    -0.382 OA
ATOM     25  H   UNL     1      33.401 -21.575 -20.631  0.00  0.00    +0.210 HD
ENDBRANCH  23  24
ENDBRANCH  16  23
ENDBRANCH   2  15
TORSDOF 4
ENDMDL
MODEL 9
REMARK VINA RESULT:      -7.9     13.791     16.404
REMARK  Name = 153941
REMARK  4 active torsions:
REMARK  status: ('A' for Active; 'I' for Inactive)
REMARK    1  A    between atoms: N_2  and  C_15
REMARK    2  A    between atoms: C_16  and  C_23
REMARK    3  A    between atoms: C_17  and  O_21
REMARK    4  A    between atoms: C_23  and  O_24
REMARK                            x       y       z     vdW  Elec       q    Type
REMARK                         _______ _______ _______ _____ _____    ______ ____
ROOT
ATOM      1  O   UNL     1      33.303 -15.792 -26.223  0.00  0.00    -0.208 OA
ATOM      2  N   UNL     1      33.844 -11.592 -24.644  0.00  0.00    -0.230 NA
ATOM      3  N   UNL     1      34.116 -13.403 -23.043  0.00  0.00    -0.279 N 
ATOM      4  N   UNL     1      33.389 -12.853 -26.442  0.00  0.00    -0.241 NA
ATOM      5  N   UNL     1      33.811 -15.597 -23.970  0.00  0.00    -0.301 NA
ATOM      6  N   UNL     1      34.331 -15.269 -21.695  0.00  0.00    -0.320 N 
ATOM      7  C   UNL     1      33.873 -12.886 -24.249  0.00  0.00    +0.189 C 
ATOM      8  C   UNL     1      33.545 -11.621 -25.987  0.00  0.00    +0.203 C 
ATOM      9  C   UNL     1      33.595 -13.645 -25.349  0.00  0.00    +0.183 C 
ATOM     10  C   UNL     1      33.550 -15.091 -25.250  0.00  0.00    +0.224 C 
ATOM     11  C   UNL     1      34.072 -14.794 -22.956  0.00  0.00    +0.245 C 
ATOM     12  H   UNL     1      34.315 -12.837 -22.263  0.00  0.00    +0.152 HD
ATOM     13  H   UNL     1      34.522 -14.640 -20.962  0.00  0.00    +0.146 HD
ATOM     14  H   UNL     1      34.326 -16.238 -21.524  0.00  0.00    +0.146 HD
ENDROOT
BRANCH   2  15
ATOM     15  C   UNL     1      34.079 -10.397 -23.833  0.00  0.00    +0.082 C 
ATOM     16  C   UNL     1      32.815  -8.319 -23.297  0.00  0.00    +0.076 C 
ATOM     17  C   UNL     1      34.219  -7.989 -23.821  0.00  0.00    +0.118 C 
ATOM     18  C   UNL     1      34.630  -9.211 -24.639  0.00  0.00    +0.050 C 
ATOM     19  C   UNL     1      32.857  -9.827 -23.144  0.00  0.00    -0.025 C 
ATOM     20  C   UNL     1      31.965 -10.534 -22.436  0.00  0.00    -0.008 C 
BRANCH  17  21
ATOM     21  O   UNL     1      35.105  -7.828 -22.715  0.00  0.00    -0.384 OA
ATOM     22  H   UNL     1      34.867  -8.458 -22.016  0.00  0.00    +0.210 HD
ENDBRANCH  17  21
BRANCH  16  23
ATOM     23  C   UNL     1      31.726  -7.881 -24.274  0.00  0.00    +0.144 C 
BRANCH  23  24
ATOM     24  O   UNL     1      31.024  -6.807 -23.692  0.00  0.00    -0.382 OA
ATOM     25  H   UNL     1      31.633  -6.276 -23.155  0.00  0.00    +0.210 HD
ENDBRANCH  23  24
ENDBRANCH  16  23
ENDBRANCH   2  15
TORSDOF 4
ENDMDL
