MODEL 1
REMARK VINA RESULT:      -7.1      0.000      0.000
REMARK  Name = 1478
REMARK  9 active torsions:
REMARK  status: ('A' for Active; 'I' for Inactive)
REMARK    1  A    between atoms: N_1  and  C_29
REMARK    2  A    between atoms: C_3  and  C_16
REMARK    3  A    between atoms: C_4  and  C_9
REMARK    4  A    between atoms: C_5  and  C_22
REMARK    5  A    between atoms: C_6  and  C_26
REMARK    6  A    between atoms: C_16  and  O_17
REMARK    7  A    between atoms: O_17  and  C_18
REMARK    8  A    between atoms: C_22  and  O_23
REMARK    9  A    between atoms: C_26  and  O_27
REMARK                            x       y       z     vdW  Elec       q    Type
REMARK                         _______ _______ _______ _____ _____    ______ ____
ROOT
ATOM      1  N   UNL     1      33.814 -11.530 -24.098  0.00  0.00    -0.300 N 
ATOM      2  C   UNL     1      34.315 -10.326 -24.404  0.00  0.00    +0.102 C 
ATOM      3  C   UNL     1      33.873  -9.196 -23.729  0.00  0.00    +0.071 C 
ATOM      4  C   UNL     1      32.906  -9.340 -22.736  0.00  0.00    +0.012 C 
ATOM      5  C   UNL     1      32.884 -11.699 -23.149  0.00  0.00    +0.131 C 
ATOM      6  C   UNL     1      32.405 -10.606 -22.441  0.00  0.00    +0.095 C 
ATOM      7  C   UNL     1      35.352 -10.229 -25.475  0.00  0.00    +0.027 C 
ENDROOT
BRANCH   4   9
ATOM      8 CL   UNL     1      30.562  -7.763 -23.975  0.00  0.00    -0.082 Cl
ATOM      9  C   UNL     1      32.425  -8.179 -22.013  0.00  0.00    +0.011 C 
ATOM     10  C   UNL     1      31.371  -7.400 -22.490  0.00  0.00    +0.058 C 
ATOM     11  C   UNL     1      33.048  -7.847 -20.810  0.00  0.00    +0.001 C 
ATOM     12  C   UNL     1      30.938  -6.290 -21.763  0.00  0.00    +0.011 C 
ATOM     13  C   UNL     1      32.616  -6.739 -20.083  0.00  0.00    +0.000 C 
ATOM     14  C   UNL     1      31.561  -5.960 -20.559  0.00  0.00    +0.001 C 
ENDBRANCH   4   9
BRANCH   3  16
ATOM     15  O   UNL     1      35.379  -7.363 -23.486  0.00  0.00    -0.245 OA
ATOM     16  C   UNL     1      34.423  -7.886 -24.066  0.00  0.00    +0.339 C 
BRANCH  16  17
ATOM     17  O   UNL     1      33.744  -7.316 -25.106  0.00  0.00    -0.449 OA
BRANCH  17  18
ATOM     18  C   UNL     1      33.866  -5.896 -25.249  0.00  0.00    +0.169 C 
ATOM     19  C   UNL     1      34.711  -5.580 -26.474  0.00  0.00    +0.047 C 
ATOM     20  C   UNL     1      32.475  -5.292 -25.382  0.00  0.00    +0.047 C 
ENDBRANCH  17  18
ENDBRANCH  16  17
ENDBRANCH   3  16
BRANCH   5  22
ATOM     21  O   UNL     1      32.822 -13.800 -22.006  0.00  0.00    -0.244 OA
ATOM     22  C   UNL     1      32.399 -13.050 -22.888  0.00  0.00    +0.352 C 
BRANCH  22  23
ATOM     23  O   UNL     1      31.401 -13.414 -23.738  0.00  0.00    -0.476 OA
ATOM     24  H   UNL     1      31.210 -14.321 -23.875  0.00  0.00    +0.295 HD
ENDBRANCH  22  23
ENDBRANCH   5  22
BRANCH   6  26
ATOM     25  O   UNL     1      31.586 -10.693 -20.194  0.00  0.00    -0.245 OA
ATOM     26  C   UNL     1      31.390 -10.794 -21.406  0.00  0.00    +0.339 C 
BRANCH  26  27
ATOM     27  O   UNL     1      30.173 -11.099 -21.928  0.00  0.00    -0.477 OA
ATOM     28  H   UNL     1      30.111 -11.674 -22.665  0.00  0.00    +0.295 HD
ENDBRANCH  26  27
ENDBRANCH   6  26
BRANCH   1  29
ATOM     29  C   UNL     1      34.307 -12.703 -24.831  0.00  0.00    +0.091 C 
ATOM     30  C   UNL     1      33.571 -12.817 -26.152  0.00  0.00    +0.023 C 
ENDBRANCH   1  29
TORSDOF 9
ENDMDL
MODEL 2
REMARK VINA RESULT:      -6.1     14.105     17.145
REMARK  Name = 1478
REMARK  9 active torsions:
REMARK  status: ('A' for Active; 'I' for Inactive)
REMARK    1  A    between atoms: N_1  and  C_29
REMARK    2  A    between atoms: C_3  and  C_16
REMARK    3  A    between atoms: C_4  and  C_9
REMARK    4  A    between atoms: C_5  and  C_22
REMARK    5  A    between atoms: C_6  and  C_26
REMARK    6  A    between atoms: C_16  and  O_17
REMARK    7  A    between atoms: O_17  and  C_18
REMARK    8  A    between atoms: C_22  and  O_23
REMARK    9  A    between atoms: C_26  and  O_27
REMARK                            x       y       z     vdW  Elec       q    Type
REMARK                         _______ _______ _______ _____ _____    ______ ____
ROOT
ATOM      1  N   UNL     1      34.544 -22.457 -17.587  0.00  0.00    -0.300 N 
ATOM      2  C   UNL     1      33.683 -23.107 -16.793  0.00  0.00    +0.102 C 
ATOM      3  C   UNL     1      34.118 -23.647 -15.591  0.00  0.00    +0.071 C 
ATOM      4  C   UNL     1      35.457 -23.501 -15.232  0.00  0.00    +0.012 C 
ATOM      5  C   UNL     1      35.836 -22.300 -17.269  0.00  0.00    +0.131 C 
ATOM      6  C   UNL     1      36.327 -22.819 -16.079  0.00  0.00    +0.095 C 
ATOM      7  C   UNL     1      32.259 -23.233 -17.226  0.00  0.00    +0.027 C 
ENDROOT
BRANCH   4   9
ATOM      8 CL   UNL     1      36.619 -26.357 -15.294  0.00  0.00    -0.082 Cl
ATOM      9  C   UNL     1      35.939 -24.053 -13.981  0.00  0.00    +0.011 C 
ATOM     10  C   UNL     1      36.483 -25.336 -13.905  0.00  0.00    +0.058 C 
ATOM     11  C   UNL     1      35.850 -23.265 -12.834  0.00  0.00    +0.001 C 
ATOM     12  C   UNL     1      36.937 -25.830 -12.681  0.00  0.00    +0.011 C 
ATOM     13  C   UNL     1      36.304 -23.758 -11.611  0.00  0.00    +0.000 C 
ATOM     14  C   UNL     1      36.848 -25.040 -11.535  0.00  0.00    +0.001 C 
ENDBRANCH   4   9
BRANCH   3  16
ATOM     15  O   UNL     1      33.161 -25.579 -14.573  0.00  0.00    -0.245 OA
ATOM     16  C   UNL     1      33.175 -24.354 -14.729  0.00  0.00    +0.339 C 
BRANCH  16  17
ATOM     17  O   UNL     1      32.314 -23.487 -14.118  0.00  0.00    -0.449 OA
BRANCH  17  18
ATOM     18  C   UNL     1      30.926 -23.836 -14.145  0.00  0.00    +0.169 C 
ATOM     19  C   UNL     1      30.477 -24.242 -12.749  0.00  0.00    +0.047 C 
ATOM     20  C   UNL     1      30.126 -22.641 -14.643  0.00  0.00    +0.047 C 
ENDBRANCH  17  18
ENDBRANCH  16  17
ENDBRANCH   3  16
BRANCH   5  22
ATOM     21  O   UNL     1      36.995 -21.959 -19.334  0.00  0.00    -0.244 OA
ATOM     22  C   UNL     1      36.696 -21.578 -18.200  0.00  0.00    +0.352 C 
BRANCH  22  23
ATOM     23  O   UNL     1      37.148 -20.405 -17.682  0.00  0.00    -0.476 OA
ATOM     24  H   UNL     1      37.052 -19.610 -18.167  0.00  0.00    +0.295 HD
ENDBRANCH  22  23
ENDBRANCH   5  22
BRANCH   6  26
ATOM     25  O   UNL     1      38.617 -23.489 -15.908  0.00  0.00    -0.245 OA
ATOM     26  C   UNL     1      37.736 -22.646 -15.734  0.00  0.00    +0.339 C 
BRANCH  26  27
ATOM     27  O   UNL     1      37.986 -21.427 -15.188  0.00  0.00    -0.477 OA
ATOM     28  H   UNL     1      38.489 -21.362 -14.399  0.00  0.00    +0.295 HD
ENDBRANCH  26  27
ENDBRANCH   6  26
BRANCH   1  29
ATOM     29  C   UNL     1      34.048 -21.897 -18.851  0.00  0.00    +0.091 C 
ATOM     30  C   UNL     1      33.971 -22.995 -19.894  0.00  0.00    +0.023 C 
ENDBRANCH   1  29
TORSDOF 9
ENDMDL
MODEL 3
REMARK VINA RESULT:      -5.9      1.427      4.694
REMARK  Name = 1478
REMARK  9 active torsions:
REMARK  status: ('A' for Active; 'I' for Inactive)
REMARK    1  A    between atoms: N_1  and  C_29
REMARK    2  A    between atoms: C_3  and  C_16
REMARK    3  A    between atoms: C_4  and  C_9
REMARK    4  A    between atoms: C_5  and  C_22
REMARK    5  A    between atoms: C_6  and  C_26
REMARK    6  A    between atoms: C_16  and  O_17
REMARK    7  A    between atoms: O_17  and  C_18
REMARK    8  A    between atoms: C_22  and  O_23
REMARK    9  A    between atoms: C_26  and  O_27
REMARK                            x       y       z     vdW  Elec       q    Type
REMARK                         _______ _______ _______ _____ _____    ______ ____
ROOT
ATOM      1  N   UNL     1      33.757 -11.476 -24.249  0.00  0.00    -0.300 N 
ATOM      2  C   UNL     1      32.732 -11.591 -23.395  0.00  0.00    +0.102 C 
ATOM      3  C   UNL     1      32.244 -10.470 -22.738  0.00  0.00    +0.071 C 
ATOM      4  C   UNL     1      32.839  -9.234 -22.983  0.00  0.00    +0.012 C 
ATOM      5  C   UNL     1      34.350 -10.301 -24.505  0.00  0.00    +0.131 C 
ATOM      6  C   UNL     1      33.904  -9.146 -23.877  0.00  0.00    +0.095 C 
ATOM      7  C   UNL     1      32.130 -12.940 -23.172  0.00  0.00    +0.027 C 
ENDROOT
BRANCH   4   9
ATOM      8 CL   UNL     1      30.732  -7.532 -24.460  0.00  0.00    -0.082 Cl
ATOM      9  C   UNL     1      32.351  -8.045 -22.312  0.00  0.00    +0.011 C 
ATOM     10  C   UNL     1      31.397  -7.210 -22.896  0.00  0.00    +0.058 C 
ATOM     11  C   UNL     1      32.859  -7.745 -21.049  0.00  0.00    +0.001 C 
ATOM     12  C   UNL     1      30.953  -6.075 -22.216  0.00  0.00    +0.011 C 
ATOM     13  C   UNL     1      32.414  -6.611 -20.369  0.00  0.00    +0.000 C 
ATOM     14  C   UNL     1      31.461  -5.777 -20.952  0.00  0.00    +0.001 C 
ENDBRANCH   4   9
BRANCH   3  16
ATOM     15  O   UNL     1      29.981 -10.926 -22.140  0.00  0.00    -0.245 OA
ATOM     16  C   UNL     1      31.126 -10.601 -21.809  0.00  0.00    +0.339 C 
BRANCH  16  17
ATOM     17  O   UNL     1      31.509 -10.319 -20.528  0.00  0.00    -0.449 OA
BRANCH  17  18
ATOM     18  C   UNL     1      31.230 -11.317 -19.540  0.00  0.00    +0.169 C 
ATOM     19  C   UNL     1      32.098 -12.540 -19.793  0.00  0.00    +0.047 C 
ATOM     20  C   UNL     1      31.503 -10.736 -18.160  0.00  0.00    +0.047 C 
ENDBRANCH  17  18
ENDBRANCH  16  17
ENDBRANCH   3  16
BRANCH   5  22
ATOM     21  O   UNL     1      35.354 -10.363 -26.675  0.00  0.00    -0.244 OA
ATOM     22  C   UNL     1      35.460 -10.277 -25.449  0.00  0.00    +0.352 C 
BRANCH  22  23
ATOM     23  O   UNL     1      36.664 -10.144 -24.829  0.00  0.00    -0.476 OA
ATOM     24  H   UNL     1      37.286  -9.518 -25.143  0.00  0.00    +0.295 HD
ENDBRANCH  22  23
ENDBRANCH   5  22
BRANCH   6  26
ATOM     25  O   UNL     1      34.278  -7.126 -25.103  0.00  0.00    -0.245 OA
ATOM     26  C   UNL     1      34.551  -7.866 -24.158  0.00  0.00    +0.339 C 
BRANCH  26  27
ATOM     27  O   UNL     1      35.512  -7.565 -23.246  0.00  0.00    -0.477 OA
ATOM     28  H   UNL     1      36.376  -7.342 -23.533  0.00  0.00    +0.295 HD
ENDBRANCH  26  27
ENDBRANCH   6  26
BRANCH   1  29
ATOM     29  C   UNL     1      34.246 -12.683 -24.928  0.00  0.00    +0.091 C 
ATOM     30  C   UNL     1      33.382 -12.964 -26.142  0.00  0.00    +0.023 C 
ENDBRANCH   1  29
TORSDOF 9
ENDMDL
MODEL 4
REMARK VINA RESULT:      -5.4      1.823      4.005
REMARK  Name = 1478
REMARK  9 active torsions:
REMARK  status: ('A' for Active; 'I' for Inactive)
REMARK    1  A    between atoms: N_1  and  C_29
REMARK    2  A    between atoms: C_3  and  C_16
REMARK    3  A    between atoms: C_4  and  C_9
REMARK    4  A    between atoms: C_5  and  C_22
REMARK    5  A    between atoms: C_6  and  C_26
REMARK    6  A    between atoms: C_16  and  O_17
REMARK    7  A    between atoms: O_17  and  C_18
REMARK    8  A    between atoms: C_22  and  O_23
REMARK    9  A    between atoms: C_26  and  O_27
REMARK                            x       y       z     vdW  Elec       q    Type
REMARK                         _______ _______ _______ _____ _____    ______ ____
ROOT
ATOM      1  N   UNL     1      32.292 -12.348 -21.912  0.00  0.00    -0.300 N 
ATOM      2  C   UNL     1      32.042 -11.231 -21.215  0.00  0.00    +0.102 C 
ATOM      3  C   UNL     1      32.387  -9.993 -21.739  0.00  0.00    +0.071 C 
ATOM      4  C   UNL     1      32.994  -9.937 -22.992  0.00  0.00    +0.012 C 
ATOM      5  C   UNL     1      32.874 -12.326 -23.119  0.00  0.00    +0.131 C 
ATOM      6  C   UNL     1      33.240 -11.116 -23.692  0.00  0.00    +0.095 C 
ATOM      7  C   UNL     1      31.388 -11.349 -19.878  0.00  0.00    +0.027 C 
ENDROOT
BRANCH   4   9
ATOM      8 CL   UNL     1      30.807  -8.364 -24.495  0.00  0.00    -0.082 Cl
ATOM      9  C   UNL     1      33.365  -8.658 -23.565  0.00  0.00    +0.011 C 
ATOM     10  C   UNL     1      32.449  -7.870 -24.262  0.00  0.00    +0.058 C 
ATOM     11  C   UNL     1      34.679  -8.219 -23.402  0.00  0.00    +0.001 C 
ATOM     12  C   UNL     1      32.846  -6.644 -24.797  0.00  0.00    +0.011 C 
ATOM     13  C   UNL     1      35.076  -6.993 -23.936  0.00  0.00    +0.000 C 
ATOM     14  C   UNL     1      34.160  -6.206 -24.634  0.00  0.00    +0.001 C 
ENDBRANCH   4   9
BRANCH   3  16
ATOM     15  O   UNL     1      32.553  -8.555 -19.843  0.00  0.00    -0.245 OA
ATOM     16  C   UNL     1      32.113  -8.779 -20.975  0.00  0.00    +0.339 C 
BRANCH  16  17
ATOM     17  O   UNL     1      31.308  -7.925 -21.674  0.00  0.00    -0.449 OA
BRANCH  17  18
ATOM     18  C   UNL     1      31.235  -6.577 -21.197  0.00  0.00    +0.169 C 
ATOM     19  C   UNL     1      32.637  -5.994 -21.105  0.00  0.00    +0.047 C 
ATOM     20  C   UNL     1      30.373  -5.761 -22.149  0.00  0.00    +0.047 C 
ENDBRANCH  17  18
ENDBRANCH  16  17
ENDBRANCH   3  16
BRANCH   5  22
ATOM     21  O   UNL     1      32.308 -14.151 -24.558  0.00  0.00    -0.244 OA
ATOM     22  C   UNL     1      33.105 -13.594 -23.800  0.00  0.00    +0.352 C 
BRANCH  22  23
ATOM     23  O   UNL     1      34.325 -14.121 -23.510  0.00  0.00    -0.476 OA
ATOM     24  H   UNL     1      34.823 -14.547 -24.180  0.00  0.00    +0.295 HD
ENDBRANCH  22  23
ENDBRANCH   5  22
BRANCH   6  26
ATOM     25  O   UNL     1      33.287 -11.243 -26.081  0.00  0.00    -0.245 OA
ATOM     26  C   UNL     1      33.874 -11.094 -25.009  0.00  0.00    +0.339 C 
BRANCH  26  27
ATOM     27  O   UNL     1      35.215 -10.887 -24.931  0.00  0.00    -0.477 OA
ATOM     28  H   UNL     1      35.684 -11.144 -24.161  0.00  0.00    +0.295 HD
ENDBRANCH  26  27
ENDBRANCH   6  26
BRANCH   1  29
ATOM     29  C   UNL     1      31.911 -13.640 -21.328  0.00  0.00    +0.091 C 
ATOM     30  C   UNL     1      33.043 -14.155 -20.460  0.00  0.00    +0.023 C 
ENDBRANCH   1  29
TORSDOF 9
ENDMDL
MODEL 5
REMARK VINA RESULT:      -5.2     14.653     17.366
REMARK  Name = 1478
REMARK  9 active torsions:
REMARK  status: ('A' for Active; 'I' for Inactive)
REMARK    1  A    between atoms: N_1  and  C_29
REMARK    2  A    between atoms: C_3  and  C_16
REMARK    3  A    between atoms: C_4  and  C_9
REMARK    4  A    between atoms: C_5  and  C_22
REMARK    5  A    between atoms: C_6  and  C_26
REMARK    6  A    between atoms: C_16  and  O_17
REMARK    7  A    between atoms: O_17  and  C_18
REMARK    8  A    between atoms: C_22  and  O_23
REMARK    9  A    between atoms: C_26  and  O_27
REMARK                            x       y       z     vdW  Elec       q    Type
REMARK                         _______ _______ _______ _____ _____    ______ ____
ROOT
ATOM      1  N   UNL     1      34.104 -22.735 -17.174  0.00  0.00    -0.300 N 
ATOM      2  C   UNL     1      35.428 -22.663 -16.982  0.00  0.00    +0.102 C 
ATOM      3  C   UNL     1      35.984 -23.114 -15.794  0.00  0.00    +0.071 C 
ATOM      4  C   UNL     1      35.144 -23.639 -14.813  0.00  0.00    +0.012 C 
ATOM      5  C   UNL     1      33.271 -23.234 -16.251  0.00  0.00    +0.131 C 
ATOM      6  C   UNL     1      33.772 -23.701 -15.043  0.00  0.00    +0.095 C 
ATOM      7  C   UNL     1      36.282 -22.093 -18.067  0.00  0.00    +0.027 C 
ENDROOT
BRANCH   4   9
ATOM      8 CL   UNL     1      36.101 -26.570 -14.714  0.00  0.00    -0.082 Cl
ATOM      9  C   UNL     1      35.697 -24.120 -13.562  0.00  0.00    +0.011 C 
ATOM     10  C   UNL     1      36.157 -25.429 -13.416  0.00  0.00    +0.058 C 
ATOM     11  C   UNL     1      35.762 -23.234 -12.487  0.00  0.00    +0.001 C 
ATOM     12  C   UNL     1      36.683 -25.851 -12.194  0.00  0.00    +0.011 C 
ATOM     13  C   UNL     1      36.288 -23.656 -11.266  0.00  0.00    +0.000 C 
ATOM     14  C   UNL     1      36.749 -24.964 -11.120  0.00  0.00    +0.001 C 
ENDBRANCH   4   9
BRANCH   3  16
ATOM     15  O   UNL     1      38.059 -21.976 -15.504  0.00  0.00    -0.245 OA
ATOM     16  C   UNL     1      37.428 -23.033 -15.590  0.00  0.00    +0.339 C 
BRANCH  16  17
ATOM     17  O   UNL     1      37.988 -24.277 -15.506  0.00  0.00    -0.449 OA
BRANCH  17  18
ATOM     18  C   UNL     1      39.346 -24.340 -15.056  0.00  0.00    +0.169 C 
ATOM     19  C   UNL     1      39.376 -24.401 -13.537  0.00  0.00    +0.047 C 
ATOM     20  C   UNL     1      40.009 -25.570 -15.659  0.00  0.00    +0.047 C 
ENDBRANCH  17  18
ENDBRANCH  16  17
ENDBRANCH   3  16
BRANCH   5  22
ATOM     21  O   UNL     1      31.213 -22.371 -17.111  0.00  0.00    -0.244 OA
ATOM     22  C   UNL     1      31.845 -23.270 -16.551  0.00  0.00    +0.352 C 
BRANCH  22  23
ATOM     23  O   UNL     1      31.259 -24.428 -16.144  0.00  0.00    -0.476 OA
ATOM     24  H   UNL     1      31.002 -25.070 -16.776  0.00  0.00    +0.295 HD
ENDBRANCH  22  23
ENDBRANCH   5  22
BRANCH   6  26
ATOM     25  O   UNL     1      32.283 -23.586 -13.174  0.00  0.00    -0.245 OA
ATOM     26  C   UNL     1      32.861 -24.246 -14.038  0.00  0.00    +0.339 C 
BRANCH  26  27
ATOM     27  O   UNL     1      32.711 -25.591 -14.155  0.00  0.00    -0.477 OA
ATOM     28  H   UNL     1      33.454 -26.130 -14.345  0.00  0.00    +0.295 HD
ENDBRANCH  26  27
ENDBRANCH   6  26
BRANCH   1  29
ATOM     29  C   UNL     1      33.551 -22.249 -18.445  0.00  0.00    +0.091 C 
ATOM     30  C   UNL     1      33.887 -23.231 -19.550  0.00  0.00    +0.023 C 
ENDBRANCH   1  29
TORSDOF 9
ENDMDL
MODEL 6
REMARK VINA RESULT:      -4.7      1.964      4.313
REMARK  Name = 1478
REMARK  9 active torsions:
REMARK  status: ('A' for Active; 'I' for Inactive)
REMARK    1  A    between atoms: N_1  and  C_29
REMARK    2  A    between atoms: C_3  and  C_16
REMARK    3  A    between atoms: C_4  and  C_9
REMARK    4  A    between atoms: C_5  and  C_22
REMARK    5  A    between atoms: C_6  and  C_26
REMARK    6  A    between atoms: C_16  and  O_17
REMARK    7  A    between atoms: O_17  and  C_18
REMARK    8  A    between atoms: C_22  and  O_23
REMARK    9  A    between atoms: C_26  and  O_27
REMARK                            x       y       z     vdW  Elec       q    Type
REMARK                         _______ _______ _______ _____ _____    ______ ____
ROOT
ATOM      1  N   UNL     1      32.160 -11.787 -21.613  0.00  0.00    -0.300 N 
ATOM      2  C   UNL     1      32.749 -11.925 -22.809  0.00  0.00    +0.102 C 
ATOM      3  C   UNL     1      33.180 -10.805 -23.505  0.00  0.00    +0.071 C 
ATOM      4  C   UNL     1      32.989  -9.546 -22.940  0.00  0.00    +0.012 C 
ATOM      5  C   UNL     1      31.963 -10.590 -21.045  0.00  0.00    +0.131 C 
ATOM      6  C   UNL     1      32.374  -9.435 -21.695  0.00  0.00    +0.095 C 
ATOM      7  C   UNL     1      32.930 -13.299 -23.367  0.00  0.00    +0.027 C 
ENDROOT
BRANCH   4   9
ATOM      8 CL   UNL     1      30.847  -7.889 -24.417  0.00  0.00    -0.082 Cl
ATOM      9  C   UNL     1      33.431  -8.357 -23.643  0.00  0.00    +0.011 C 
ATOM     10  C   UNL     1      32.540  -7.541 -24.341  0.00  0.00    +0.058 C 
ATOM     11  C   UNL     1      34.788  -8.037 -23.610  0.00  0.00    +0.001 C 
ATOM     12  C   UNL     1      33.006  -6.406 -25.005  0.00  0.00    +0.011 C 
ATOM     13  C   UNL     1      35.254  -6.902 -24.272  0.00  0.00    +0.000 C 
ATOM     14  C   UNL     1      34.363  -6.086 -24.969  0.00  0.00    +0.001 C 
ENDBRANCH   4   9
BRANCH   3  16
ATOM     15  O   UNL     1      34.986 -10.632 -25.053  0.00  0.00    -0.245 OA
ATOM     16  C   UNL     1      33.821 -10.961 -24.808  0.00  0.00    +0.339 C 
BRANCH  16  17
ATOM     17  O   UNL     1      32.967 -11.518 -25.718  0.00  0.00    -0.449 OA
BRANCH  17  18
ATOM     18  C   UNL     1      33.456 -12.649 -26.447  0.00  0.00    +0.169 C 
ATOM     19  C   UNL     1      32.316 -13.282 -27.230  0.00  0.00    +0.047 C 
ATOM     20  C   UNL     1      34.565 -12.190 -27.384  0.00  0.00    +0.047 C 
ENDBRANCH  17  18
ENDBRANCH  16  17
ENDBRANCH   3  16
BRANCH   5  22
ATOM     21  O   UNL     1      30.106 -10.703 -19.541  0.00  0.00    -0.244 OA
ATOM     22  C   UNL     1      31.312 -10.542 -19.740  0.00  0.00    +0.352 C 
BRANCH  22  23
ATOM     23  O   UNL     1      32.191 -10.296 -18.733  0.00  0.00    -0.476 OA
ATOM     24  H   UNL     1      32.818 -10.948 -18.488  0.00  0.00    +0.295 HD
ENDBRANCH  22  23
ENDBRANCH   5  22
BRANCH   6  26
ATOM     25  O   UNL     1      31.242  -7.356 -21.348  0.00  0.00    -0.245 OA
ATOM     26  C   UNL     1      32.159  -8.131 -21.072  0.00  0.00    +0.339 C 
BRANCH  26  27
ATOM     27  O   UNL     1      33.097  -7.849 -20.130  0.00  0.00    -0.477 OA
ATOM     28  H   UNL     1      32.975  -8.139 -19.247  0.00  0.00    +0.295 HD
ENDBRANCH  26  27
ENDBRANCH   6  26
BRANCH   1  29
ATOM     29  C   UNL     1      31.718 -12.995 -20.904  0.00  0.00    +0.091 C 
ATOM     30  C   UNL     1      32.926 -13.732 -20.361  0.00  0.00    +0.023 C 
ENDBRANCH   1  29
TORSDOF 9
ENDMDL
MODEL 7
REMARK VINA RESULT:      -4.7     13.256     16.497
REMARK  Name = 1478
REMARK  9 active torsions:
REMARK  status: ('A' for Active; 'I' for Inactive)
REMARK    1  A    between atoms: N_1  and  C_29
REMARK    2  A    between atoms: C_3  and  C_16
REMARK    3  A    between atoms: C_4  and  C_9
REMARK    4  A    between atoms: C_5  and  C_22
REMARK    5  A    between atoms: C_6  and  C_26
REMARK    6  A    between atoms: C_16  and  O_17
REMARK    7  A    between atoms: O_17  and  C_18
REMARK    8  A    between atoms: C_22  and  O_23
REMARK    9  A    between atoms: C_26  and  O_27
REMARK                            x       y       z     vdW  Elec       q    Type
REMARK                         _______ _______ _______ _____ _____    ______ ____
ROOT
ATOM      1  N   UNL     1      34.947 -23.652 -14.587  0.00  0.00    -0.300 N 
ATOM      2  C   UNL     1      34.697 -23.457 -15.889  0.00  0.00    +0.102 C 
ATOM      3  C   UNL     1      33.388 -23.395 -16.344  0.00  0.00    +0.071 C 
ATOM      4  C   UNL     1      32.348 -23.538 -15.426  0.00  0.00    +0.012 C 
ATOM      5  C   UNL     1      33.970 -23.792 -13.682  0.00  0.00    +0.131 C 
ATOM      6  C   UNL     1      32.641 -23.739 -14.080  0.00  0.00    +0.095 C 
ATOM      7  C   UNL     1      35.849 -23.309 -16.828  0.00  0.00    +0.027 C 
ENDROOT
BRANCH   4   9
ATOM      8 CL   UNL     1      30.780 -26.191 -15.571  0.00  0.00    -0.082 Cl
ATOM      9  C   UNL     1      30.970 -23.477 -15.872  0.00  0.00    +0.011 C 
ATOM     10  C   UNL     1      30.177 -24.620 -15.971  0.00  0.00    +0.058 C 
ATOM     11  C   UNL     1      30.441 -22.230 -16.206  0.00  0.00    +0.001 C 
ATOM     12  C   UNL     1      28.854 -24.517 -16.404  0.00  0.00    +0.011 C 
ATOM     13  C   UNL     1      29.119 -22.126 -16.638  0.00  0.00    +0.000 C 
ATOM     14  C   UNL     1      28.325 -23.270 -16.737  0.00  0.00    +0.001 C 
ENDBRANCH   4   9
BRANCH   3  16
ATOM     15  O   UNL     1      32.832 -24.083 -18.558  0.00  0.00    -0.245 OA
ATOM     16  C   UNL     1      33.121 -23.184 -17.764  0.00  0.00    +0.339 C 
BRANCH  16  17
ATOM     17  O   UNL     1      33.232 -21.863 -18.098  0.00  0.00    -0.449 OA
BRANCH  17  18
ATOM     18  C   UNL     1      33.585 -21.573 -19.455  0.00  0.00    +0.169 C 
ATOM     19  C   UNL     1      32.772 -20.386 -19.949  0.00  0.00    +0.047 C 
ATOM     20  C   UNL     1      35.075 -21.274 -19.524  0.00  0.00    +0.047 C 
ENDBRANCH  17  18
ENDBRANCH  16  17
ENDBRANCH   3  16
BRANCH   5  22
ATOM     21  O   UNL     1      34.638 -23.109 -11.489  0.00  0.00    -0.244 OA
ATOM     22  C   UNL     1      34.342 -24.001 -12.288  0.00  0.00    +0.352 C 
BRANCH  22  23
ATOM     23  O   UNL     1      34.329 -25.316 -11.940  0.00  0.00    -0.476 OA
ATOM     24  H   UNL     1      34.930 -25.912 -12.341  0.00  0.00    +0.295 HD
ENDBRANCH  22  23
ENDBRANCH   5  22
BRANCH   6  26
ATOM     25  O   UNL     1      30.982 -22.965 -12.539  0.00  0.00    -0.245 OA
ATOM     26  C   UNL     1      31.576 -23.892 -13.090  0.00  0.00    +0.339 C 
BRANCH  26  27
ATOM     27  O   UNL     1      31.298 -25.196 -12.832  0.00  0.00    -0.477 OA
ATOM     28  H   UNL     1      30.429 -25.450 -12.589  0.00  0.00    +0.295 HD
ENDBRANCH  26  27
ENDBRANCH   6  26
BRANCH   1  29
ATOM     29  C   UNL     1      36.345 -23.710 -14.141  0.00  0.00    +0.091 C 
ATOM     30  C   UNL     1      36.874 -25.120 -14.322  0.00  0.00    +0.023 C 
ENDBRANCH   1  29
TORSDOF 9
ENDMDL
MODEL 8
REMARK VINA RESULT:      -4.2     15.043     17.652
REMARK  Name = 1478
REMARK  9 active torsions:
REMARK  status: ('A' for Active; 'I' for Inactive)
REMARK    1  A    between atoms: N_1  and  C_29
REMARK    2  A    between atoms: C_3  and  C_16
REMARK    3  A    between atoms: C_4  and  C_9
REMARK    4  A    between atoms: C_5  and  C_22
REMARK    5  A    between atoms: C_6  and  C_26
REMARK    6  A    between atoms: C_16  and  O_17
REMARK    7  A    between atoms: O_17  and  C_18
REMARK    8  A    between atoms: C_22  and  O_23
REMARK    9  A    between atoms: C_26  and  O_27
REMARK                            x       y       z     vdW  Elec       q    Type
REMARK                         _______ _______ _______ _____ _____    ______ ____
ROOT
ATOM      1  N   UNL     1      31.744 -23.008 -14.843  0.00  0.00    -0.300 N 
ATOM      2  C   UNL     1      32.413 -23.355 -13.735  0.00  0.00    +0.102 C 
ATOM      3  C   UNL     1      33.719 -23.813 -13.826  0.00  0.00    +0.071 C 
ATOM      4  C   UNL     1      34.316 -23.904 -15.083  0.00  0.00    +0.012 C 
ATOM      5  C   UNL     1      32.291 -23.085 -16.064  0.00  0.00    +0.131 C 
ATOM      6  C   UNL     1      33.594 -23.535 -16.215  0.00  0.00    +0.095 C 
ATOM      7  C   UNL     1      31.726 -23.237 -12.413  0.00  0.00    +0.027 C 
ENDROOT
BRANCH   4   9
ATOM      8 CL   UNL     1      36.543 -21.782 -15.306  0.00  0.00    -0.082 Cl
ATOM      9  C   UNL     1      35.680 -24.378 -15.208  0.00  0.00    +0.011 C 
ATOM     10  C   UNL     1      36.758 -23.498 -15.315  0.00  0.00    +0.058 C 
ATOM     11  C   UNL     1      35.901 -25.755 -15.221  0.00  0.00    +0.001 C 
ATOM     12  C   UNL     1      38.056 -23.995 -15.434  0.00  0.00    +0.011 C 
ATOM     13  C   UNL     1      37.199 -26.252 -15.339  0.00  0.00    +0.000 C 
ATOM     14  C   UNL     1      38.276 -25.373 -15.445  0.00  0.00    +0.001 C 
ENDBRANCH   4   9
BRANCH   3  16
ATOM     15  O   UNL     1      34.244 -25.231 -11.982  0.00  0.00    -0.245 OA
ATOM     16  C   UNL     1      34.444 -24.190 -12.615  0.00  0.00    +0.339 C 
BRANCH  16  17
ATOM     17  O   UNL     1      35.369 -23.245 -12.276  0.00  0.00    -0.449 OA
BRANCH  17  18
ATOM     18  C   UNL     1      36.490 -23.692 -11.505  0.00  0.00    +0.169 C 
ATOM     19  C   UNL     1      36.860 -25.107 -11.920  0.00  0.00    +0.047 C 
ATOM     20  C   UNL     1      37.656 -22.740 -11.732  0.00  0.00    +0.047 C 
ENDBRANCH  17  18
ENDBRANCH  16  17
ENDBRANCH   3  16
BRANCH   5  22
ATOM     21  O   UNL     1      30.264 -22.843 -17.311  0.00  0.00    -0.244 OA
ATOM     22  C   UNL     1      31.482 -22.685 -17.210  0.00  0.00    +0.352 C 
BRANCH  22  23
ATOM     23  O   UNL     1      32.225 -22.101 -18.188  0.00  0.00    -0.476 OA
ATOM     24  H   UNL     1      32.784 -22.624 -18.728  0.00  0.00    +0.295 HD
ENDBRANCH  22  23
ENDBRANCH   5  22
BRANCH   6  26
ATOM     25  O   UNL     1      35.036 -22.843 -17.995  0.00  0.00    -0.245 OA
ATOM     26  C   UNL     1      34.188 -23.617 -17.548  0.00  0.00    +0.339 C 
BRANCH  26  27
ATOM     27  O   UNL     1      33.698 -24.661 -18.266  0.00  0.00    -0.477 OA
ATOM     28  H   UNL     1      32.839 -24.612 -18.637  0.00  0.00    +0.295 HD
ENDBRANCH  26  27
ENDBRANCH   6  26
BRANCH   1  29
ATOM     29  C   UNL     1      30.364 -22.526 -14.708  0.00  0.00    +0.091 C 
ATOM     30  C   UNL     1      29.425 -23.711 -14.592  0.00  0.00    +0.023 C 
ENDBRANCH   1  29
TORSDOF 9
ENDMDL
