MODEL 1
REMARK VINA RESULT:     -10.9      0.000      0.000
REMARK  Name = 447732
REMARK  3 active torsions:
REMARK  status: ('A' for Active; 'I' for Inactive)
REMARK    1  A    between atoms: C_3  and  C_19
REMARK    2  A    between atoms: C_8  and  C_13
REMARK    3  A    between atoms: N_18  and  C_21
REMARK                            x       y       z     vdW  Elec       q    Type
REMARK                         _______ _______ _______ _____ _____    ______ ____
ROOT
ATOM      1  C   UNL     1      36.158 -22.050 -17.619  0.00  0.00    +0.000 C 
ATOM      2  C   UNL     1      34.870 -22.633 -17.552  0.00  0.00    +0.000 C 
ATOM      3  C   UNL     1      35.504 -20.865 -19.640  0.00  0.00    +0.054 C 
ATOM      4  C   UNL     1      36.459 -21.168 -18.670  0.00  0.00    +0.005 C 
ATOM      5  C   UNL     1      34.568 -23.515 -16.501  0.00  0.00    +0.003 C 
ATOM      6  C   UNL     1      33.921 -22.317 -18.538  0.00  0.00    +0.000 C 
ATOM      7  C   UNL     1      37.106 -22.366 -16.632  0.00  0.00    +0.000 C 
ATOM      8  C   UNL     1      35.523 -23.817 -15.530  0.00  0.00    +0.031 C 
ATOM      9  C   UNL     1      34.238 -21.439 -19.575  0.00  0.00    +0.005 C 
ATOM     10  C   UNL     1      36.789 -23.244 -15.596  0.00  0.00    +0.003 C 
ENDROOT
BRANCH   8  13
ATOM     11  N   UNL     1      33.958 -24.687 -13.809  0.00  0.00    -0.343 N 
ATOM     12  N   UNL     1      36.081 -25.632 -14.056  0.00  0.00    -0.285 NA
ATOM     13  C   UNL     1      35.195 -24.734 -14.449  0.00  0.00    +0.117 C 
ATOM     14  H   UNL     1      33.757 -25.318 -13.080  0.00  0.00    +0.144 HD
ATOM     15  H   UNL     1      33.286 -24.024 -14.087  0.00  0.00    +0.144 HD
ATOM     16  H   UNL     1      35.862 -26.253 -13.324  0.00  0.00    +0.188 HD
ENDBRANCH   8  13
BRANCH   3  19
ATOM     17  O   UNL     1      37.017 -19.623 -20.896  0.00  0.00    -0.270 OA
ATOM     18  N   UNL     1      34.755 -19.524 -21.511  0.00  0.00    -0.280 N 
ATOM     19  C   UNL     1      35.832 -19.950 -20.722  0.00  0.00    +0.249 C 
ATOM     20  H   UNL     1      33.870 -19.869 -21.249  0.00  0.00    +0.155 HD
BRANCH  18  21
ATOM     21  C   UNL     1      34.772 -18.662 -22.635  0.00  0.00    +0.051 C 
ATOM     22  C   UNL     1      34.642 -19.203 -23.903  0.00  0.00    +0.015 C 
ATOM     23  C   UNL     1      34.917 -17.299 -22.441  0.00  0.00    +0.015 C 
ATOM     24  C   UNL     1      34.657 -18.355 -25.010  0.00  0.00    +0.001 C 
ATOM     25  C   UNL     1      34.932 -16.451 -23.548  0.00  0.00    +0.001 C 
ATOM     26  C   UNL     1      34.802 -16.978 -24.833  0.00  0.00    +0.000 C 
ENDBRANCH  18  21
ENDBRANCH   3  19
TORSDOF 3
ENDMDL
MODEL 2
REMARK VINA RESULT:     -10.8      2.225      8.551
REMARK  Name = 447732
REMARK  3 active torsions:
REMARK  status: ('A' for Active; 'I' for Inactive)
REMARK    1  A    between atoms: C_3  and  C_19
REMARK    2  A    between atoms: C_8  and  C_13
REMARK    3  A    between atoms: N_18  and  C_21
REMARK                            x       y       z     vdW  Elec       q    Type
REMARK                         _______ _______ _______ _____ _____    ______ ____
ROOT
ATOM      1  C   UNL     1      35.493 -20.153 -20.460  0.00  0.00    +0.000 C 
ATOM      2  C   UNL     1      34.222 -19.857 -21.009  0.00  0.00    +0.000 C 
ATOM      3  C   UNL     1      34.455 -21.752 -18.948  0.00  0.00    +0.054 C 
ATOM      4  C   UNL     1      35.592 -21.103 -19.430  0.00  0.00    +0.005 C 
ATOM      5  C   UNL     1      34.122 -18.907 -22.039  0.00  0.00    +0.003 C 
ATOM      6  C   UNL     1      33.088 -20.519 -20.511  0.00  0.00    +0.000 C 
ATOM      7  C   UNL     1      36.627 -19.491 -20.958  0.00  0.00    +0.000 C 
ATOM      8  C   UNL     1      35.260 -18.259 -22.521  0.00  0.00    +0.031 C 
ATOM      9  C   UNL     1      33.206 -21.460 -19.487  0.00  0.00    +0.005 C 
ATOM     10  C   UNL     1      36.509 -18.550 -21.981  0.00  0.00    +0.003 C 
ENDROOT
BRANCH   8  13
ATOM     11  N   UNL     1      34.656 -17.629 -24.846  0.00  0.00    -0.343 N 
ATOM     12  N   UNL     1      35.495 -16.023 -23.371  0.00  0.00    -0.285 NA
ATOM     13  C   UNL     1      35.140 -17.277 -23.587  0.00  0.00    +0.117 C 
ATOM     14  H   UNL     1      34.582 -16.948 -25.553  0.00  0.00    +0.144 HD
ATOM     15  H   UNL     1      34.388 -18.559 -25.027  0.00  0.00    +0.144 HD
ATOM     16  H   UNL     1      35.415 -15.357 -24.090  0.00  0.00    +0.188 HD
ENDBRANCH   8  13
BRANCH   3  19
ATOM     17  O   UNL     1      33.920 -23.784 -17.952  0.00  0.00    -0.270 OA
ATOM     18  N   UNL     1      35.463 -22.406 -16.847  0.00  0.00    -0.280 N 
ATOM     19  C   UNL     1      34.575 -22.732 -17.881  0.00  0.00    +0.249 C 
ATOM     20  H   UNL     1      35.912 -21.533 -16.928  0.00  0.00    +0.155 HD
BRANCH  18  21
ATOM     21  C   UNL     1      35.800 -23.166 -15.701  0.00  0.00    +0.051 C 
ATOM     22  C   UNL     1      37.115 -23.556 -15.511  0.00  0.00    +0.015 C 
ATOM     23  C   UNL     1      34.808 -23.502 -14.795  0.00  0.00    +0.015 C 
ATOM     24  C   UNL     1      37.448 -24.304 -14.381  0.00  0.00    +0.001 C 
ATOM     25  C   UNL     1      35.141 -24.249 -13.666  0.00  0.00    +0.001 C 
ATOM     26  C   UNL     1      36.460 -24.651 -13.459  0.00  0.00    +0.000 C 
ENDBRANCH  18  21
ENDBRANCH   3  19
TORSDOF 3
ENDMDL
MODEL 3
REMARK VINA RESULT:     -10.6      2.937      8.649
REMARK  Name = 447732
REMARK  3 active torsions:
REMARK  status: ('A' for Active; 'I' for Inactive)
REMARK    1  A    between atoms: C_3  and  C_19
REMARK    2  A    between atoms: C_8  and  C_13
REMARK    3  A    between atoms: N_18  and  C_21
REMARK                            x       y       z     vdW  Elec       q    Type
REMARK                         _______ _______ _______ _____ _____    ______ ____
ROOT
ATOM      1  C   UNL     1      33.765 -20.724 -20.066  0.00  0.00    +0.000 C 
ATOM      2  C   UNL     1      35.153 -20.547 -20.279  0.00  0.00    +0.000 C 
ATOM      3  C   UNL     1      34.252 -22.287 -18.268  0.00  0.00    +0.054 C 
ATOM      4  C   UNL     1      33.331 -21.598 -19.056  0.00  0.00    +0.005 C 
ATOM      5  C   UNL     1      35.588 -19.673 -21.289  0.00  0.00    +0.003 C 
ATOM      6  C   UNL     1      36.066 -21.250 -19.477  0.00  0.00    +0.000 C 
ATOM      7  C   UNL     1      32.852 -20.021 -20.869  0.00  0.00    +0.000 C 
ATOM      8  C   UNL     1      34.666 -18.982 -22.077  0.00  0.00    +0.031 C 
ATOM      9  C   UNL     1      35.617 -22.114 -18.478  0.00  0.00    +0.005 C 
ATOM     10  C   UNL     1      33.301 -19.156 -21.868  0.00  0.00    +0.003 C 
ENDROOT
BRANCH   8  13
ATOM     11  N   UNL     1      34.909 -18.357 -24.468  0.00  0.00    -0.343 N 
ATOM     12  N   UNL     1      35.783 -16.979 -22.795  0.00  0.00    -0.285 NA
ATOM     13  C   UNL     1      35.132 -18.082 -23.120  0.00  0.00    +0.117 C 
ATOM     14  H   UNL     1      35.233 -17.733 -25.157  0.00  0.00    +0.144 HD
ATOM     15  H   UNL     1      34.428 -19.174 -24.731  0.00  0.00    +0.144 HD
ATOM     16  H   UNL     1      36.100 -16.368 -23.499  0.00  0.00    +0.188 HD
ENDBRANCH   8  13
BRANCH   3  19
ATOM     17  O   UNL     1      34.560 -24.056 -16.789  0.00  0.00    -0.270 OA
ATOM     18  N   UNL     1      32.476 -22.981 -16.777  0.00  0.00    -0.280 N 
ATOM     19  C   UNL     1      33.787 -23.189 -17.226  0.00  0.00    +0.249 C 
ATOM     20  H   UNL     1      31.982 -22.253 -17.222  0.00  0.00    +0.155 HD
BRANCH  18  21
ATOM     21  C   UNL     1      31.767 -23.679 -15.769  0.00  0.00    +0.051 C 
ATOM     22  C   UNL     1      30.513 -24.192 -16.057  0.00  0.00    +0.015 C 
ATOM     23  C   UNL     1      32.343 -23.835 -14.520  0.00  0.00    +0.015 C 
ATOM     24  C   UNL     1      29.815 -24.881 -15.064  0.00  0.00    +0.001 C 
ATOM     25  C   UNL     1      31.645 -24.523 -13.529  0.00  0.00    +0.001 C 
ATOM     26  C   UNL     1      30.381 -25.046 -13.800  0.00  0.00    +0.000 C 
ENDBRANCH  18  21
ENDBRANCH   3  19
TORSDOF 3
ENDMDL
MODEL 4
REMARK VINA RESULT:     -10.6      2.247      8.562
REMARK  Name = 447732
REMARK  3 active torsions:
REMARK  status: ('A' for Active; 'I' for Inactive)
REMARK    1  A    between atoms: C_3  and  C_19
REMARK    2  A    between atoms: C_8  and  C_13
REMARK    3  A    between atoms: N_18  and  C_21
REMARK                            x       y       z     vdW  Elec       q    Type
REMARK                         _______ _______ _______ _____ _____    ______ ____
ROOT
ATOM      1  C   UNL     1      35.683 -20.380 -20.160  0.00  0.00    +0.000 C 
ATOM      2  C   UNL     1      34.396 -20.227 -20.728  0.00  0.00    +0.000 C 
ATOM      3  C   UNL     1      34.768 -21.944 -18.537  0.00  0.00    +0.054 C 
ATOM      4  C   UNL     1      35.852 -21.242 -19.064  0.00  0.00    +0.005 C 
ATOM      5  C   UNL     1      34.226 -19.365 -21.824  0.00  0.00    +0.003 C 
ATOM      6  C   UNL     1      33.315 -20.940 -20.184  0.00  0.00    +0.000 C 
ATOM      7  C   UNL     1      36.763 -19.666 -20.704  0.00  0.00    +0.000 C 
ATOM      8  C   UNL     1      35.311 -18.664 -22.352  0.00  0.00    +0.031 C 
ATOM      9  C   UNL     1      33.502 -21.793 -19.095  0.00  0.00    +0.005 C 
ATOM     10  C   UNL     1      36.576 -18.814 -21.793  0.00  0.00    +0.003 C 
ENDROOT
BRANCH   8  13
ATOM     11  N   UNL     1      35.505 -16.436 -23.431  0.00  0.00    -0.343 N 
ATOM     12  N   UNL     1      34.566 -18.231 -24.596  0.00  0.00    -0.285 NA
ATOM     13  C   UNL     1      35.119 -17.774 -23.486  0.00  0.00    +0.117 C 
ATOM     14  H   UNL     1      35.365 -15.851 -24.211  0.00  0.00    +0.144 HD
ATOM     15  H   UNL     1      35.916 -16.075 -22.613  0.00  0.00    +0.144 HD
ATOM     16  H   UNL     1      34.435 -17.631 -25.364  0.00  0.00    +0.188 HD
ENDBRANCH   8  13
BRANCH   3  19
ATOM     17  O   UNL     1      34.204 -23.808 -17.264  0.00  0.00    -0.270 OA
ATOM     18  N   UNL     1      36.026 -22.514 -16.549  0.00  0.00    -0.280 N 
ATOM     19  C   UNL     1      34.960 -22.832 -17.401  0.00  0.00    +0.249 C 
ATOM     20  H   UNL     1      36.537 -21.707 -16.786  0.00  0.00    +0.155 HD
BRANCH  18  21
ATOM     21  C   UNL     1      36.464 -23.202 -15.390  0.00  0.00    +0.051 C 
ATOM     22  C   UNL     1      35.653 -23.221 -14.269  0.00  0.00    +0.015 C 
ATOM     23  C   UNL     1      37.693 -23.840 -15.407  0.00  0.00    +0.015 C 
ATOM     24  C   UNL     1      36.084 -23.898 -13.128  0.00  0.00    +0.001 C 
ATOM     25  C   UNL     1      38.123 -24.517 -14.266  0.00  0.00    +0.001 C 
ATOM     26  C   UNL     1      37.320 -24.547 -13.127  0.00  0.00    +0.000 C 
ENDBRANCH  18  21
ENDBRANCH   3  19
TORSDOF 3
ENDMDL
MODEL 5
REMARK VINA RESULT:     -10.5      6.930     10.343
REMARK  Name = 447732
REMARK  3 active torsions:
REMARK  status: ('A' for Active; 'I' for Inactive)
REMARK    1  A    between atoms: C_3  and  C_19
REMARK    2  A    between atoms: C_8  and  C_13
REMARK    3  A    between atoms: N_18  and  C_21
REMARK                            x       y       z     vdW  Elec       q    Type
REMARK                         _______ _______ _______ _____ _____    ______ ____
ROOT
ATOM      1  C   UNL     1      33.315 -14.373 -23.098  0.00  0.00    +0.000 C 
ATOM      2  C   UNL     1      33.507 -15.129 -21.916  0.00  0.00    +0.000 C 
ATOM      3  C   UNL     1      32.201 -12.645 -21.798  0.00  0.00    +0.054 C 
ATOM      4  C   UNL     1      32.661 -13.133 -23.021  0.00  0.00    +0.005 C 
ATOM      5  C   UNL     1      34.162 -16.369 -21.992  0.00  0.00    +0.003 C 
ATOM      6  C   UNL     1      33.037 -14.623 -20.694  0.00  0.00    +0.000 C 
ATOM      7  C   UNL     1      33.785 -14.879 -24.320  0.00  0.00    +0.000 C 
ATOM      8  C   UNL     1      34.622 -16.856 -23.216  0.00  0.00    +0.031 C 
ATOM      9  C   UNL     1      32.388 -13.388 -20.637  0.00  0.00    +0.005 C 
ATOM     10  C   UNL     1      34.434 -16.114 -24.377  0.00  0.00    +0.003 C 
ENDROOT
BRANCH   8  13
ATOM     11  N   UNL     1      34.713 -19.239 -23.912  0.00  0.00    -0.343 N 
ATOM     12  N   UNL     1      36.488 -18.290 -22.724  0.00  0.00    -0.285 NA
ATOM     13  C   UNL     1      35.298 -18.144 -23.278  0.00  0.00    +0.117 C 
ATOM     14  H   UNL     1      35.189 -20.100 -23.942  0.00  0.00    +0.144 HD
ATOM     15  H   UNL     1      33.826 -19.150 -24.329  0.00  0.00    +0.144 HD
ATOM     16  H   UNL     1      36.947 -19.160 -22.765  0.00  0.00    +0.188 HD
ENDBRANCH   8  13
BRANCH   3  19
ATOM     17  O   UNL     1      30.377 -11.304 -21.265  0.00  0.00    -0.270 OA
ATOM     18  N   UNL     1      32.255 -10.260 -22.205  0.00  0.00    -0.280 N 
ATOM     19  C   UNL     1      31.524 -11.360 -21.736  0.00  0.00    +0.249 C 
ATOM     20  H   UNL     1      33.155 -10.460 -22.552  0.00  0.00    +0.155 HD
BRANCH  18  21
ATOM     21  C   UNL     1      31.870  -8.897 -22.247  0.00  0.00    +0.051 C 
ATOM     22  C   UNL     1      32.156  -8.081 -21.167  0.00  0.00    +0.015 C 
ATOM     23  C   UNL     1      31.218  -8.413 -23.368  0.00  0.00    +0.015 C 
ATOM     24  C   UNL     1      31.777  -6.738 -21.208  0.00  0.00    +0.001 C 
ATOM     25  C   UNL     1      30.840  -7.071 -23.409  0.00  0.00    +0.001 C 
ATOM     26  C   UNL     1      31.119  -6.234 -22.329  0.00  0.00    +0.000 C 
ENDBRANCH  18  21
ENDBRANCH   3  19
TORSDOF 3
ENDMDL
MODEL 6
REMARK VINA RESULT:     -10.5      1.194      1.891
REMARK  Name = 447732
REMARK  3 active torsions:
REMARK  status: ('A' for Active; 'I' for Inactive)
REMARK    1  A    between atoms: C_3  and  C_19
REMARK    2  A    between atoms: C_8  and  C_13
REMARK    3  A    between atoms: N_18  and  C_21
REMARK                            x       y       z     vdW  Elec       q    Type
REMARK                         _______ _______ _______ _____ _____    ______ ____
ROOT
ATOM      1  C   UNL     1      33.965 -22.313 -18.084  0.00  0.00    +0.000 C 
ATOM      2  C   UNL     1      35.335 -22.346 -17.729  0.00  0.00    +0.000 C 
ATOM      3  C   UNL     1      34.493 -20.825 -19.935  0.00  0.00    +0.054 C 
ATOM      4  C   UNL     1      33.561 -21.547 -19.190  0.00  0.00    +0.005 C 
ATOM      5  C   UNL     1      35.740 -23.112 -16.623  0.00  0.00    +0.003 C 
ATOM      6  C   UNL     1      36.259 -21.612 -18.490  0.00  0.00    +0.000 C 
ATOM      7  C   UNL     1      33.040 -23.047 -17.324  0.00  0.00    +0.000 C 
ATOM      8  C   UNL     1      34.807 -23.835 -15.879  0.00  0.00    +0.031 C 
ATOM      9  C   UNL     1      35.839 -20.857 -19.585  0.00  0.00    +0.005 C 
ATOM     10  C   UNL     1      33.461 -23.803 -16.229  0.00  0.00    +0.003 C 
ENDROOT
BRANCH   8  13
ATOM     11  N   UNL     1      34.481 -24.690 -13.570  0.00  0.00    -0.343 N 
ATOM     12  N   UNL     1      36.382 -25.289 -14.791  0.00  0.00    -0.285 NA
ATOM     13  C   UNL     1      35.242 -24.623 -14.736  0.00  0.00    +0.117 C 
ATOM     14  H   UNL     1      34.795 -25.230 -12.809  0.00  0.00    +0.144 HD
ATOM     15  H   UNL     1      33.630 -24.199 -13.509  0.00  0.00    +0.144 HD
ATOM     16  H   UNL     1      36.679 -25.822 -14.019  0.00  0.00    +0.188 HD
ENDBRANCH   8  13
BRANCH   3  19
ATOM     17  O   UNL     1      32.850 -20.005 -21.362  0.00  0.00    -0.270 OA
ATOM     18  N   UNL     1      35.064 -19.342 -21.760  0.00  0.00    -0.280 N 
ATOM     19  C   UNL     1      34.058 -20.036 -21.076  0.00  0.00    +0.249 C 
ATOM     20  H   UNL     1      35.979 -19.466 -21.417  0.00  0.00    +0.155 HD
BRANCH  18  21
ATOM     21  C   UNL     1      34.940 -18.485 -22.882  0.00  0.00    +0.051 C 
ATOM     22  C   UNL     1      34.668 -19.033 -24.123  0.00  0.00    +0.015 C 
ATOM     23  C   UNL     1      35.091 -17.120 -22.710  0.00  0.00    +0.015 C 
ATOM     24  C   UNL     1      34.544 -18.190 -25.228  0.00  0.00    +0.001 C 
ATOM     25  C   UNL     1      34.967 -16.277 -23.814  0.00  0.00    +0.001 C 
ATOM     26  C   UNL     1      34.694 -16.811 -25.073  0.00  0.00    +0.000 C 
ENDBRANCH  18  21
ENDBRANCH   3  19
TORSDOF 3
ENDMDL
MODEL 7
REMARK VINA RESULT:     -10.4      6.633     10.303
REMARK  Name = 447732
REMARK  3 active torsions:
REMARK  status: ('A' for Active; 'I' for Inactive)
REMARK    1  A    between atoms: C_3  and  C_19
REMARK    2  A    between atoms: C_8  and  C_13
REMARK    3  A    between atoms: N_18  and  C_21
REMARK                            x       y       z     vdW  Elec       q    Type
REMARK                         _______ _______ _______ _____ _____    ______ ____
ROOT
ATOM      1  C   UNL     1      33.066 -14.532 -21.742  0.00  0.00    +0.000 C 
ATOM      2  C   UNL     1      33.861 -14.671 -22.904  0.00  0.00    +0.000 C 
ATOM      3  C   UNL     1      32.468 -12.278 -22.434  0.00  0.00    +0.054 C 
ATOM      4  C   UNL     1      32.376 -13.329 -21.522  0.00  0.00    +0.005 C 
ATOM      5  C   UNL     1      34.551 -15.875 -23.125  0.00  0.00    +0.003 C 
ATOM      6  C   UNL     1      33.943 -13.603 -23.812  0.00  0.00    +0.000 C 
ATOM      7  C   UNL     1      32.983 -15.601 -20.834  0.00  0.00    +0.000 C 
ATOM      8  C   UNL     1      34.457 -16.926 -22.212  0.00  0.00    +0.031 C 
ATOM      9  C   UNL     1      33.251 -12.414 -23.576  0.00  0.00    +0.005 C 
ATOM     10  C   UNL     1      33.675 -16.789 -21.069  0.00  0.00    +0.003 C 
ENDROOT
BRANCH   8  13
ATOM     11  N   UNL     1      36.525 -18.161 -22.816  0.00  0.00    -0.343 N 
ATOM     12  N   UNL     1      34.556 -19.324 -22.335  0.00  0.00    -0.285 NA
ATOM     13  C   UNL     1      35.179 -18.166 -22.455  0.00  0.00    +0.117 C 
ATOM     14  H   UNL     1      36.994 -19.012 -22.975  0.00  0.00    +0.144 HD
ATOM     15  H   UNL     1      37.006 -17.308 -22.913  0.00  0.00    +0.144 HD
ATOM     16  H   UNL     1      35.043 -20.164 -22.499  0.00  0.00    +0.188 HD
ENDBRANCH   8  13
BRANCH   3  19
ATOM     17  O   UNL     1      30.588 -11.091 -21.751  0.00  0.00    -0.270 OA
ATOM     18  N   UNL     1      32.454  -9.858 -22.459  0.00  0.00    -0.280 N 
ATOM     19  C   UNL     1      31.748 -11.038 -22.191  0.00  0.00    +0.249 C 
ATOM     20  H   UNL     1      33.368  -9.975 -22.806  0.00  0.00    +0.155 HD
BRANCH  18  21
ATOM     21  C   UNL     1      32.025  -8.517 -22.297  0.00  0.00    +0.051 C 
ATOM     22  C   UNL     1      31.301  -7.913 -23.310  0.00  0.00    +0.015 C 
ATOM     23  C   UNL     1      32.339  -7.843 -21.130  0.00  0.00    +0.015 C 
ATOM     24  C   UNL     1      30.877  -6.593 -23.151  0.00  0.00    +0.001 C 
ATOM     25  C   UNL     1      31.915  -6.524 -20.971  0.00  0.00    +0.001 C 
ATOM     26  C   UNL     1      31.185  -5.898 -21.981  0.00  0.00    +0.000 C 
ENDBRANCH  18  21
ENDBRANCH   3  19
TORSDOF 3
ENDMDL
MODEL 8
REMARK VINA RESULT:     -10.3      2.294      4.001
REMARK  Name = 447732
REMARK  3 active torsions:
REMARK  status: ('A' for Active; 'I' for Inactive)
REMARK    1  A    between atoms: C_3  and  C_19
REMARK    2  A    between atoms: C_8  and  C_13
REMARK    3  A    between atoms: N_18  and  C_21
REMARK                            x       y       z     vdW  Elec       q    Type
REMARK                         _______ _______ _______ _____ _____    ______ ____
ROOT
ATOM      1  C   UNL     1      34.428 -20.298 -20.598  0.00  0.00    +0.000 C 
ATOM      2  C   UNL     1      35.747 -20.345 -20.086  0.00  0.00    +0.000 C 
ATOM      3  C   UNL     1      35.157 -18.718 -22.298  0.00  0.00    +0.054 C 
ATOM      4  C   UNL     1      34.150 -19.479 -21.705  0.00  0.00    +0.005 C 
ATOM      5  C   UNL     1      36.026 -21.163 -18.979  0.00  0.00    +0.003 C 
ATOM      6  C   UNL     1      36.748 -19.571 -20.695  0.00  0.00    +0.000 C 
ATOM      7  C   UNL     1      33.427 -21.072 -19.989  0.00  0.00    +0.000 C 
ATOM      8  C   UNL     1      35.018 -21.925 -18.386  0.00  0.00    +0.031 C 
ATOM      9  C   UNL     1      36.453 -18.763 -21.794  0.00  0.00    +0.005 C 
ATOM     10  C   UNL     1      33.722 -21.879 -18.890  0.00  0.00    +0.003 C 
ENDROOT
BRANCH   8  13
ATOM     11  N   UNL     1      34.319 -23.445 -16.551  0.00  0.00    -0.343 N 
ATOM     12  N   UNL     1      36.573 -22.898 -16.832  0.00  0.00    -0.285 NA
ATOM     13  C   UNL     1      35.323 -22.767 -17.240  0.00  0.00    +0.117 C 
ATOM     14  H   UNL     1      34.548 -24.010 -15.778  0.00  0.00    +0.144 HD
ATOM     15  H   UNL     1      33.381 -23.358 -16.837  0.00  0.00    +0.144 HD
ATOM     16  H   UNL     1      36.782 -23.467 -16.057  0.00  0.00    +0.188 HD
ENDBRANCH   8  13
BRANCH   3  19
ATOM     17  O   UNL     1      35.000 -18.334 -24.587  0.00  0.00    -0.270 OA
ATOM     18  N   UNL     1      34.382 -16.588 -23.148  0.00  0.00    -0.280 N 
ATOM     19  C   UNL     1      34.852 -17.875 -23.443  0.00  0.00    +0.249 C 
ATOM     20  H   UNL     1      34.318 -16.365 -22.190  0.00  0.00    +0.155 HD
BRANCH  18  21
ATOM     21  C   UNL     1      33.986 -15.566 -24.045  0.00  0.00    +0.051 C 
ATOM     22  C   UNL     1      33.925 -14.259 -23.594  0.00  0.00    +0.015 C 
ATOM     23  C   UNL     1      33.672 -15.897 -25.352  0.00  0.00    +0.015 C 
ATOM     24  C   UNL     1      33.536 -13.251 -24.478  0.00  0.00    +0.001 C 
ATOM     25  C   UNL     1      33.284 -14.890 -26.235  0.00  0.00    +0.001 C 
ATOM     26  C   UNL     1      33.215 -13.567 -25.799  0.00  0.00    +0.000 C 
ENDBRANCH  18  21
ENDBRANCH   3  19
TORSDOF 3
ENDMDL
MODEL 9
REMARK VINA RESULT:     -10.3      2.680      8.643
REMARK  Name = 447732
REMARK  3 active torsions:
REMARK  status: ('A' for Active; 'I' for Inactive)
REMARK    1  A    between atoms: C_3  and  C_19
REMARK    2  A    between atoms: C_8  and  C_13
REMARK    3  A    between atoms: N_18  and  C_21
REMARK                            x       y       z     vdW  Elec       q    Type
REMARK                         _______ _______ _______ _____ _____    ______ ____
ROOT
ATOM      1  C   UNL     1      35.080 -20.138 -20.544  0.00  0.00    +0.000 C 
ATOM      2  C   UNL     1      33.879 -19.734 -21.174  0.00  0.00    +0.000 C 
ATOM      3  C   UNL     1      33.804 -21.589 -19.067  0.00  0.00    +0.054 C 
ATOM      4  C   UNL     1      35.026 -21.067 -19.492  0.00  0.00    +0.005 C 
ATOM      5  C   UNL     1      33.933 -18.805 -22.226  0.00  0.00    +0.003 C 
ATOM      6  C   UNL     1      32.658 -20.269 -20.732  0.00  0.00    +0.000 C 
ATOM      7  C   UNL     1      36.301 -19.602 -20.986  0.00  0.00    +0.000 C 
ATOM      8  C   UNL     1      35.155 -18.284 -22.652  0.00  0.00    +0.031 C 
ATOM      9  C   UNL     1      32.623 -21.191 -19.685  0.00  0.00    +0.005 C 
ATOM     10  C   UNL     1      36.336 -18.681 -22.033  0.00  0.00    +0.003 C 
ENDROOT
BRANCH   8  13
ATOM     11  N   UNL     1      34.813 -17.676 -25.036  0.00  0.00    -0.343 N 
ATOM     12  N   UNL     1      35.600 -16.085 -23.516  0.00  0.00    -0.285 NA
ATOM     13  C   UNL     1      35.194 -17.322 -23.743  0.00  0.00    +0.117 C 
ATOM     14  H   UNL     1      34.847 -17.009 -25.758  0.00  0.00    +0.144 HD
ATOM     15  H   UNL     1      34.510 -18.593 -25.225  0.00  0.00    +0.144 HD
ATOM     16  H   UNL     1      35.627 -15.432 -24.252  0.00  0.00    +0.188 HD
ENDBRANCH   8  13
BRANCH   3  19
ATOM     17  O   UNL     1      34.775 -23.229 -17.733  0.00  0.00    -0.270 OA
ATOM     18  N   UNL     1      32.564 -22.609 -17.255  0.00  0.00    -0.280 N 
ATOM     19  C   UNL     1      33.765 -22.549 -17.975  0.00  0.00    +0.249 C 
ATOM     20  H   UNL     1      31.849 -22.007 -17.566  0.00  0.00    +0.155 HD
BRANCH  18  21
ATOM     21  C   UNL     1      32.244 -23.420 -16.139  0.00  0.00    +0.051 C 
ATOM     22  C   UNL     1      33.215 -23.671 -15.185  0.00  0.00    +0.015 C 
ATOM     23  C   UNL     1      30.967 -23.944 -16.028  0.00  0.00    +0.015 C 
ATOM     24  C   UNL     1      32.899 -24.469 -14.085  0.00  0.00    +0.001 C 
ATOM     25  C   UNL     1      30.652 -24.742 -14.928  0.00  0.00    +0.001 C 
ATOM     26  C   UNL     1      31.617 -25.005 -13.957  0.00  0.00    +0.000 C 
ENDBRANCH  18  21
ENDBRANCH   3  19
TORSDOF 3
ENDMDL
