MODEL 1
REMARK VINA RESULT:      -7.5      0.000      0.000
REMARK  Name = 460612
REMARK  10 active torsions:
REMARK  status: ('A' for Active; 'I' for Inactive)
REMARK    1  A    between atoms: C_1  and  N_7
REMARK    2  A    between atoms: C_2  and  C_14
REMARK    3  A    between atoms: N_7  and  C_8
REMARK    4  A    between atoms: N_7  and  C_11
REMARK    5  A    between atoms: C_8  and  C_10
REMARK    6  A    between atoms: C_11  and  C_13
REMARK    7  A    between atoms: C_14  and  CA_15
REMARK    8  A    between atoms: CA_15  and  N_16
REMARK    9  A    between atoms: CA_15  and  C_21
REMARK   10  A    between atoms: C_21  and  O_22
REMARK                            x       y       z     vdW  Elec       q    Type
REMARK                         _______ _______ _______ _____ _____    ______ ____
ROOT
ATOM      1  C   UNL     1      34.824 -19.491 -20.857  0.00  0.00    +0.048 C 
ATOM      2  C   UNL     1      34.077 -21.762 -19.458  0.00  0.00    -0.024 C 
ATOM      3  C   UNL     1      35.799 -20.354 -20.357  0.00  0.00    +0.014 C 
ATOM      4  C   UNL     1      33.474 -19.771 -20.652  0.00  0.00    +0.014 C 
ATOM      5  C   UNL     1      35.424 -21.498 -19.653  0.00  0.00    -0.003 C 
ATOM      6  C   UNL     1      33.097 -20.915 -19.948  0.00  0.00    -0.003 C 
ENDROOT
BRANCH   1   7
ATOM      7  N   UNL     1      35.205 -18.334 -21.569  0.00  0.00    -0.305 N 
BRANCH   7   8
ATOM      8  C   UNL     1      35.824 -18.444 -22.874  0.00  0.00    +0.108 C 
BRANCH   8  10
ATOM      9 CL   UNL     1      34.383 -17.979 -25.148  0.00  0.00    -0.112 Cl
ATOM     10  C   UNL     1      34.886 -19.111 -23.868  0.00  0.00    +0.116 C 
ENDBRANCH   8  10
ENDBRANCH   7   8
BRANCH   7  11
ATOM     11  C   UNL     1      34.968 -17.018 -21.009  0.00  0.00    +0.108 C 
BRANCH  11  13
ATOM     12 CL   UNL     1      32.610 -15.658 -20.782  0.00  0.00    -0.112 Cl
ATOM     13  C   UNL     1      33.928 -16.259 -21.817  0.00  0.00    +0.116 C 
ENDBRANCH  11  13
ENDBRANCH   7  11
ENDBRANCH   1   7
BRANCH   2  14
ATOM     14  C   UNL     1      33.669 -23.001 -18.696  0.00  0.00    +0.015 C 
BRANCH  14  15
ATOM     15  CA  UNL     1      33.487 -22.744 -17.192  0.00  0.00    +0.040 C 
BRANCH  15  16
ATOM     16  N   UNL     1      34.427 -23.566 -16.434  0.00  0.00    +0.389 N 
ATOM     17  H1  UNL     1      34.247 -24.552 -16.622  0.00  0.00    -0.088 HD
ATOM     18  H2  UNL     1      34.312 -23.384 -15.437  0.00  0.00    -0.088 HD
ATOM     19  H3  UNL     1      35.381 -23.336 -16.713  0.00  0.00    -0.088 HD
ENDBRANCH  15  16
BRANCH  15  21
ATOM     20  OXT UNL     1      31.858 -23.922 -15.816  0.00  0.00    -0.253 OA
ATOM     21  C   UNL     1      32.097 -23.121 -16.712  0.00  0.00    +0.293 C 
BRANCH  21  22
ATOM     22  O   UNL     1      31.121 -22.440 -17.367  0.00  0.00    -0.482 OA
ATOM     23  H   UNL     1      30.604 -22.874 -18.017  0.00  0.00    +0.295 HD
ENDBRANCH  21  22
ENDBRANCH  15  21
ENDBRANCH  14  15
ENDBRANCH   2  14
TORSDOF 10
ENDMDL
MODEL 2
REMARK VINA RESULT:      -7.4      0.066      2.240
REMARK  Name = 460612
REMARK  10 active torsions:
REMARK  status: ('A' for Active; 'I' for Inactive)
REMARK    1  A    between atoms: C_1  and  N_7
REMARK    2  A    between atoms: C_2  and  C_14
REMARK    3  A    between atoms: N_7  and  C_8
REMARK    4  A    between atoms: N_7  and  C_11
REMARK    5  A    between atoms: C_8  and  C_10
REMARK    6  A    between atoms: C_11  and  C_13
REMARK    7  A    between atoms: C_14  and  CA_15
REMARK    8  A    between atoms: CA_15  and  N_16
REMARK    9  A    between atoms: CA_15  and  C_21
REMARK   10  A    between atoms: C_21  and  O_22
REMARK                            x       y       z     vdW  Elec       q    Type
REMARK                         _______ _______ _______ _____ _____    ______ ____
ROOT
ATOM      1  C   UNL     1      34.829 -19.521 -20.836  0.00  0.00    +0.048 C 
ATOM      2  C   UNL     1      34.091 -21.795 -19.436  0.00  0.00    -0.024 C 
ATOM      3  C   UNL     1      35.806 -20.394 -20.357  0.00  0.00    +0.014 C 
ATOM      4  C   UNL     1      33.481 -19.793 -20.609  0.00  0.00    +0.014 C 
ATOM      5  C   UNL     1      35.436 -21.539 -19.653  0.00  0.00    -0.003 C 
ATOM      6  C   UNL     1      33.109 -20.939 -19.904  0.00  0.00    -0.003 C 
ENDROOT
BRANCH   1   7
ATOM      7  N   UNL     1      35.205 -18.362 -21.547  0.00  0.00    -0.305 N 
BRANCH   7   8
ATOM      8  C   UNL     1      34.997 -17.049 -20.973  0.00  0.00    +0.108 C 
BRANCH   8  10
ATOM      9 CL   UNL     1      32.747 -15.514 -20.755  0.00  0.00    -0.112 Cl
ATOM     10  C   UNL     1      33.997 -16.247 -21.791  0.00  0.00    +0.116 C 
ENDBRANCH   8  10
ENDBRANCH   7   8
BRANCH   7  11
ATOM     11  C   UNL     1      35.817 -18.472 -22.857  0.00  0.00    +0.108 C 
BRANCH  11  13
ATOM     12 CL   UNL     1      34.413 -18.037 -25.160  0.00  0.00    -0.112 Cl
ATOM     13  C   UNL     1      34.877 -19.144 -23.845  0.00  0.00    +0.116 C 
ENDBRANCH  11  13
ENDBRANCH   7  11
ENDBRANCH   1   7
BRANCH   2  14
ATOM     14  C   UNL     1      33.688 -23.036 -18.673  0.00  0.00    +0.015 C 
BRANCH  14  15
ATOM     15  CA  UNL     1      33.507 -22.779 -17.169  0.00  0.00    +0.040 C 
BRANCH  15  16
ATOM     16  N   UNL     1      34.418 -23.633 -16.410  0.00  0.00    +0.389 N 
ATOM     17  H1  UNL     1      33.955 -24.515 -16.192  0.00  0.00    -0.088 HD
ATOM     18  H2  UNL     1      34.681 -23.164 -15.543  0.00  0.00    -0.088 HD
ATOM     19  H3  UNL     1      35.254 -23.815 -16.964  0.00  0.00    -0.088 HD
ENDBRANCH  15  16
BRANCH  15  21
ATOM     20  OXT UNL     1      31.837 -23.891 -15.788  0.00  0.00    -0.253 OA
ATOM     21  C   UNL     1      32.103 -23.114 -16.697  0.00  0.00    +0.293 C 
BRANCH  21  22
ATOM     22  O   UNL     1      31.150 -22.426 -17.378  0.00  0.00    -0.482 OA
ATOM     23  H   UNL     1      30.270 -22.406 -17.059  0.00  0.00    +0.295 HD
ENDBRANCH  21  22
ENDBRANCH  15  21
ENDBRANCH  14  15
ENDBRANCH   2  14
TORSDOF 10
ENDMDL
MODEL 3
REMARK VINA RESULT:      -7.2      1.675      3.133
REMARK  Name = 460612
REMARK  10 active torsions:
REMARK  status: ('A' for Active; 'I' for Inactive)
REMARK    1  A    between atoms: C_1  and  N_7
REMARK    2  A    between atoms: C_2  and  C_14
REMARK    3  A    between atoms: N_7  and  C_8
REMARK    4  A    between atoms: N_7  and  C_11
REMARK    5  A    between atoms: C_8  and  C_10
REMARK    6  A    between atoms: C_11  and  C_13
REMARK    7  A    between atoms: C_14  and  CA_15
REMARK    8  A    between atoms: CA_15  and  N_16
REMARK    9  A    between atoms: CA_15  and  C_21
REMARK   10  A    between atoms: C_21  and  O_22
REMARK                            x       y       z     vdW  Elec       q    Type
REMARK                         _______ _______ _______ _____ _____    ______ ____
ROOT
ATOM      1  C   UNL     1      34.807 -18.143 -21.484  0.00  0.00    +0.048 C 
ATOM      2  C   UNL     1      35.282 -20.584 -20.264  0.00  0.00    -0.024 C 
ATOM      3  C   UNL     1      33.739 -18.972 -21.143  0.00  0.00    +0.014 C 
ATOM      4  C   UNL     1      36.114 -18.543 -21.211  0.00  0.00    +0.014 C 
ATOM      5  C   UNL     1      33.977 -20.201 -20.528  0.00  0.00    -0.003 C 
ATOM      6  C   UNL     1      36.354 -19.773 -20.597  0.00  0.00    -0.003 C 
ENDROOT
BRANCH   1   7
ATOM      7  N   UNL     1      34.565 -16.900 -22.106  0.00  0.00    -0.305 N 
BRANCH   7   8
ATOM      8  C   UNL     1      33.685 -15.929 -21.489  0.00  0.00    +0.108 C 
BRANCH   8  10
ATOM      9 CL   UNL     1      32.471 -13.728 -22.560  0.00  0.00    -0.112 Cl
ATOM     10  C   UNL     1      33.965 -14.529 -22.011  0.00  0.00    +0.116 C 
ENDBRANCH   8  10
ENDBRANCH   7   8
BRANCH   7  11
ATOM     11  C   UNL     1      35.206 -16.573 -23.365  0.00  0.00    +0.108 C 
BRANCH  11  13
ATOM     12 CL   UNL     1      34.553 -18.828 -24.762  0.00  0.00    -0.112 Cl
ATOM     13  C   UNL     1      34.382 -17.069 -24.542  0.00  0.00    +0.116 C 
ENDBRANCH  11  13
ENDBRANCH   7  11
ENDBRANCH   1   7
BRANCH   2  14
ATOM     14  C   UNL     1      35.542 -21.916 -19.598  0.00  0.00    +0.015 C 
BRANCH  14  15
ATOM     15  CA  UNL     1      34.845 -22.046 -18.234  0.00  0.00    +0.040 C 
BRANCH  15  16
ATOM     16  N   UNL     1      35.820 -22.437 -17.218  0.00  0.00    +0.389 N 
ATOM     17  H1  UNL     1      35.484 -22.154 -16.297  0.00  0.00    -0.088 HD
ATOM     18  H2  UNL     1      36.712 -21.981 -17.409  0.00  0.00    -0.088 HD
ATOM     19  H3  UNL     1      35.944 -23.449 -17.238  0.00  0.00    -0.088 HD
ENDBRANCH  15  16
BRANCH  15  21
ATOM     20  OXT UNL     1      32.914 -23.259 -17.378  0.00  0.00    -0.253 OA
ATOM     21  C   UNL     1      33.772 -23.120 -18.241  0.00  0.00    +0.293 C 
BRANCH  21  22
ATOM     22  O   UNL     1      33.839 -23.912 -19.343  0.00  0.00    -0.482 OA
ATOM     23  H   UNL     1      33.346 -23.691 -20.108  0.00  0.00    +0.295 HD
ENDBRANCH  21  22
ENDBRANCH  15  21
ENDBRANCH  14  15
ENDBRANCH   2  14
TORSDOF 10
ENDMDL
MODEL 4
REMARK VINA RESULT:      -7.2      1.635      2.076
REMARK  Name = 460612
REMARK  10 active torsions:
REMARK  status: ('A' for Active; 'I' for Inactive)
REMARK    1  A    between atoms: C_1  and  N_7
REMARK    2  A    between atoms: C_2  and  C_14
REMARK    3  A    between atoms: N_7  and  C_8
REMARK    4  A    between atoms: N_7  and  C_11
REMARK    5  A    between atoms: C_8  and  C_10
REMARK    6  A    between atoms: C_11  and  C_13
REMARK    7  A    between atoms: C_14  and  CA_15
REMARK    8  A    between atoms: CA_15  and  N_16
REMARK    9  A    between atoms: CA_15  and  C_21
REMARK   10  A    between atoms: C_21  and  O_22
REMARK                            x       y       z     vdW  Elec       q    Type
REMARK                         _______ _______ _______ _____ _____    ______ ____
ROOT
ATOM      1  C   UNL     1      34.889 -18.128 -21.563  0.00  0.00    +0.048 C 
ATOM      2  C   UNL     1      35.368 -20.527 -20.264  0.00  0.00    -0.024 C 
ATOM      3  C   UNL     1      36.198 -18.518 -21.277  0.00  0.00    +0.014 C 
ATOM      4  C   UNL     1      33.822 -18.946 -21.193  0.00  0.00    +0.014 C 
ATOM      5  C   UNL     1      36.440 -19.726 -20.624  0.00  0.00    -0.003 C 
ATOM      6  C   UNL     1      34.063 -20.155 -20.539  0.00  0.00    -0.003 C 
ENDROOT
BRANCH   1   7
ATOM      7  N   UNL     1      34.646 -16.906 -22.223  0.00  0.00    -0.305 N 
BRANCH   7   8
ATOM      8  C   UNL     1      35.227 -16.646 -23.524  0.00  0.00    +0.108 C 
BRANCH   8  10
ATOM      9 CL   UNL     1      34.549 -18.978 -24.775  0.00  0.00    -0.112 Cl
ATOM     10  C   UNL     1      34.356 -17.213 -24.634  0.00  0.00    +0.116 C 
ENDBRANCH   8  10
ENDBRANCH   7   8
BRANCH   7  11
ATOM     11  C   UNL     1      33.799 -15.899 -21.614  0.00  0.00    +0.108 C 
BRANCH  11  13
ATOM     12 CL   UNL     1      32.499 -13.597 -22.302  0.00  0.00    -0.112 Cl
ATOM     13  C   UNL     1      34.008 -14.542 -22.266  0.00  0.00    +0.116 C 
ENDBRANCH  11  13
ENDBRANCH   7  11
ENDBRANCH   1   7
BRANCH   2  14
ATOM     14  C   UNL     1      35.629 -21.837 -19.556  0.00  0.00    +0.015 C 
BRANCH  14  15
ATOM     15  CA  UNL     1      34.796 -21.998 -18.274  0.00  0.00    +0.040 C 
BRANCH  15  16
ATOM     16  N   UNL     1      35.622 -22.582 -17.220  0.00  0.00    +0.389 N 
ATOM     17  H1  UNL     1      35.473 -23.590 -17.189  0.00  0.00    -0.088 HD
ATOM     18  H2  UNL     1      35.367 -22.173 -16.321  0.00  0.00    -0.088 HD
ATOM     19  H3  UNL     1      36.605 -22.390 -17.413  0.00  0.00    -0.088 HD
ENDBRANCH  15  16
BRANCH  15  21
ATOM     20  OXT UNL     1      32.513 -22.790 -17.966  0.00  0.00    -0.253 OA
ATOM     21  C   UNL     1      33.619 -22.937 -18.472  0.00  0.00    +0.293 C 
BRANCH  21  22
ATOM     22  O   UNL     1      33.912 -23.964 -19.312  0.00  0.00    -0.482 OA
ATOM     23  H   UNL     1      33.273 -24.629 -19.478  0.00  0.00    +0.295 HD
ENDBRANCH  21  22
ENDBRANCH  15  21
ENDBRANCH  14  15
ENDBRANCH   2  14
TORSDOF 10
ENDMDL
MODEL 5
REMARK VINA RESULT:      -7.1      3.299      4.769
REMARK  Name = 460612
REMARK  10 active torsions:
REMARK  status: ('A' for Active; 'I' for Inactive)
REMARK    1  A    between atoms: C_1  and  N_7
REMARK    2  A    between atoms: C_2  and  C_14
REMARK    3  A    between atoms: N_7  and  C_8
REMARK    4  A    between atoms: N_7  and  C_11
REMARK    5  A    between atoms: C_8  and  C_10
REMARK    6  A    between atoms: C_11  and  C_13
REMARK    7  A    between atoms: C_14  and  CA_15
REMARK    8  A    between atoms: CA_15  and  N_16
REMARK    9  A    between atoms: CA_15  and  C_21
REMARK   10  A    between atoms: C_21  and  O_22
REMARK                            x       y       z     vdW  Elec       q    Type
REMARK                         _______ _______ _______ _____ _____    ______ ____
ROOT
ATOM      1  C   UNL     1      34.341 -16.344 -23.367  0.00  0.00    +0.048 C 
ATOM      2  C   UNL     1      35.504 -18.211 -21.683  0.00  0.00    -0.024 C 
ATOM      3  C   UNL     1      34.397 -16.106 -21.994  0.00  0.00    +0.014 C 
ATOM      4  C   UNL     1      34.870 -17.522 -23.892  0.00  0.00    +0.014 C 
ATOM      5  C   UNL     1      34.982 -17.045 -21.145  0.00  0.00    -0.003 C 
ATOM      6  C   UNL     1      35.456 -18.463 -23.044  0.00  0.00    -0.003 C 
ENDROOT
BRANCH   1   7
ATOM      7  N   UNL     1      33.748 -15.394 -24.225  0.00  0.00    -0.305 N 
BRANCH   7   8
ATOM      8  C   UNL     1      33.813 -15.561 -25.662  0.00  0.00    +0.108 C 
BRANCH   8  10
ATOM      9 CL   UNL     1      33.498 -13.483 -27.408  0.00  0.00    -0.112 Cl
ATOM     10  C   UNL     1      32.757 -14.716 -26.358  0.00  0.00    +0.116 C 
ENDBRANCH   8  10
ENDBRANCH   7   8
BRANCH   7  11
ATOM     11  C   UNL     1      33.053 -14.245 -23.678  0.00  0.00    +0.108 C 
BRANCH  11  13
ATOM     12 CL   UNL     1      33.698 -11.717 -24.488  0.00  0.00    -0.112 Cl
ATOM     13  C   UNL     1      34.017 -13.100 -23.412  0.00  0.00    +0.116 C 
ENDBRANCH  11  13
ENDBRANCH   7  11
ENDBRANCH   1   7
BRANCH   2  14
ATOM     14  C   UNL     1      36.139 -19.229 -20.764  0.00  0.00    +0.015 C 
BRANCH  14  15
ATOM     15  CA  UNL     1      35.302 -20.511 -20.626  0.00  0.00    +0.040 C 
BRANCH  15  16
ATOM     16  N   UNL     1      33.899 -20.164 -20.415  0.00  0.00    +0.389 N 
ATOM     17  H1  UNL     1      33.661 -20.291 -19.432  0.00  0.00    -0.088 HD
ATOM     18  H2  UNL     1      33.309 -20.767 -20.988  0.00  0.00    -0.088 HD
ATOM     19  H3  UNL     1      33.747 -19.190 -20.678  0.00  0.00    -0.088 HD
ENDBRANCH  15  16
BRANCH  15  21
ATOM     20  OXT UNL     1      35.275 -22.447 -19.147  0.00  0.00    -0.253 OA
ATOM     21  C   UNL     1      35.728 -21.344 -19.429  0.00  0.00    +0.293 C 
BRANCH  21  22
ATOM     22  O   UNL     1      36.706 -20.744 -18.703  0.00  0.00    -0.482 OA
ATOM     23  H   UNL     1      36.914 -19.843 -18.853  0.00  0.00    +0.295 HD
ENDBRANCH  21  22
ENDBRANCH  15  21
ENDBRANCH  14  15
ENDBRANCH   2  14
TORSDOF 10
ENDMDL
MODEL 6
REMARK VINA RESULT:      -7.1      3.301      5.117
REMARK  Name = 460612
REMARK  10 active torsions:
REMARK  status: ('A' for Active; 'I' for Inactive)
REMARK    1  A    between atoms: C_1  and  N_7
REMARK    2  A    between atoms: C_2  and  C_14
REMARK    3  A    between atoms: N_7  and  C_8
REMARK    4  A    between atoms: N_7  and  C_11
REMARK    5  A    between atoms: C_8  and  C_10
REMARK    6  A    between atoms: C_11  and  C_13
REMARK    7  A    between atoms: C_14  and  CA_15
REMARK    8  A    between atoms: CA_15  and  N_16
REMARK    9  A    between atoms: CA_15  and  C_21
REMARK   10  A    between atoms: C_21  and  O_22
REMARK                            x       y       z     vdW  Elec       q    Type
REMARK                         _______ _______ _______ _____ _____    ______ ____
ROOT
ATOM      1  C   UNL     1      34.328 -16.352 -23.384  0.00  0.00    +0.048 C 
ATOM      2  C   UNL     1      35.507 -18.222 -21.716  0.00  0.00    -0.024 C 
ATOM      3  C   UNL     1      34.393 -16.119 -22.010  0.00  0.00    +0.014 C 
ATOM      4  C   UNL     1      34.856 -17.527 -23.917  0.00  0.00    +0.014 C 
ATOM      5  C   UNL     1      34.987 -17.059 -21.170  0.00  0.00    -0.003 C 
ATOM      6  C   UNL     1      35.450 -18.469 -23.077  0.00  0.00    -0.003 C 
ENDROOT
BRANCH   1   7
ATOM      7  N   UNL     1      33.727 -15.400 -24.234  0.00  0.00    -0.305 N 
BRANCH   7   8
ATOM      8  C   UNL     1      33.031 -14.256 -23.679  0.00  0.00    +0.108 C 
BRANCH   8  10
ATOM      9 CL   UNL     1      33.742 -11.750 -24.502  0.00  0.00    -0.112 Cl
ATOM     10  C   UNL     1      33.996 -13.118 -23.390  0.00  0.00    +0.116 C 
ENDBRANCH   8  10
ENDBRANCH   7   8
BRANCH   7  11
ATOM     11  C   UNL     1      33.809 -15.546 -25.674  0.00  0.00    +0.108 C 
BRANCH  11  13
ATOM     12 CL   UNL     1      33.482 -13.488 -27.440  0.00  0.00    -0.112 Cl
ATOM     13  C   UNL     1      32.749 -14.707 -26.370  0.00  0.00    +0.116 C 
ENDBRANCH  11  13
ENDBRANCH   7  11
ENDBRANCH   1   7
BRANCH   2  14
ATOM     14  C   UNL     1      36.151 -19.243 -20.805  0.00  0.00    +0.015 C 
BRANCH  14  15
ATOM     15  CA  UNL     1      35.300 -20.511 -20.635  0.00  0.00    +0.040 C 
BRANCH  15  16
ATOM     16  N   UNL     1      33.904 -20.143 -20.412  0.00  0.00    +0.389 N 
ATOM     17  H1  UNL     1      33.715 -19.243 -20.853  0.00  0.00    -0.088 HD
ATOM     18  H2  UNL     1      33.726 -20.074 -19.410  0.00  0.00    -0.088 HD
ATOM     19  H3  UNL     1      33.296 -20.854 -20.817  0.00  0.00    -0.088 HD
ENDBRANCH  15  16
BRANCH  15  21
ATOM     20  OXT UNL     1      35.277 -22.429 -19.132  0.00  0.00    -0.253 OA
ATOM     21  C   UNL     1      35.730 -21.330 -19.431  0.00  0.00    +0.293 C 
BRANCH  21  22
ATOM     22  O   UNL     1      36.715 -20.724 -18.718  0.00  0.00    -0.482 OA
ATOM     23  H   UNL     1      36.865 -19.804 -18.816  0.00  0.00    +0.295 HD
ENDBRANCH  21  22
ENDBRANCH  15  21
ENDBRANCH  14  15
ENDBRANCH   2  14
TORSDOF 10
ENDMDL
MODEL 7
REMARK VINA RESULT:      -7.1      3.049      5.110
REMARK  Name = 460612
REMARK  10 active torsions:
REMARK  status: ('A' for Active; 'I' for Inactive)
REMARK    1  A    between atoms: C_1  and  N_7
REMARK    2  A    between atoms: C_2  and  C_14
REMARK    3  A    between atoms: N_7  and  C_8
REMARK    4  A    between atoms: N_7  and  C_11
REMARK    5  A    between atoms: C_8  and  C_10
REMARK    6  A    between atoms: C_11  and  C_13
REMARK    7  A    between atoms: C_14  and  CA_15
REMARK    8  A    between atoms: CA_15  and  N_16
REMARK    9  A    between atoms: CA_15  and  C_21
REMARK   10  A    between atoms: C_21  and  O_22
REMARK                            x       y       z     vdW  Elec       q    Type
REMARK                         _______ _______ _______ _____ _____    ______ ____
ROOT
ATOM      1  C   UNL     1      34.479 -16.141 -23.252  0.00  0.00    +0.048 C 
ATOM      2  C   UNL     1      35.550 -18.151 -21.674  0.00  0.00    -0.024 C 
ATOM      3  C   UNL     1      34.920 -17.328 -23.837  0.00  0.00    +0.014 C 
ATOM      4  C   UNL     1      34.579 -15.967 -21.872  0.00  0.00    +0.014 C 
ATOM      5  C   UNL     1      35.459 -18.341 -23.044  0.00  0.00    -0.003 C 
ATOM      6  C   UNL     1      35.118 -16.979 -21.077  0.00  0.00    -0.003 C 
ENDROOT
BRANCH   1   7
ATOM      7  N   UNL     1      33.935 -15.117 -24.056  0.00  0.00    -0.305 N 
BRANCH   7   8
ATOM      8  C   UNL     1      33.765 -13.780 -23.525  0.00  0.00    +0.108 C 
BRANCH   8  10
ATOM      9 CL   UNL     1      32.425 -13.326 -21.187  0.00  0.00    -0.112 Cl
ATOM     10  C   UNL     1      32.370 -13.596 -22.948  0.00  0.00    +0.116 C 
ENDBRANCH   8  10
ENDBRANCH   7   8
BRANCH   7  11
ATOM     11  C   UNL     1      33.553 -15.387 -25.428  0.00  0.00    +0.108 C 
BRANCH  11  13
ATOM     12 CL   UNL     1      33.602 -13.504 -27.406  0.00  0.00    -0.112 Cl
ATOM     13  C   UNL     1      32.763 -14.227 -26.012  0.00  0.00    +0.116 C 
ENDBRANCH  11  13
ENDBRANCH   7  11
ENDBRANCH   1   7
BRANCH   2  14
ATOM     14  C   UNL     1      36.133 -19.247 -20.813  0.00  0.00    +0.015 C 
BRANCH  14  15
ATOM     15  CA  UNL     1      35.221 -20.480 -20.718  0.00  0.00    +0.040 C 
BRANCH  15  16
ATOM     16  N   UNL     1      33.845 -20.057 -20.470  0.00  0.00    +0.389 N 
ATOM     17  H1  UNL     1      33.478 -20.550 -19.656  0.00  0.00    -0.088 HD
ATOM     18  H2  UNL     1      33.270 -20.272 -21.284  0.00  0.00    -0.088 HD
ATOM     19  H3  UNL     1      33.825 -19.052 -20.296  0.00  0.00    -0.088 HD
ENDBRANCH  15  16
BRANCH  15  21
ATOM     20  OXT UNL     1      35.155 -22.512 -19.376  0.00  0.00    -0.253 OA
ATOM     21  C   UNL     1      35.609 -21.390 -19.566  0.00  0.00    +0.293 C 
BRANCH  21  22
ATOM     22  O   UNL     1      36.556 -20.836 -18.765  0.00  0.00    -0.482 OA
ATOM     23  H   UNL     1      37.464 -21.001 -18.932  0.00  0.00    +0.295 HD
ENDBRANCH  21  22
ENDBRANCH  15  21
ENDBRANCH  14  15
ENDBRANCH   2  14
TORSDOF 10
ENDMDL
MODEL 8
REMARK VINA RESULT:      -7.1      7.499      8.598
REMARK  Name = 460612
REMARK  10 active torsions:
REMARK  status: ('A' for Active; 'I' for Inactive)
REMARK    1  A    between atoms: C_1  and  N_7
REMARK    2  A    between atoms: C_2  and  C_14
REMARK    3  A    between atoms: N_7  and  C_8
REMARK    4  A    between atoms: N_7  and  C_11
REMARK    5  A    between atoms: C_8  and  C_10
REMARK    6  A    between atoms: C_11  and  C_13
REMARK    7  A    between atoms: C_14  and  CA_15
REMARK    8  A    between atoms: CA_15  and  N_16
REMARK    9  A    between atoms: CA_15  and  C_21
REMARK   10  A    between atoms: C_21  and  O_22
REMARK                            x       y       z     vdW  Elec       q    Type
REMARK                         _______ _______ _______ _____ _____    ______ ____
ROOT
ATOM      1  C   UNL     1      33.559 -24.188 -14.386  0.00  0.00    +0.048 C 
ATOM      2  C   UNL     1      30.928 -24.146 -15.249  0.00  0.00    -0.024 C 
ATOM      3  C   UNL     1      33.195 -23.398 -15.476  0.00  0.00    +0.014 C 
ATOM      4  C   UNL     1      32.598 -24.957 -13.730  0.00  0.00    +0.014 C 
ATOM      5  C   UNL     1      31.871 -23.376 -15.911  0.00  0.00    -0.003 C 
ATOM      6  C   UNL     1      31.273 -24.935 -14.165  0.00  0.00    -0.003 C 
ENDROOT
BRANCH   1   7
ATOM      7  N   UNL     1      34.900 -24.211 -13.947  0.00  0.00    -0.305 N 
BRANCH   7   8
ATOM      8  C   UNL     1      35.974 -24.474 -14.882  0.00  0.00    +0.108 C 
BRANCH   8  10
ATOM      9 CL   UNL     1      37.670 -26.584 -14.507  0.00  0.00    -0.112 Cl
ATOM     10  C   UNL     1      36.122 -25.966 -15.138  0.00  0.00    +0.116 C 
ENDBRANCH   8  10
ENDBRANCH   7   8
BRANCH   7  11
ATOM     11  C   UNL     1      35.221 -23.956 -12.556  0.00  0.00    +0.108 C 
BRANCH  11  13
ATOM     12 CL   UNL     1      37.809 -24.345 -11.773  0.00  0.00    -0.112 Cl
ATOM     13  C   UNL     1      36.563 -23.254 -12.425  0.00  0.00    +0.116 C 
ENDBRANCH  11  13
ENDBRANCH   7  11
ENDBRANCH   1   7
BRANCH   2  14
ATOM     14  C   UNL     1      29.491 -24.122 -15.719  0.00  0.00    +0.015 C 
BRANCH  14  15
ATOM     15  CA  UNL     1      29.029 -22.722 -16.153  0.00  0.00    +0.040 C 
BRANCH  15  16
ATOM     16  N   UNL     1      28.536 -21.984 -14.992  0.00  0.00    +0.389 N 
ATOM     17  H1  UNL     1      29.313 -21.497 -14.544  0.00  0.00    -0.088 HD
ATOM     18  H2  UNL     1      28.114 -22.633 -14.329  0.00  0.00    -0.088 HD
ATOM     19  H3  UNL     1      27.838 -21.304 -15.293  0.00  0.00    -0.088 HD
ENDBRANCH  15  16
BRANCH  15  21
ATOM     20  OXT UNL     1      27.524 -23.791 -17.743  0.00  0.00    -0.253 OA
ATOM     21  C   UNL     1      27.882 -22.782 -17.147  0.00  0.00    +0.293 C 
BRANCH  21  22
ATOM     22  O   UNL     1      27.257 -21.585 -17.289  0.00  0.00    -0.482 OA
ATOM     23  H   UNL     1      26.507 -21.512 -17.845  0.00  0.00    +0.295 HD
ENDBRANCH  21  22
ENDBRANCH  15  21
ENDBRANCH  14  15
ENDBRANCH   2  14
TORSDOF 10
ENDMDL
MODEL 9
REMARK VINA RESULT:      -7.0      6.449      9.040
REMARK  Name = 460612
REMARK  10 active torsions:
REMARK  status: ('A' for Active; 'I' for Inactive)
REMARK    1  A    between atoms: C_1  and  N_7
REMARK    2  A    between atoms: C_2  and  C_14
REMARK    3  A    between atoms: N_7  and  C_8
REMARK    4  A    between atoms: N_7  and  C_11
REMARK    5  A    between atoms: C_8  and  C_10
REMARK    6  A    between atoms: C_11  and  C_13
REMARK    7  A    between atoms: C_14  and  CA_15
REMARK    8  A    between atoms: CA_15  and  N_16
REMARK    9  A    between atoms: CA_15  and  C_21
REMARK   10  A    between atoms: C_21  and  O_22
REMARK                            x       y       z     vdW  Elec       q    Type
REMARK                         _______ _______ _______ _____ _____    ______ ____
ROOT
ATOM      1  C   UNL     1      33.456 -15.036 -22.069  0.00  0.00    +0.048 C 
ATOM      2  C   UNL     1      31.985 -12.743 -21.569  0.00  0.00    -0.024 C 
ATOM      3  C   UNL     1      33.072 -14.724 -20.764  0.00  0.00    +0.014 C 
ATOM      4  C   UNL     1      33.100 -14.193 -23.120  0.00  0.00    +0.014 C 
ATOM      5  C   UNL     1      32.331 -13.570 -20.512  0.00  0.00    -0.003 C 
ATOM      6  C   UNL     1      32.359 -13.038 -22.869  0.00  0.00    -0.003 C 
ENDROOT
BRANCH   1   7
ATOM      7  N   UNL     1      34.207 -16.203 -22.323  0.00  0.00    -0.305 N 
BRANCH   7   8
ATOM      8  C   UNL     1      35.077 -16.279 -23.479  0.00  0.00    +0.108 C 
BRANCH   8  10
ATOM      9 CL   UNL     1      34.641 -18.712 -24.644  0.00  0.00    -0.112 Cl
ATOM     10  C   UNL     1      34.374 -16.950 -24.648  0.00  0.00    +0.116 C 
ENDBRANCH   8  10
ENDBRANCH   7   8
BRANCH   7  11
ATOM     11  C   UNL     1      34.128 -17.337 -21.423  0.00  0.00    +0.108 C 
BRANCH  11  13
ATOM     12 CL   UNL     1      35.384 -19.711 -20.923  0.00  0.00    -0.112 Cl
ATOM     13  C   UNL     1      35.499 -17.956 -21.202  0.00  0.00    +0.116 C 
ENDBRANCH  11  13
ENDBRANCH   7  11
ENDBRANCH   1   7
BRANCH   2  14
ATOM     14  C   UNL     1      31.181 -11.492 -21.296  0.00  0.00    +0.015 C 
BRANCH  14  15
ATOM     15  CA  UNL     1      31.774 -10.637 -20.166  0.00  0.00    +0.040 C 
BRANCH  15  16
ATOM     16  N   UNL     1      30.812 -10.530 -19.072  0.00  0.00    +0.389 N 
ATOM     17  H1  UNL     1      29.987 -10.023 -19.392  0.00  0.00    -0.088 HD
ATOM     18  H2  UNL     1      31.237 -10.030 -18.291  0.00  0.00    -0.088 HD
ATOM     19  H3  UNL     1      30.539 -11.465 -18.767  0.00  0.00    -0.088 HD
ENDBRANCH  15  16
BRANCH  15  21
ATOM     20  OXT UNL     1      31.734  -8.741 -21.695  0.00  0.00    -0.253 OA
ATOM     21  C   UNL     1      32.074  -9.219 -20.619  0.00  0.00    +0.293 C 
BRANCH  21  22
ATOM     22  O   UNL     1      32.744  -8.505 -19.678  0.00  0.00    -0.482 OA
ATOM     23  H   UNL     1      33.600  -8.172 -19.865  0.00  0.00    +0.295 HD
ENDBRANCH  21  22
ENDBRANCH  15  21
ENDBRANCH  14  15
ENDBRANCH   2  14
TORSDOF 10
ENDMDL
