MODEL 1
REMARK VINA RESULT:      -5.6      0.000      0.000
REMARK  Name = 12035
REMARK  5 active torsions:
REMARK  status: ('A' for Active; 'I' for Inactive)
REMARK    1  A    between atoms: CA_1  and  N_3
REMARK    2  A    between atoms: CA_1  and  C_8
REMARK    3  A    between atoms: CA_1  and  CB_11
REMARK    4  A    between atoms: C_8  and  O_9
REMARK    5  A    between atoms: CB_11  and  SG_12
REMARK                            x       y       z     vdW  Elec       q    Type
REMARK                         _______ _______ _______ _____ _____    ______ ____
ROOT
ATOM      1  CA  CYS A   1      38.962 -25.219 -14.360  0.00  0.00    +0.182 C 
ENDROOT
BRANCH   1   3
ATOM      2  O   UNK A   0      37.388 -22.803 -14.023  0.00  0.00    -0.275 OA
ATOM      3  N   CYS A   1      38.471 -24.343 -15.395  0.00  0.00    -0.296 N 
ATOM      4  C   UNK A   0      37.721 -23.205 -15.135  0.00  0.00    +0.223 C 
ATOM      5  C   UNK A   0      37.359 -22.460 -16.391  0.00  0.00    +0.095 C 
ATOM      6  H   CYS A   1      38.676 -24.563 -16.332  0.00  0.00    +0.150 HD
ENDBRANCH   1   3
BRANCH   1   8
ATOM      7  OXT CYS A   1      41.016 -26.454 -13.995  0.00  0.00    -0.248 OA
ATOM      8  C   CYS A   1      40.235 -25.935 -14.782  0.00  0.00    +0.333 C 
BRANCH   8   9
ATOM      9  O   CYS A   1      40.431 -25.933 -16.122  0.00  0.00    -0.479 OA
ATOM     10  H   CYS A   1      41.105 -26.464 -16.498  0.00  0.00    +0.295 HD
ENDBRANCH   8   9
ENDBRANCH   1   8
BRANCH   1  11
ATOM     11  CB  CYS A   1      37.884 -26.187 -13.868  0.00  0.00    +0.084 C 
BRANCH  11  12
ATOM     12  SG  CYS A   1      36.770 -26.776 -15.188  0.00  0.00    -0.166 S 
ATOM     13  HG  CYS A   1      35.962 -25.758 -15.587  0.00  0.00    +0.102 HD
ENDBRANCH  11  12
ENDBRANCH   1  11
TORSDOF 5
ENDMDL
MODEL 2
REMARK VINA RESULT:      -5.3      2.212      2.303
REMARK  Name = 12035
REMARK  5 active torsions:
REMARK  status: ('A' for Active; 'I' for Inactive)
REMARK    1  A    between atoms: CA_1  and  N_3
REMARK    2  A    between atoms: CA_1  and  C_8
REMARK    3  A    between atoms: CA_1  and  CB_11
REMARK    4  A    between atoms: C_8  and  O_9
REMARK    5  A    between atoms: CB_11  and  SG_12
REMARK                            x       y       z     vdW  Elec       q    Type
REMARK                         _______ _______ _______ _____ _____    ______ ____
ROOT
ATOM      1  CA  CYS A   1      38.798 -25.619 -14.059  0.00  0.00    +0.182 C 
ENDROOT
BRANCH   1   3
ATOM      2  O   UNK A   0      38.051 -25.062 -11.310  0.00  0.00    -0.275 OA
ATOM      3  N   CYS A   1      38.201 -24.413 -13.541  0.00  0.00    -0.296 N 
ATOM      4  C   UNK A   0      37.877 -24.238 -12.205  0.00  0.00    +0.223 C 
ATOM      5  C   UNK A   0      37.290 -22.879 -11.931  0.00  0.00    +0.095 C 
ATOM      6  H   CYS A   1      38.013 -23.677 -14.167  0.00  0.00    +0.150 HD
ENDBRANCH   1   3
BRANCH   1   8
ATOM      7  OXT CYS A   1      41.010 -24.651 -14.282  0.00  0.00    -0.248 OA
ATOM      8  C   CYS A   1      40.118 -25.342 -14.759  0.00  0.00    +0.333 C 
BRANCH   8   9
ATOM      9  O   CYS A   1      40.211 -25.927 -15.977  0.00  0.00    -0.479 OA
ATOM     10  H   CYS A   1      40.009 -26.836 -16.078  0.00  0.00    +0.295 HD
ENDBRANCH   8   9
ENDBRANCH   1   8
BRANCH   1  11
ATOM     11  CB  CYS A   1      37.825 -26.408 -14.939  0.00  0.00    +0.084 C 
BRANCH  11  12
ATOM     12  SG  CYS A   1      36.168 -25.656 -15.057  0.00  0.00    -0.166 S 
ATOM     13  HG  CYS A   1      36.287 -24.302 -15.103  0.00  0.00    +0.102 HD
ENDBRANCH  11  12
ENDBRANCH   1  11
TORSDOF 5
ENDMDL
MODEL 3
REMARK VINA RESULT:      -5.2      2.809      4.139
REMARK  Name = 12035
REMARK  5 active torsions:
REMARK  status: ('A' for Active; 'I' for Inactive)
REMARK    1  A    between atoms: CA_1  and  N_3
REMARK    2  A    between atoms: CA_1  and  C_8
REMARK    3  A    between atoms: CA_1  and  CB_11
REMARK    4  A    between atoms: C_8  and  O_9
REMARK    5  A    between atoms: CB_11  and  SG_12
REMARK                            x       y       z     vdW  Elec       q    Type
REMARK                         _______ _______ _______ _____ _____    ______ ____
ROOT
ATOM      1  CA  CYS A   1      36.681 -25.008 -13.884  0.00  0.00    +0.182 C 
ENDROOT
BRANCH   1   3
ATOM      2  O   UNK A   0      38.640 -27.023 -14.612  0.00  0.00    -0.275 OA
ATOM      3  N   CYS A   1      38.080 -24.807 -14.170  0.00  0.00    -0.296 N 
ATOM      4  C   UNK A   0      38.943 -25.837 -14.510  0.00  0.00    +0.223 C 
ATOM      5  C   UNK A   0      40.340 -25.347 -14.781  0.00  0.00    +0.095 C 
ATOM      6  H   CYS A   1      38.441 -23.892 -14.120  0.00  0.00    +0.150 HD
ENDBRANCH   1   3
BRANCH   1   8
ATOM      7  OXT CYS A   1      35.338 -24.343 -15.789  0.00  0.00    -0.248 OA
ATOM      8  C   CYS A   1      35.872 -25.240 -15.149  0.00  0.00    +0.333 C 
BRANCH   8   9
ATOM      9  O   CYS A   1      35.785 -26.546 -15.498  0.00  0.00    -0.479 OA
ATOM     10  H   CYS A   1      36.001 -27.213 -14.876  0.00  0.00    +0.295 HD
ENDBRANCH   8   9
ENDBRANCH   1   8
BRANCH   1  11
ATOM     11  CB  CYS A   1      36.105 -23.884 -13.020  0.00  0.00    +0.084 C 
BRANCH  11  12
ATOM     12  SG  CYS A   1      37.332 -23.100 -11.921  0.00  0.00    -0.166 S 
ATOM     13  HG  CYS A   1      36.803 -21.968 -11.386  0.00  0.00    +0.102 HD
ENDBRANCH  11  12
ENDBRANCH   1  11
TORSDOF 5
ENDMDL
MODEL 4
REMARK VINA RESULT:      -5.1      2.721      3.286
REMARK  Name = 12035
REMARK  5 active torsions:
REMARK  status: ('A' for Active; 'I' for Inactive)
REMARK    1  A    between atoms: CA_1  and  N_3
REMARK    2  A    between atoms: CA_1  and  C_8
REMARK    3  A    between atoms: CA_1  and  CB_11
REMARK    4  A    between atoms: C_8  and  O_9
REMARK    5  A    between atoms: CB_11  and  SG_12
REMARK                            x       y       z     vdW  Elec       q    Type
REMARK                         _______ _______ _______ _____ _____    ______ ____
ROOT
ATOM      1  CA  CYS A   1      37.520 -24.527 -13.252  0.00  0.00    +0.182 C 
ENDROOT
BRANCH   1   3
ATOM      2  O   UNK A   0      35.982 -24.304 -15.704  0.00  0.00    -0.275 OA
ATOM      3  N   CYS A   1      37.697 -23.565 -14.312  0.00  0.00    -0.296 N 
ATOM      4  C   UNK A   0      36.909 -23.538 -15.452  0.00  0.00    +0.223 C 
ATOM      5  C   UNK A   0      37.291 -22.419 -16.384  0.00  0.00    +0.095 C 
ATOM      6  H   CYS A   1      38.413 -22.896 -14.222  0.00  0.00    +0.150 HD
ENDBRANCH   1   3
BRANCH   1   8
ATOM      7  OXT CYS A   1      38.739 -23.144 -11.677  0.00  0.00    -0.248 OA
ATOM      8  C   CYS A   1      37.823 -23.929 -11.888  0.00  0.00    +0.333 C 
BRANCH   8   9
ATOM      9  O   CYS A   1      36.984 -24.361 -10.916  0.00  0.00    -0.479 OA
ATOM     10  H   CYS A   1      36.468 -23.745 -10.434  0.00  0.00    +0.295 HD
ENDBRANCH   8   9
ENDBRANCH   1   8
BRANCH   1  11
ATOM     11  CB  CYS A   1      38.303 -25.816 -13.510  0.00  0.00    +0.084 C 
BRANCH  11  12
ATOM     12  SG  CYS A   1      39.926 -25.543 -14.296  0.00  0.00    -0.166 S 
ATOM     13  HG  CYS A   1      39.800 -24.622 -15.288  0.00  0.00    +0.102 HD
ENDBRANCH  11  12
ENDBRANCH   1  11
TORSDOF 5
ENDMDL
MODEL 5
REMARK VINA RESULT:      -5.0      2.389      3.877
REMARK  Name = 12035
REMARK  5 active torsions:
REMARK  status: ('A' for Active; 'I' for Inactive)
REMARK    1  A    between atoms: CA_1  and  N_3
REMARK    2  A    between atoms: CA_1  and  C_8
REMARK    3  A    between atoms: CA_1  and  CB_11
REMARK    4  A    between atoms: C_8  and  O_9
REMARK    5  A    between atoms: CB_11  and  SG_12
REMARK                            x       y       z     vdW  Elec       q    Type
REMARK                         _______ _______ _______ _____ _____    ______ ____
ROOT
ATOM      1  CA  CYS A   1      37.494 -24.350 -13.073  0.00  0.00    +0.182 C 
ENDROOT
BRANCH   1   3
ATOM      2  O   UNK A   0      39.360 -24.202 -15.292  0.00  0.00    -0.275 OA
ATOM      3  N   CYS A   1      38.598 -25.236 -13.350  0.00  0.00    -0.296 N 
ATOM      4  C   UNK A   0      39.439 -25.084 -14.441  0.00  0.00    +0.223 C 
ATOM      5  C   UNK A   0      40.522 -26.129 -14.478  0.00  0.00    +0.095 C 
ATOM      6  H   CYS A   1      38.762 -25.986 -12.734  0.00  0.00    +0.150 HD
ENDBRANCH   1   3
BRANCH   1   8
ATOM      7  OXT CYS A   1      36.897 -24.030 -10.745  0.00  0.00    -0.248 OA
ATOM      8  C   CYS A   1      37.605 -23.720 -11.695  0.00  0.00    +0.333 C 
BRANCH   8   9
ATOM      9  O   CYS A   1      38.561 -22.763 -11.620  0.00  0.00    -0.479 OA
ATOM     10  H   CYS A   1      38.491 -21.988 -12.142  0.00  0.00    +0.295 HD
ENDBRANCH   8   9
ENDBRANCH   1   8
BRANCH   1  11
ATOM     11  CB  CYS A   1      36.142 -25.033 -13.295  0.00  0.00    +0.084 C 
BRANCH  11  12
ATOM     12  SG  CYS A   1      35.441 -24.750 -14.955  0.00  0.00    -0.166 S 
ATOM     13  HG  CYS A   1      35.155 -25.947 -15.535  0.00  0.00    +0.102 HD
ENDBRANCH  11  12
ENDBRANCH   1  11
TORSDOF 5
ENDMDL
MODEL 6
REMARK VINA RESULT:      -5.0      2.600      2.825
REMARK  Name = 12035
REMARK  5 active torsions:
REMARK  status: ('A' for Active; 'I' for Inactive)
REMARK    1  A    between atoms: CA_1  and  N_3
REMARK    2  A    between atoms: CA_1  and  C_8
REMARK    3  A    between atoms: CA_1  and  CB_11
REMARK    4  A    between atoms: C_8  and  O_9
REMARK    5  A    between atoms: CB_11  and  SG_12
REMARK                            x       y       z     vdW  Elec       q    Type
REMARK                         _______ _______ _______ _____ _____    ______ ____
ROOT
ATOM      1  CA  CYS A   1      37.162 -25.111 -14.006  0.00  0.00    +0.182 C 
ENDROOT
BRANCH   1   3
ATOM      2  O   UNK A   0      38.638 -23.261 -15.686  0.00  0.00    -0.275 OA
ATOM      3  N   CYS A   1      36.621 -24.113 -14.896  0.00  0.00    -0.296 N 
ATOM      4  C   UNK A   0      37.410 -23.270 -15.662  0.00  0.00    +0.223 C 
ATOM      5  C   UNK A   0      36.591 -22.343 -16.519  0.00  0.00    +0.095 C 
ATOM      6  H   CYS A   1      35.643 -24.026 -14.961  0.00  0.00    +0.150 HD
ENDBRANCH   1   3
BRANCH   1   8
ATOM      7  OXT CYS A   1      38.185 -27.198 -14.697  0.00  0.00    -0.248 OA
ATOM      8  C   CYS A   1      37.188 -26.488 -14.648  0.00  0.00    +0.333 C 
BRANCH   8   9
ATOM      9  O   CYS A   1      35.996 -26.855 -15.177  0.00  0.00    -0.479 OA
ATOM     10  H   CYS A   1      35.957 -27.539 -15.816  0.00  0.00    +0.295 HD
ENDBRANCH   8   9
ENDBRANCH   1   8
BRANCH   1  11
ATOM     11  CB  CYS A   1      36.454 -25.113 -12.649  0.00  0.00    +0.084 C 
BRANCH  11  12
ATOM     12  SG  CYS A   1      36.658 -23.561 -11.713  0.00  0.00    -0.166 S 
ATOM     13  HG  CYS A   1      37.981 -23.265 -11.610  0.00  0.00    +0.102 HD
ENDBRANCH  11  12
ENDBRANCH   1  11
TORSDOF 5
ENDMDL
MODEL 7
REMARK VINA RESULT:      -5.0     10.349     11.291
REMARK  Name = 12035
REMARK  5 active torsions:
REMARK  status: ('A' for Active; 'I' for Inactive)
REMARK    1  A    between atoms: CA_1  and  N_3
REMARK    2  A    between atoms: CA_1  and  C_8
REMARK    3  A    between atoms: CA_1  and  CB_11
REMARK    4  A    between atoms: C_8  and  O_9
REMARK    5  A    between atoms: CB_11  and  SG_12
REMARK                            x       y       z     vdW  Elec       q    Type
REMARK                         _______ _______ _______ _____ _____    ______ ____
ROOT
ATOM      1  CA  CYS A   1      35.170 -17.579 -21.581  0.00  0.00    +0.182 C 
ENDROOT
BRANCH   1   3
ATOM      2  O   UNK A   0      35.005 -14.869 -20.553  0.00  0.00    -0.275 OA
ATOM      3  N   CYS A   1      33.983 -16.867 -21.176  0.00  0.00    -0.296 N 
ATOM      4  C   UNK A   0      34.004 -15.568 -20.694  0.00  0.00    +0.223 C 
ATOM      5  C   UNK A   0      32.626 -15.056 -20.368  0.00  0.00    +0.095 C 
ATOM      6  H   CYS A   1      33.116 -17.327 -21.244  0.00  0.00    +0.150 HD
ENDBRANCH   1   3
BRANCH   1   8
ATOM      7  OXT CYS A   1      35.392 -18.402 -23.851  0.00  0.00    -0.248 OA
ATOM      8  C   CYS A   1      35.423 -17.456 -23.075  0.00  0.00    +0.333 C 
BRANCH   8   9
ATOM      9  O   CYS A   1      35.702 -16.189 -23.467  0.00  0.00    -0.479 OA
ATOM     10  H   CYS A   1      36.580 -15.867 -23.423  0.00  0.00    +0.295 HD
ENDBRANCH   8   9
ENDBRANCH   1   8
BRANCH   1  11
ATOM     11  CB  CYS A   1      35.154 -19.035 -21.111  0.00  0.00    +0.084 C 
BRANCH  11  12
ATOM     12  SG  CYS A   1      33.476 -19.725 -20.916  0.00  0.00    -0.166 S 
ATOM     13  HG  CYS A   1      33.548 -21.082 -20.863  0.00  0.00    +0.102 HD
ENDBRANCH  11  12
ENDBRANCH   1  11
TORSDOF 5
ENDMDL
MODEL 8
REMARK VINA RESULT:      -5.0      3.367      4.532
REMARK  Name = 12035
REMARK  5 active torsions:
REMARK  status: ('A' for Active; 'I' for Inactive)
REMARK    1  A    between atoms: CA_1  and  N_3
REMARK    2  A    between atoms: CA_1  and  C_8
REMARK    3  A    between atoms: CA_1  and  CB_11
REMARK    4  A    between atoms: C_8  and  O_9
REMARK    5  A    between atoms: CB_11  and  SG_12
REMARK                            x       y       z     vdW  Elec       q    Type
REMARK                         _______ _______ _______ _____ _____    ______ ____
ROOT
ATOM      1  CA  CYS A   1      36.362 -23.593 -12.771  0.00  0.00    +0.182 C 
ENDROOT
BRANCH   1   3
ATOM      2  O   UNK A   0      36.966 -26.348 -12.084  0.00  0.00    -0.275 OA
ATOM      3  N   CYS A   1      36.902 -24.612 -13.636  0.00  0.00    -0.296 N 
ATOM      4  C   UNK A   0      37.159 -25.908 -13.215  0.00  0.00    +0.223 C 
ATOM      5  C   UNK A   0      37.696 -26.773 -14.324  0.00  0.00    +0.095 C 
ATOM      6  H   CYS A   1      37.099 -24.377 -14.571  0.00  0.00    +0.150 HD
ENDBRANCH   1   3
BRANCH   1   8
ATOM      7  OXT CYS A   1      38.335 -22.766 -11.629  0.00  0.00    -0.248 OA
ATOM      8  C   CYS A   1      37.254 -23.339 -11.567  0.00  0.00    +0.333 C 
BRANCH   8   9
ATOM      9  O   CYS A   1      36.742 -23.824 -10.410  0.00  0.00    -0.479 OA
ATOM     10  H   CYS A   1      35.990 -23.420 -10.024  0.00  0.00    +0.295 HD
ENDBRANCH   8   9
ENDBRANCH   1   8
BRANCH   1  11
ATOM     11  CB  CYS A   1      34.914 -23.888 -12.372  0.00  0.00    +0.084 C 
BRANCH  11  12
ATOM     12  SG  CYS A   1      33.801 -24.151 -13.792  0.00  0.00    -0.166 S 
ATOM     13  HG  CYS A   1      33.053 -25.268 -13.581  0.00  0.00    +0.102 HD
ENDBRANCH  11  12
ENDBRANCH   1  11
TORSDOF 5
ENDMDL
MODEL 9
REMARK VINA RESULT:      -5.0      3.103      3.418
REMARK  Name = 12035
REMARK  5 active torsions:
REMARK  status: ('A' for Active; 'I' for Inactive)
REMARK    1  A    between atoms: CA_1  and  N_3
REMARK    2  A    between atoms: CA_1  and  C_8
REMARK    3  A    between atoms: CA_1  and  CB_11
REMARK    4  A    between atoms: C_8  and  O_9
REMARK    5  A    between atoms: CB_11  and  SG_12
REMARK                            x       y       z     vdW  Elec       q    Type
REMARK                         _______ _______ _______ _____ _____    ______ ____
ROOT
ATOM      1  CA  CYS A   1      36.625 -25.474 -14.267  0.00  0.00    +0.182 C 
ENDROOT
BRANCH   1   3
ATOM      2  O   UNK A   0      35.460 -22.861 -14.762  0.00  0.00    -0.275 OA
ATOM      3  N   CYS A   1      35.229 -25.158 -14.450  0.00  0.00    -0.296 N 
ATOM      4  C   UNK A   0      34.766 -23.872 -14.682  0.00  0.00    +0.223 C 
ATOM      5  C   UNK A   0      33.272 -23.826 -14.860  0.00  0.00    +0.095 C 
ATOM      6  H   CYS A   1      34.574 -25.890 -14.407  0.00  0.00    +0.150 HD
ENDBRANCH   1   3
BRANCH   1   8
ATOM      7  OXT CYS A   1      36.394 -27.107 -16.044  0.00  0.00    -0.248 OA
ATOM      8  C   CYS A   1      37.051 -26.665 -15.111  0.00  0.00    +0.333 C 
BRANCH   8   9
ATOM      9  O   CYS A   1      38.231 -27.203 -14.719  0.00  0.00    -0.479 OA
ATOM     10  H   CYS A   1      38.241 -27.955 -14.160  0.00  0.00    +0.295 HD
ENDBRANCH   8   9
ENDBRANCH   1   8
BRANCH   1  11
ATOM     11  CB  CYS A   1      36.985 -25.647 -12.790  0.00  0.00    +0.084 C 
BRANCH  11  12
ATOM     12  SG  CYS A   1      37.969 -24.270 -12.109  0.00  0.00    -0.166 S 
ATOM     13  HG  CYS A   1      37.155 -23.436 -11.408  0.00  0.00    +0.102 HD
ENDBRANCH  11  12
ENDBRANCH   1  11
TORSDOF 5
ENDMDL
