MODEL 1
REMARK VINA RESULT:      -5.5      0.000      0.000
REMARK  Name = 4843
REMARK  2 active torsions:
REMARK  status: ('A' for Active; 'I' for Inactive)
REMARK    1  A    between atoms: N_2  and  C_7
REMARK    2  A    between atoms: C_7  and  C_10
REMARK                            x       y       z     vdW  Elec       q    Type
REMARK                         _______ _______ _______ _____ _____    ______ ____
ROOT
ATOM      1  O   UNL     1      36.591 -19.898 -20.220  0.00  0.00    -0.275 OA
ATOM      2  N   UNL     1      34.332 -19.537 -20.776  0.00  0.00    -0.271 N 
ATOM      3  C   UNL     1      33.093 -20.271 -20.667  0.00  0.00    +0.094 C 
ATOM      4  C   UNL     1      33.380 -21.269 -19.563  0.00  0.00    +0.031 C 
ATOM      5  C   UNL     1      34.877 -21.527 -19.683  0.00  0.00    +0.087 C 
ATOM      6  C   UNL     1      35.414 -20.226 -20.231  0.00  0.00    +0.226 C 
ENDROOT
BRANCH   2   7
ATOM      7  C   UNL     1      34.412 -18.290 -21.503  0.00  0.00    +0.179 C 
BRANCH   7  10
ATOM      8  O   UNL     1      34.473 -19.096 -23.786  0.00  0.00    -0.273 OA
ATOM      9  N   UNL     1      36.344 -18.084 -22.914  0.00  0.00    -0.327 N 
ATOM     10  C   UNL     1      35.041 -18.529 -22.856  0.00  0.00    +0.240 C 
ATOM     11  H   UNL     1      36.862 -18.183 -23.746  0.00  0.00    +0.145 HD
ATOM     12  H   UNL     1      36.757 -17.666 -22.125  0.00  0.00    +0.145 HD
ENDBRANCH   7  10
ENDBRANCH   2   7
TORSDOF 2
ENDMDL
MODEL 2
REMARK VINA RESULT:      -5.4      6.968      8.514
REMARK  Name = 4843
REMARK  2 active torsions:
REMARK  status: ('A' for Active; 'I' for Inactive)
REMARK    1  A    between atoms: N_2  and  C_7
REMARK    2  A    between atoms: C_7  and  C_10
REMARK                            x       y       z     vdW  Elec       q    Type
REMARK                         _______ _______ _______ _____ _____    ______ ____
ROOT
ATOM      1  O   UNL     1      38.752 -23.916 -15.004  0.00  0.00    -0.275 OA
ATOM      2  N   UNL     1      36.413 -24.079 -15.207  0.00  0.00    -0.271 N 
ATOM      3  C   UNL     1      35.349 -23.282 -15.773  0.00  0.00    +0.094 C 
ATOM      4  C   UNL     1      36.070 -22.414 -16.784  0.00  0.00    +0.031 C 
ATOM      5  C   UNL     1      37.463 -22.241 -16.191  0.00  0.00    +0.087 C 
ATOM      6  C   UNL     1      37.671 -23.516 -15.407  0.00  0.00    +0.226 C 
ENDROOT
BRANCH   2   7
ATOM      7  C   UNL     1      36.137 -25.255 -14.411  0.00  0.00    +0.179 C 
BRANCH   7  10
ATOM      8  O   UNL     1      36.327 -27.007 -16.073  0.00  0.00    -0.273 OA
ATOM      9  N   UNL     1      37.854 -26.933 -14.356  0.00  0.00    -0.327 N 
ATOM     10  C   UNL     1      36.765 -26.468 -15.060  0.00  0.00    +0.240 C 
ATOM     11  H   UNL     1      38.350 -27.720 -14.679  0.00  0.00    +0.145 HD
ATOM     12  H   UNL     1      38.138 -26.478 -13.531  0.00  0.00    +0.145 HD
ENDBRANCH   7  10
ENDBRANCH   2   7
TORSDOF 2
ENDMDL
MODEL 3
REMARK VINA RESULT:      -5.4      4.096      5.269
REMARK  Name = 4843
REMARK  2 active torsions:
REMARK  status: ('A' for Active; 'I' for Inactive)
REMARK    1  A    between atoms: N_2  and  C_7
REMARK    2  A    between atoms: C_7  and  C_10
REMARK                            x       y       z     vdW  Elec       q    Type
REMARK                         _______ _______ _______ _____ _____    ______ ____
ROOT
ATOM      1  O   UNL     1      34.176 -16.106 -25.979  0.00  0.00    -0.275 OA
ATOM      2  N   UNL     1      34.638 -16.411 -23.691  0.00  0.00    -0.271 N 
ATOM      3  C   UNL     1      34.796 -17.529 -22.791  0.00  0.00    +0.094 C 
ATOM      4  C   UNL     1      35.140 -18.674 -23.722  0.00  0.00    +0.031 C 
ATOM      5  C   UNL     1      34.424 -18.319 -25.020  0.00  0.00    +0.087 C 
ATOM      6  C   UNL     1      34.405 -16.808 -25.006  0.00  0.00    +0.226 C 
ENDROOT
BRANCH   2   7
ATOM      7  C   UNL     1      34.598 -15.049 -23.207  0.00  0.00    +0.179 C 
BRANCH   7  10
ATOM      8  O   UNL     1      32.420 -14.914 -22.158  0.00  0.00    -0.273 OA
ATOM      9  N   UNL     1      32.762 -13.824 -24.152  0.00  0.00    -0.327 N 
ATOM     10  C   UNL     1      33.162 -14.595 -23.082  0.00  0.00    +0.240 C 
ATOM     11  H   UNL     1      31.845 -13.466 -24.187  0.00  0.00    +0.145 HD
ATOM     12  H   UNL     1      33.393 -13.628 -24.882  0.00  0.00    +0.145 HD
ENDBRANCH   7  10
ENDBRANCH   2   7
TORSDOF 2
ENDMDL
MODEL 4
REMARK VINA RESULT:      -5.3      9.230     10.381
REMARK  Name = 4843
REMARK  2 active torsions:
REMARK  status: ('A' for Active; 'I' for Inactive)
REMARK    1  A    between atoms: N_2  and  C_7
REMARK    2  A    between atoms: C_7  and  C_10
REMARK                            x       y       z     vdW  Elec       q    Type
REMARK                         _______ _______ _______ _____ _____    ______ ____
ROOT
ATOM      1  O   UNL     1      36.835 -26.189 -11.679  0.00  0.00    -0.275 OA
ATOM      2  N   UNL     1      36.548 -24.656 -13.443  0.00  0.00    -0.271 N 
ATOM      3  C   UNL     1      36.833 -24.618 -14.858  0.00  0.00    +0.094 C 
ATOM      4  C   UNL     1      36.934 -26.084 -15.228  0.00  0.00    +0.031 C 
ATOM      5  C   UNL     1      37.448 -26.748 -13.957  0.00  0.00    +0.087 C 
ATOM      6  C   UNL     1      36.898 -25.870 -12.857  0.00  0.00    +0.226 C 
ENDROOT
BRANCH   2   7
ATOM      7  C   UNL     1      36.078 -23.487 -12.733  0.00  0.00    +0.179 C 
BRANCH   7  10
ATOM      8  O   UNL     1      38.178 -22.522 -12.008  0.00  0.00    -0.273 OA
ATOM      9  N   UNL     1      36.748 -23.386 -10.429  0.00  0.00    -0.327 N 
ATOM     10  C   UNL     1      37.112 -23.059 -11.717  0.00  0.00    +0.240 C 
ATOM     11  H   UNL     1      37.340 -23.159  -9.676  0.00  0.00    +0.145 HD
ATOM     12  H   UNL     1      35.894 -23.847 -10.261  0.00  0.00    +0.145 HD
ENDBRANCH   7  10
ENDBRANCH   2   7
TORSDOF 2
ENDMDL
MODEL 5
REMARK VINA RESULT:      -5.3      9.665     10.275
REMARK  Name = 4843
REMARK  2 active torsions:
REMARK  status: ('A' for Active; 'I' for Inactive)
REMARK    1  A    between atoms: N_2  and  C_7
REMARK    2  A    between atoms: C_7  and  C_10
REMARK                            x       y       z     vdW  Elec       q    Type
REMARK                         _______ _______ _______ _____ _____    ______ ____
ROOT
ATOM      1  O   UNL     1      39.078 -23.261 -11.658  0.00  0.00    -0.275 OA
ATOM      2  N   UNL     1      37.783 -24.861 -12.799  0.00  0.00    -0.271 N 
ATOM      3  C   UNL     1      36.378 -25.134 -12.989  0.00  0.00    +0.094 C 
ATOM      4  C   UNL     1      35.726 -23.796 -12.705  0.00  0.00    +0.031 C 
ATOM      5  C   UNL     1      36.657 -23.143 -11.690  0.00  0.00    +0.087 C 
ATOM      6  C   UNL     1      38.010 -23.718 -12.036  0.00  0.00    +0.226 C 
ENDROOT
BRANCH   2   7
ATOM      7  C   UNL     1      38.802 -25.782 -13.254  0.00  0.00    +0.179 C 
BRANCH   7  10
ATOM      8  O   UNL     1      40.823 -24.871 -14.231  0.00  0.00    -0.273 OA
ATOM      9  N   UNL     1      38.874 -24.811 -15.450  0.00  0.00    -0.327 N 
ATOM     10  C   UNL     1      39.627 -25.130 -14.340  0.00  0.00    +0.240 C 
ATOM     11  H   UNL     1      39.299 -24.381 -16.227  0.00  0.00    +0.145 HD
ATOM     12  H   UNL     1      37.911 -25.014 -15.466  0.00  0.00    +0.145 HD
ENDBRANCH   7  10
ENDBRANCH   2   7
TORSDOF 2
ENDMDL
MODEL 6
REMARK VINA RESULT:      -5.3      1.778      2.337
REMARK  Name = 4843
REMARK  2 active torsions:
REMARK  status: ('A' for Active; 'I' for Inactive)
REMARK    1  A    between atoms: N_2  and  C_7
REMARK    2  A    between atoms: C_7  and  C_10
REMARK                            x       y       z     vdW  Elec       q    Type
REMARK                         _______ _______ _______ _____ _____    ______ ____
ROOT
ATOM      1  O   UNL     1      32.610 -20.870 -20.029  0.00  0.00    -0.275 OA
ATOM      2  N   UNL     1      34.701 -20.078 -20.766  0.00  0.00    -0.271 N 
ATOM      3  C   UNL     1      36.086 -20.287 -20.415  0.00  0.00    +0.094 C 
ATOM      4  C   UNL     1      36.066 -21.631 -19.717  0.00  0.00    +0.031 C 
ATOM      5  C   UNL     1      34.684 -21.691 -19.078  0.00  0.00    +0.087 C 
ATOM      6  C   UNL     1      33.832 -20.861 -20.009  0.00  0.00    +0.226 C 
ENDROOT
BRANCH   2   7
ATOM      7  C   UNL     1      34.304 -19.057 -21.710  0.00  0.00    +0.179 C 
BRANCH   7  10
ATOM      8  O   UNL     1      35.267 -17.120 -20.620  0.00  0.00    -0.273 OA
ATOM      9  N   UNL     1      35.995 -17.687 -22.725  0.00  0.00    -0.327 N 
ATOM     10  C   UNL     1      35.231 -17.868 -21.593  0.00  0.00    +0.240 C 
ATOM     11  H   UNL     1      36.640 -16.944 -22.772  0.00  0.00    +0.145 HD
ATOM     12  H   UNL     1      35.898 -18.301 -23.488  0.00  0.00    +0.145 HD
ENDBRANCH   7  10
ENDBRANCH   2   7
TORSDOF 2
ENDMDL
MODEL 7
REMARK VINA RESULT:      -5.2      2.478      4.394
REMARK  Name = 4843
REMARK  2 active torsions:
REMARK  status: ('A' for Active; 'I' for Inactive)
REMARK    1  A    between atoms: N_2  and  C_7
REMARK    2  A    between atoms: C_7  and  C_10
REMARK                            x       y       z     vdW  Elec       q    Type
REMARK                         _______ _______ _______ _____ _____    ______ ____
ROOT
ATOM      1  O   UNL     1      35.103 -16.353 -20.206  0.00  0.00    -0.275 OA
ATOM      2  N   UNL     1      35.243 -16.884 -22.495  0.00  0.00    -0.271 N 
ATOM      3  C   UNL     1      34.725 -16.348 -23.732  0.00  0.00    +0.094 C 
ATOM      4  C   UNL     1      34.409 -14.909 -23.377  0.00  0.00    +0.031 C 
ATOM      5  C   UNL     1      34.053 -14.967 -21.896  0.00  0.00    +0.087 C 
ATOM      6  C   UNL     1      34.872 -16.129 -21.385  0.00  0.00    +0.226 C 
ENDROOT
BRANCH   2   7
ATOM      7  C   UNL     1      35.948 -18.147 -22.454  0.00  0.00    +0.179 C 
BRANCH   7  10
ATOM      8  O   UNL     1      34.039 -19.568 -22.002  0.00  0.00    -0.273 OA
ATOM      9  N   UNL     1      35.767 -19.512 -20.487  0.00  0.00    -0.327 N 
ATOM     10  C   UNL     1      35.143 -19.153 -21.662  0.00  0.00    +0.240 C 
ATOM     11  H   UNL     1      35.342 -20.163 -19.882  0.00  0.00    +0.145 HD
ATOM     12  H   UNL     1      36.638 -19.120 -20.251  0.00  0.00    +0.145 HD
ENDBRANCH   7  10
ENDBRANCH   2   7
TORSDOF 2
ENDMDL
MODEL 8
REMARK VINA RESULT:      -5.2      7.701      8.678
REMARK  Name = 4843
REMARK  2 active torsions:
REMARK  status: ('A' for Active; 'I' for Inactive)
REMARK    1  A    between atoms: N_2  and  C_7
REMARK    2  A    between atoms: C_7  and  C_10
REMARK                            x       y       z     vdW  Elec       q    Type
REMARK                         _______ _______ _______ _____ _____    ______ ____
ROOT
ATOM      1  O   UNL     1      31.031 -22.571 -17.141  0.00  0.00    -0.275 OA
ATOM      2  N   UNL     1      29.926 -23.949 -15.585  0.00  0.00    -0.271 N 
ATOM      3  C   UNL     1      30.174 -24.434 -14.247  0.00  0.00    +0.094 C 
ATOM      4  C   UNL     1      31.163 -23.427 -13.696  0.00  0.00    +0.031 C 
ATOM      5  C   UNL     1      31.934 -22.958 -14.924  0.00  0.00    +0.087 C 
ATOM      6  C   UNL     1      30.926 -23.094 -16.041  0.00  0.00    +0.226 C 
ENDROOT
BRANCH   2   7
ATOM      7  C   UNL     1      28.816 -24.437 -16.373  0.00  0.00    +0.179 C 
BRANCH   7  10
ATOM      8  O   UNL     1      27.629 -23.041 -17.957  0.00  0.00    -0.273 OA
ATOM      9  N   UNL     1      27.576 -22.485 -15.727  0.00  0.00    -0.327 N 
ATOM     10  C   UNL     1      27.941 -23.278 -16.794  0.00  0.00    +0.240 C 
ATOM     11  H   UNL     1      27.005 -21.696 -15.873  0.00  0.00    +0.145 HD
ATOM     12  H   UNL     1      27.886 -22.707 -14.820  0.00  0.00    +0.145 HD
ENDBRANCH   7  10
ENDBRANCH   2   7
TORSDOF 2
ENDMDL
MODEL 9
REMARK VINA RESULT:      -5.1      2.425      4.883
REMARK  Name = 4843
REMARK  2 active torsions:
REMARK  status: ('A' for Active; 'I' for Inactive)
REMARK    1  A    between atoms: N_2  and  C_7
REMARK    2  A    between atoms: C_7  and  C_10
REMARK                            x       y       z     vdW  Elec       q    Type
REMARK                         _______ _______ _______ _____ _____    ______ ____
ROOT
ATOM      1  O   UNL     1      34.574 -17.830 -25.663  0.00  0.00    -0.275 OA
ATOM      2  N   UNL     1      35.052 -17.094 -23.478  0.00  0.00    -0.271 N 
ATOM      3  C   UNL     1      34.835 -15.896 -22.702  0.00  0.00    +0.094 C 
ATOM      4  C   UNL     1      33.677 -15.228 -23.417  0.00  0.00    +0.031 C 
ATOM      5  C   UNL     1      33.846 -15.658 -24.869  0.00  0.00    +0.087 C 
ATOM      6  C   UNL     1      34.509 -17.011 -24.758  0.00  0.00    +0.226 C 
ENDROOT
BRANCH   2   7
ATOM      7  C   UNL     1      35.868 -18.180 -22.983  0.00  0.00    +0.179 C 
BRANCH   7  10
ATOM      8  O   UNL     1      34.065 -19.442 -21.971  0.00  0.00    -0.273 OA
ATOM      9  N   UNL     1      35.829 -18.774 -20.656  0.00  0.00    -0.327 N 
ATOM     10  C   UNL     1      35.151 -18.881 -21.851  0.00  0.00    +0.240 C 
ATOM     11  H   UNL     1      35.462 -19.190 -19.842  0.00  0.00    +0.145 HD
ATOM     12  H   UNL     1      36.680 -18.282 -20.615  0.00  0.00    +0.145 HD
ENDBRANCH   7  10
ENDBRANCH   2   7
TORSDOF 2
ENDMDL
