MODEL 1
REMARK VINA RESULT:      -9.7      0.000      0.000
REMARK  Name = 25195339
REMARK  8 active torsions:
REMARK  status: ('A' for Active; 'I' for Inactive)
REMARK    1  A    between atoms: C_3  and  O_8
REMARK    2  A    between atoms: C_4  and  O_10
REMARK    3  A    between atoms: C_5  and  C_25
REMARK    4  A    between atoms: C_7  and  O_12
REMARK    5  A    between atoms: O_12  and  C_13
REMARK    6  A    between atoms: C_14  and  N_21
REMARK    7  A    between atoms: C_18  and  N_24
REMARK    8  A    between atoms: C_25  and  O_26
REMARK                            x       y       z     vdW  Elec       q    Type
REMARK                         _______ _______ _______ _____ _____    ______ ____
ROOT
ATOM      1  F   UNL     1      37.546 -24.455 -15.363  0.00  0.00    -0.228 F 
ATOM      2  O   UNL     1      35.427 -24.094 -13.590  0.00  0.00    -0.316 OA
ATOM      3  C   UNL     1      37.113 -25.659 -12.773  0.00  0.00    +0.170 C 
ATOM      4  C   UNL     1      37.086 -26.383 -14.120  0.00  0.00    +0.179 C 
ATOM      5  C   UNL     1      35.770 -24.966 -12.509  0.00  0.00    +0.177 C 
ATOM      6  C   UNL     1      36.613 -25.444 -15.219  0.00  0.00    +0.259 C 
ATOM      7  C   UNL     1      35.295 -24.783 -14.835  0.00  0.00    +0.324 C 
ENDROOT
BRANCH   3   8
ATOM      8  O   UNL     1      37.362 -26.599 -11.730  0.00  0.00    -0.379 OA
ATOM      9  H   UNL     1      37.657 -27.439 -12.116  0.00  0.00    +0.211 HD
ENDBRANCH   3   8
BRANCH   4  10
ATOM     10  O   UNL     1      38.384 -26.858 -14.460  0.00  0.00    -0.379 OA
ATOM     11  H   UNL     1      38.606 -26.576 -15.360  0.00  0.00    +0.211 HD
ENDBRANCH   4  10
BRANCH   7  12
ATOM     12  O   UNL     1      34.931 -23.882 -15.876  0.00  0.00    -0.449 OA
BRANCH  12  13
ATOM     13  C   UNL     1      33.605 -23.548 -15.965  0.00  0.00    +0.164 C 
ATOM     14  C   UNL     1      33.045 -23.140 -17.175  0.00  0.00    +0.178 C 
ATOM     15  C   UNL     1      32.813 -23.623 -14.819  0.00  0.00    +0.040 C 
ATOM     16  C   UNL     1      31.692 -22.807 -17.240  0.00  0.00    +0.051 C 
ATOM     17  C   UNL     1      31.460 -23.289 -14.885  0.00  0.00    +0.027 C 
ATOM     18  C   UNL     1      30.900 -22.881 -16.095  0.00  0.00    +0.145 C 
BRANCH  14  21
ATOM     19  O   UNL     1      34.490 -22.010 -18.573  0.00  0.00    -0.126 OA
ATOM     20  O   UNL     1      33.864 -24.038 -19.135  0.00  0.00    -0.126 OA
ATOM     21  N   UNL     1      33.839 -23.059 -18.352  0.00  0.00    +0.061 N 
ENDBRANCH  14  21
BRANCH  18  24
ATOM     22  O   UNL     1      28.913 -22.266 -15.099  0.00  0.00    -0.126 OA
ATOM     23  O   UNL     1      28.953 -22.526 -17.280  0.00  0.00    -0.126 OA
ATOM     24  N   UNL     1      29.523 -22.542 -16.162  0.00  0.00    +0.058 N 
ENDBRANCH  18  24
ENDBRANCH  12  13
ENDBRANCH   7  12
BRANCH   5  25
ATOM     25  C   UNL     1      35.812 -24.124 -11.238  0.00  0.00    +0.169 C 
BRANCH  25  26
ATOM     26  O   UNL     1      35.352 -24.915 -10.158  0.00  0.00    -0.379 OA
ATOM     27  H   UNL     1      35.545 -25.849 -10.336  0.00  0.00    +0.211 HD
ENDBRANCH  25  26
ENDBRANCH   5  25
TORSDOF 8
ENDMDL
MODEL 2
REMARK VINA RESULT:      -9.2      3.189      7.431
REMARK  Name = 25195339
REMARK  8 active torsions:
REMARK  status: ('A' for Active; 'I' for Inactive)
REMARK    1  A    between atoms: C_3  and  O_8
REMARK    2  A    between atoms: C_4  and  O_10
REMARK    3  A    between atoms: C_5  and  C_25
REMARK    4  A    between atoms: C_7  and  O_12
REMARK    5  A    between atoms: O_12  and  C_13
REMARK    6  A    between atoms: C_14  and  N_21
REMARK    7  A    between atoms: C_18  and  N_24
REMARK    8  A    between atoms: C_25  and  O_26
REMARK                            x       y       z     vdW  Elec       q    Type
REMARK                         _______ _______ _______ _____ _____    ______ ____
ROOT
ATOM      1  F   UNL     1      32.347 -23.107 -12.721  0.00  0.00    -0.228 F 
ATOM      2  O   UNL     1      33.410 -23.235 -15.294  0.00  0.00    -0.316 OA
ATOM      3  C   UNL     1      31.138 -24.116 -15.143  0.00  0.00    +0.170 C 
ATOM      4  C   UNL     1      31.548 -24.947 -13.925  0.00  0.00    +0.179 C 
ATOM      5  C   UNL     1      32.352 -23.845 -16.040  0.00  0.00    +0.177 C 
ATOM      6  C   UNL     1      32.742 -24.314 -13.227  0.00  0.00    +0.259 C 
ATOM      7  C   UNL     1      33.870 -24.053 -14.217  0.00  0.00    +0.324 C 
ENDROOT
BRANCH   3   8
ATOM      8  O   UNL     1      30.155 -24.824 -15.895  0.00  0.00    -0.379 OA
ATOM      9  H   UNL     1      29.431 -24.222 -16.128  0.00  0.00    +0.211 HD
ENDBRANCH   3   8
BRANCH   4  10
ATOM     10  O   UNL     1      30.475 -25.033 -12.994  0.00  0.00    -0.379 OA
ATOM     11  H   UNL     1      30.519 -24.286 -12.378  0.00  0.00    +0.211 HD
ENDBRANCH   4  10
BRANCH   7  12
ATOM     12  O   UNL     1      34.936 -23.417 -13.518  0.00  0.00    -0.449 OA
BRANCH  12  13
ATOM     13  C   UNL     1      36.186 -23.949 -13.686  0.00  0.00    +0.164 C 
ATOM     14  C   UNL     1      36.900 -24.468 -12.606  0.00  0.00    +0.178 C 
ATOM     15  C   UNL     1      36.745 -23.969 -14.965  0.00  0.00    +0.040 C 
ATOM     16  C   UNL     1      38.172 -25.005 -12.803  0.00  0.00    +0.051 C 
ATOM     17  C   UNL     1      38.017 -24.506 -15.161  0.00  0.00    +0.027 C 
ATOM     18  C   UNL     1      38.730 -25.024 -14.081  0.00  0.00    +0.145 C 
BRANCH  14  21
ATOM     19  O   UNL     1      35.427 -25.263 -11.020  0.00  0.00    -0.126 OA
ATOM     20  O   UNL     1      36.789 -23.636 -10.458  0.00  0.00    -0.126 OA
ATOM     21  N   UNL     1      36.345 -24.456 -11.296  0.00  0.00    +0.061 N 
ENDBRANCH  14  21
BRANCH  18  24
ATOM     22  O   UNL     1      41.027 -24.831 -14.130  0.00  0.00    -0.126 OA
ATOM     23  O   UNL     1      40.131 -26.780 -14.603  0.00  0.00    -0.126 OA
ATOM     24  N   UNL     1      40.025 -25.572 -14.282  0.00  0.00    +0.058 N 
ENDBRANCH  18  24
ENDBRANCH  12  13
ENDBRANCH   7  12
BRANCH   5  25
ATOM     25  C   UNL     1      32.003 -22.906 -17.191  0.00  0.00    +0.169 C 
BRANCH  25  26
ATOM     26  O   UNL     1      30.689 -22.419 -16.993  0.00  0.00    -0.379 OA
ATOM     27  H   UNL     1      30.204 -23.025 -16.410  0.00  0.00    +0.211 HD
ENDBRANCH  25  26
ENDBRANCH   5  25
TORSDOF 8
ENDMDL
MODEL 3
REMARK VINA RESULT:      -8.9     10.261     13.659
REMARK  Name = 25195339
REMARK  8 active torsions:
REMARK  status: ('A' for Active; 'I' for Inactive)
REMARK    1  A    between atoms: C_3  and  O_8
REMARK    2  A    between atoms: C_4  and  O_10
REMARK    3  A    between atoms: C_5  and  C_25
REMARK    4  A    between atoms: C_7  and  O_12
REMARK    5  A    between atoms: O_12  and  C_13
REMARK    6  A    between atoms: C_14  and  N_21
REMARK    7  A    between atoms: C_18  and  N_24
REMARK    8  A    between atoms: C_25  and  O_26
REMARK                            x       y       z     vdW  Elec       q    Type
REMARK                         _______ _______ _______ _____ _____    ______ ____
ROOT
ATOM      1  F   UNL     1      32.980 -13.236 -25.395  0.00  0.00    -0.228 F 
ATOM      2  O   UNL     1      32.220 -13.311 -22.716  0.00  0.00    -0.316 OA
ATOM      3  C   UNL     1      32.829 -11.075 -23.484  0.00  0.00    +0.170 C 
ATOM      4  C   UNL     1      34.108 -11.643 -24.104  0.00  0.00    +0.179 C 
ATOM      5  C   UNL     1      32.370 -11.948 -22.309  0.00  0.00    +0.177 C 
ATOM      6  C   UNL     1      33.934 -13.120 -24.422  0.00  0.00    +0.259 C 
ATOM      7  C   UNL     1      33.438 -13.881 -23.198  0.00  0.00    +0.324 C 
ENDROOT
BRANCH   3   8
ATOM      8  O   UNL     1      33.075  -9.753 -23.010  0.00  0.00    -0.379 OA
ATOM      9  H   UNL     1      33.874  -9.401 -23.434  0.00  0.00    +0.211 HD
ENDBRANCH   3   8
BRANCH   4  10
ATOM     10  O   UNL     1      34.427 -10.957 -25.310  0.00  0.00    -0.379 OA
ATOM     11  H   UNL     1      33.683 -10.392 -25.567  0.00  0.00    +0.211 HD
ENDBRANCH   4  10
BRANCH   7  12
ATOM     12  O   UNL     1      33.247 -15.243 -23.569  0.00  0.00    -0.449 OA
BRANCH  12  13
ATOM     13  C   UNL     1      34.054 -16.166 -22.961  0.00  0.00    +0.164 C 
ATOM     14  C   UNL     1      34.664 -17.184 -23.694  0.00  0.00    +0.178 C 
ATOM     15  C   UNL     1      34.264 -16.075 -21.585  0.00  0.00    +0.040 C 
ATOM     16  C   UNL     1      35.483 -18.112 -23.050  0.00  0.00    +0.051 C 
ATOM     17  C   UNL     1      35.083 -17.004 -20.942  0.00  0.00    +0.027 C 
ATOM     18  C   UNL     1      35.693 -18.022 -21.674  0.00  0.00    +0.145 C 
BRANCH  14  21
ATOM     19  O   UNL     1      33.768 -18.237 -25.539  0.00  0.00    -0.126 OA
ATOM     20  O   UNL     1      34.981 -16.434 -25.851  0.00  0.00    -0.126 OA
ATOM     21  N   UNL     1      34.461 -17.290 -25.097  0.00  0.00    +0.061 N 
ENDBRANCH  14  21
BRANCH  18  24
ATOM     22  O   UNL     1      37.743 -19.018 -21.329  0.00  0.00    -0.126 OA
ATOM     23  O   UNL     1      36.027 -19.721 -20.152  0.00  0.00    -0.126 OA
ATOM     24  N   UNL     1      36.527 -18.966 -21.020  0.00  0.00    +0.058 N 
ENDBRANCH  18  24
ENDBRANCH  12  13
ENDBRANCH   7  12
BRANCH   5  25
ATOM     25  C   UNL     1      31.026 -11.485 -21.755  0.00  0.00    +0.169 C 
BRANCH  25  26
ATOM     26  O   UNL     1      31.260 -10.473 -20.793  0.00  0.00    -0.379 OA
ATOM     27  H   UNL     1      30.591  -9.776 -20.887  0.00  0.00    +0.211 HD
ENDBRANCH  25  26
ENDBRANCH   5  25
TORSDOF 8
ENDMDL
MODEL 4
REMARK VINA RESULT:      -8.7     11.711     14.392
REMARK  Name = 25195339
REMARK  8 active torsions:
REMARK  status: ('A' for Active; 'I' for Inactive)
REMARK    1  A    between atoms: C_3  and  O_8
REMARK    2  A    between atoms: C_4  and  O_10
REMARK    3  A    between atoms: C_5  and  C_25
REMARK    4  A    between atoms: C_7  and  O_12
REMARK    5  A    between atoms: O_12  and  C_13
REMARK    6  A    between atoms: C_14  and  N_21
REMARK    7  A    between atoms: C_18  and  N_24
REMARK    8  A    between atoms: C_25  and  O_26
REMARK                            x       y       z     vdW  Elec       q    Type
REMARK                         _______ _______ _______ _____ _____    ______ ____
ROOT
ATOM      1  F   UNL     1      32.675 -15.561 -21.269  0.00  0.00    -0.228 F 
ATOM      2  O   UNL     1      33.487 -15.158 -23.903  0.00  0.00    -0.316 OA
ATOM      3  C   UNL     1      34.846 -16.803 -22.716  0.00  0.00    +0.170 C 
ATOM      4  C   UNL     1      34.984 -15.832 -21.541  0.00  0.00    +0.179 C 
ATOM      5  C   UNL     1      34.613 -16.033 -24.022  0.00  0.00    +0.177 C 
ATOM      6  C   UNL     1      33.818 -14.854 -21.519  0.00  0.00    +0.259 C 
ATOM      7  C   UNL     1      33.654 -14.180 -22.876  0.00  0.00    +0.324 C 
ENDROOT
BRANCH   3   8
ATOM      8  O   UNL     1      36.038 -17.574 -22.839  0.00  0.00    -0.379 OA
ATOM      9  H   UNL     1      36.432 -17.423 -23.713  0.00  0.00    +0.211 HD
ENDBRANCH   3   8
BRANCH   4  10
ATOM     10  O   UNL     1      35.001 -16.539 -20.306  0.00  0.00    -0.379 OA
ATOM     11  H   UNL     1      35.894 -16.514 -19.931  0.00  0.00    +0.211 HD
ENDBRANCH   4  10
BRANCH   7  12
ATOM     12  O   UNL     1      32.522 -13.318 -22.810  0.00  0.00    -0.449 OA
BRANCH  12  13
ATOM     13  C   UNL     1      32.759 -11.977 -22.958  0.00  0.00    +0.164 C 
ATOM     14  C   UNL     1      32.184 -11.044 -22.095  0.00  0.00    +0.178 C 
ATOM     15  C   UNL     1      33.592 -11.551 -23.993  0.00  0.00    +0.040 C 
ATOM     16  C   UNL     1      32.442  -9.684 -22.267  0.00  0.00    +0.051 C 
ATOM     17  C   UNL     1      33.849 -10.190 -24.164  0.00  0.00    +0.027 C 
ATOM     18  C   UNL     1      33.275  -9.257 -23.302  0.00  0.00    +0.145 C 
BRANCH  14  21
ATOM     19  O   UNL     1      30.093 -11.343 -21.171  0.00  0.00    -0.126 OA
ATOM     20  O   UNL     1      31.849 -11.938 -19.997  0.00  0.00    -0.126 OA
ATOM     21  N   UNL     1      31.333 -11.463 -21.036  0.00  0.00    +0.061 N 
ENDBRANCH  14  21
BRANCH  18  24
ATOM     22  O   UNL     1      32.591  -7.111 -23.793  0.00  0.00    -0.126 OA
ATOM     23  O   UNL     1      34.706  -7.449 -23.307  0.00  0.00    -0.126 OA
ATOM     24  N   UNL     1      33.537  -7.873 -23.476  0.00  0.00    +0.058 N 
ENDBRANCH  18  24
ENDBRANCH  12  13
ENDBRANCH   7  12
BRANCH   5  25
ATOM     25  C   UNL     1      34.338 -16.977 -25.189  0.00  0.00    +0.169 C 
BRANCH  25  26
ATOM     26  O   UNL     1      33.712 -16.242 -26.225  0.00  0.00    -0.379 OA
ATOM     27  H   UNL     1      34.386 -15.908 -26.838  0.00  0.00    +0.211 HD
ENDBRANCH  25  26
ENDBRANCH   5  25
TORSDOF 8
ENDMDL
MODEL 5
REMARK VINA RESULT:      -8.7      2.978      4.898
REMARK  Name = 25195339
REMARK  8 active torsions:
REMARK  status: ('A' for Active; 'I' for Inactive)
REMARK    1  A    between atoms: C_3  and  O_8
REMARK    2  A    between atoms: C_4  and  O_10
REMARK    3  A    between atoms: C_5  and  C_25
REMARK    4  A    between atoms: C_7  and  O_12
REMARK    5  A    between atoms: O_12  and  C_13
REMARK    6  A    between atoms: C_14  and  N_21
REMARK    7  A    between atoms: C_18  and  N_24
REMARK    8  A    between atoms: C_25  and  O_26
REMARK                            x       y       z     vdW  Elec       q    Type
REMARK                         _______ _______ _______ _____ _____    ______ ____
ROOT
ATOM      1  F   UNL     1      35.181 -24.371 -14.036  0.00  0.00    -0.228 F 
ATOM      2  O   UNL     1      37.458 -24.278 -15.639  0.00  0.00    -0.316 OA
ATOM      3  C   UNL     1      37.958 -24.243 -13.249  0.00  0.00    +0.170 C 
ATOM      4  C   UNL     1      36.914 -23.142 -13.053  0.00  0.00    +0.179 C 
ATOM      5  C   UNL     1      38.516 -24.205 -14.678  0.00  0.00    +0.177 C 
ATOM      6  C   UNL     1      35.870 -23.196 -14.159  0.00  0.00    +0.259 C 
ATOM      7  C   UNL     1      36.535 -23.193 -15.530  0.00  0.00    +0.324 C 
ENDROOT
BRANCH   3   8
ATOM      8  O   UNL     1      39.030 -24.053 -12.329  0.00  0.00    -0.379 OA
ATOM      9  H   UNL     1      38.956 -23.175 -11.923  0.00  0.00    +0.211 HD
ENDBRANCH   3   8
BRANCH   4  10
ATOM     10  O   UNL     1      36.253 -23.297 -11.802  0.00  0.00    -0.379 OA
ATOM     11  H   UNL     1      35.394 -22.848 -11.832  0.00  0.00    +0.211 HD
ENDBRANCH   4  10
BRANCH   7  12
ATOM     12  O   UNL     1      35.516 -23.296 -16.519  0.00  0.00    -0.449 OA
BRANCH  12  13
ATOM     13  C   UNL     1      35.611 -22.450 -17.592  0.00  0.00    +0.164 C 
ATOM     14  C   UNL     1      34.578 -22.349 -18.523  0.00  0.00    +0.178 C 
ATOM     15  C   UNL     1      36.765 -21.680 -17.743  0.00  0.00    +0.040 C 
ATOM     16  C   UNL     1      34.699 -21.479 -19.607  0.00  0.00    +0.051 C 
ATOM     17  C   UNL     1      36.885 -20.811 -18.827  0.00  0.00    +0.027 C 
ATOM     18  C   UNL     1      35.853 -20.710 -19.759  0.00  0.00    +0.145 C 
BRANCH  14  21
ATOM     19  O   UNL     1      33.442 -24.353 -18.638  0.00  0.00    -0.126 OA
ATOM     20  O   UNL     1      32.340 -22.561 -18.011  0.00  0.00    -0.126 OA
ATOM     21  N   UNL     1      33.395 -23.126 -18.384  0.00  0.00    +0.061 N 
ENDBRANCH  14  21
BRANCH  18  24
ATOM     22  O   UNL     1      36.986 -19.083 -20.935  0.00  0.00    -0.126 OA
ATOM     23  O   UNL     1      35.072 -19.808 -21.732  0.00  0.00    -0.126 OA
ATOM     24  N   UNL     1      35.975 -19.825 -20.862  0.00  0.00    +0.058 N 
ENDBRANCH  18  24
ENDBRANCH  12  13
ENDBRANCH   7  12
BRANCH   5  25
ATOM     25  C   UNL     1      39.460 -25.372 -14.946  0.00  0.00    +0.169 C 
BRANCH  25  26
ATOM     26  O   UNL     1      40.775 -24.977 -14.601  0.00  0.00    -0.379 OA
ATOM     27  H   UNL     1      41.103 -24.339 -15.254  0.00  0.00    +0.211 HD
ENDBRANCH  25  26
ENDBRANCH   5  25
TORSDOF 8
ENDMDL
MODEL 6
REMARK VINA RESULT:      -8.6     11.897     15.133
REMARK  Name = 25195339
REMARK  8 active torsions:
REMARK  status: ('A' for Active; 'I' for Inactive)
REMARK    1  A    between atoms: C_3  and  O_8
REMARK    2  A    between atoms: C_4  and  O_10
REMARK    3  A    between atoms: C_5  and  C_25
REMARK    4  A    between atoms: C_7  and  O_12
REMARK    5  A    between atoms: O_12  and  C_13
REMARK    6  A    between atoms: C_14  and  N_21
REMARK    7  A    between atoms: C_18  and  N_24
REMARK    8  A    between atoms: C_25  and  O_26
REMARK                            x       y       z     vdW  Elec       q    Type
REMARK                         _______ _______ _______ _____ _____    ______ ____
ROOT
ATOM      1  F   UNL     1      33.312 -11.569 -25.997  0.00  0.00    -0.228 F 
ATOM      2  O   UNL     1      32.372 -11.489 -23.375  0.00  0.00    -0.316 OA
ATOM      3  C   UNL     1      33.715  -9.542 -23.978  0.00  0.00    +0.170 C 
ATOM      4  C   UNL     1      34.789 -10.468 -24.553  0.00  0.00    +0.179 C 
ATOM      5  C   UNL     1      32.917 -10.262 -22.884  0.00  0.00    +0.177 C 
ATOM      6  C   UNL     1      34.178 -11.799 -24.964  0.00  0.00    +0.259 C 
ATOM      7  C   UNL     1      33.377 -12.403 -23.817  0.00  0.00    +0.324 C 
ENDROOT
BRANCH   3   8
ATOM      8  O   UNL     1      34.333  -8.386 -23.417  0.00  0.00    -0.379 OA
ATOM      9  H   UNL     1      33.813  -7.599 -23.643  0.00  0.00    +0.211 HD
ENDBRANCH   3   8
BRANCH   4  10
ATOM     10  O   UNL     1      35.398  -9.879 -25.697  0.00  0.00    -0.379 OA
ATOM     11  H   UNL     1      35.203  -8.930 -25.716  0.00  0.00    +0.211 HD
ENDBRANCH   4  10
BRANCH   7  12
ATOM     12  O   UNL     1      32.791 -13.617 -24.276  0.00  0.00    -0.449 OA
BRANCH  12  13
ATOM     13  C   UNL     1      33.486 -14.770 -24.026  0.00  0.00    +0.164 C 
ATOM     14  C   UNL     1      33.714 -15.707 -25.033  0.00  0.00    +0.178 C 
ATOM     15  C   UNL     1      33.972 -14.998 -22.738  0.00  0.00    +0.040 C 
ATOM     16  C   UNL     1      34.426 -16.873 -24.752  0.00  0.00    +0.051 C 
ATOM     17  C   UNL     1      34.684 -16.165 -22.458  0.00  0.00    +0.027 C 
ATOM     18  C   UNL     1      34.911 -17.102 -23.465  0.00  0.00    +0.145 C 
BRANCH  14  21
ATOM     19  O   UNL     1      33.765 -14.606 -27.058  0.00  0.00    -0.126 OA
ATOM     20  O   UNL     1      32.270 -16.187 -26.765  0.00  0.00    -0.126 OA
ATOM     21  N   UNL     1      33.226 -15.490 -26.351  0.00  0.00    +0.061 N 
ENDBRANCH  14  21
BRANCH  18  24
ATOM     22  O   UNL     1      36.535 -18.256 -22.304  0.00  0.00    -0.126 OA
ATOM     23  O   UNL     1      35.359 -19.338 -23.811  0.00  0.00    -0.126 OA
ATOM     24  N   UNL     1      35.636 -18.289 -23.180  0.00  0.00    +0.058 N 
ENDBRANCH  18  24
ENDBRANCH  12  13
ENDBRANCH   7  12
BRANCH   5  25
ATOM     25  C   UNL     1      31.753  -9.411 -22.384  0.00  0.00    +0.169 C 
BRANCH  25  26
ATOM     26  O   UNL     1      31.354  -8.538 -23.425  0.00  0.00    -0.379 OA
ATOM     27  H   UNL     1      32.071  -8.460 -24.075  0.00  0.00    +0.211 HD
ENDBRANCH  25  26
ENDBRANCH   5  25
TORSDOF 8
ENDMDL
MODEL 7
REMARK VINA RESULT:      -8.6      2.746      6.706
REMARK  Name = 25195339
REMARK  8 active torsions:
REMARK  status: ('A' for Active; 'I' for Inactive)
REMARK    1  A    between atoms: C_3  and  O_8
REMARK    2  A    between atoms: C_4  and  O_10
REMARK    3  A    between atoms: C_5  and  C_25
REMARK    4  A    between atoms: C_7  and  O_12
REMARK    5  A    between atoms: O_12  and  C_13
REMARK    6  A    between atoms: C_14  and  N_21
REMARK    7  A    between atoms: C_18  and  N_24
REMARK    8  A    between atoms: C_25  and  O_26
REMARK                            x       y       z     vdW  Elec       q    Type
REMARK                         _______ _______ _______ _____ _____    ______ ____
ROOT
ATOM      1  F   UNL     1      31.995 -22.846 -13.096  0.00  0.00    -0.228 F 
ATOM      2  O   UNL     1      31.684 -22.858 -15.865  0.00  0.00    -0.316 OA
ATOM      3  C   UNL     1      29.911 -24.056 -14.690  0.00  0.00    +0.170 C 
ATOM      4  C   UNL     1      30.966 -24.800 -13.869  0.00  0.00    +0.179 C 
ATOM      5  C   UNL     1      30.491 -23.626 -16.043  0.00  0.00    +0.177 C 
ATOM      6  C   UNL     1      32.252 -23.991 -13.796  0.00  0.00    +0.259 C 
ATOM      7  C   UNL     1      32.713 -23.585 -15.191  0.00  0.00    +0.324 C 
ENDROOT
BRANCH   3   8
ATOM      8  O   UNL     1      28.792 -24.910 -14.915  0.00  0.00    -0.379 OA
ATOM      9  H   UNL     1      28.928 -25.751 -14.451  0.00  0.00    +0.211 HD
ENDBRANCH   3   8
BRANCH   4  10
ATOM     10  O   UNL     1      30.501 -25.026 -12.543  0.00  0.00    -0.379 OA
ATOM     11  H   UNL     1      31.249 -25.259 -11.972  0.00  0.00    +0.211 HD
ENDBRANCH   4  10
BRANCH   7  12
ATOM     12  O   UNL     1      33.888 -22.791 -15.056  0.00  0.00    -0.449 OA
BRANCH  12  13
ATOM     13  C   UNL     1      35.062 -23.460 -14.835  0.00  0.00    +0.164 C 
ATOM     14  C   UNL     1      36.168 -23.268 -15.664  0.00  0.00    +0.178 C 
ATOM     15  C   UNL     1      35.142 -24.345 -13.759  0.00  0.00    +0.040 C 
ATOM     16  C   UNL     1      37.353 -23.961 -15.416  0.00  0.00    +0.051 C 
ATOM     17  C   UNL     1      36.327 -25.038 -13.513  0.00  0.00    +0.027 C 
ATOM     18  C   UNL     1      37.432 -24.846 -14.341  0.00  0.00    +0.145 C 
BRANCH  14  21
ATOM     19  O   UNL     1      35.317 -22.622 -17.707  0.00  0.00    -0.126 OA
ATOM     20  O   UNL     1      36.836 -21.352 -16.759  0.00  0.00    -0.126 OA
ATOM     21  N   UNL     1      36.103 -22.370 -16.764  0.00  0.00    +0.061 N 
ENDBRANCH  14  21
BRANCH  18  24
ATOM     22  O   UNL     1      38.757 -26.724 -14.521  0.00  0.00    -0.126 OA
ATOM     23  O   UNL     1      39.553 -24.982 -13.446  0.00  0.00    -0.126 OA
ATOM     24  N   UNL     1      38.639 -25.551 -14.090  0.00  0.00    +0.058 N 
ENDBRANCH  18  24
ENDBRANCH  12  13
ENDBRANCH   7  12
BRANCH   5  25
ATOM     25  C   UNL     1      29.506 -22.765 -16.829  0.00  0.00    +0.169 C 
BRANCH  25  26
ATOM     26  O   UNL     1      28.570 -23.617 -17.465  0.00  0.00    -0.379 OA
ATOM     27  H   UNL     1      28.256 -24.282 -16.832  0.00  0.00    +0.211 HD
ENDBRANCH  25  26
ENDBRANCH   5  25
TORSDOF 8
ENDMDL
MODEL 8
REMARK VINA RESULT:      -8.4      1.871      3.905
REMARK  Name = 25195339
REMARK  8 active torsions:
REMARK  status: ('A' for Active; 'I' for Inactive)
REMARK    1  A    between atoms: C_3  and  O_8
REMARK    2  A    between atoms: C_4  and  O_10
REMARK    3  A    between atoms: C_5  and  C_25
REMARK    4  A    between atoms: C_7  and  O_12
REMARK    5  A    between atoms: O_12  and  C_13
REMARK    6  A    between atoms: C_14  and  N_21
REMARK    7  A    between atoms: C_18  and  N_24
REMARK    8  A    between atoms: C_25  and  O_26
REMARK                            x       y       z     vdW  Elec       q    Type
REMARK                         _______ _______ _______ _____ _____    ______ ____
ROOT
ATOM      1  F   UNL     1      34.275 -24.886 -12.019  0.00  0.00    -0.228 F 
ATOM      2  O   UNL     1      35.718 -25.274 -14.372  0.00  0.00    -0.316 OA
ATOM      3  C   UNL     1      37.057 -25.591 -12.355  0.00  0.00    +0.170 C 
ATOM      4  C   UNL     1      36.522 -24.270 -11.799  0.00  0.00    +0.179 C 
ATOM      5  C   UNL     1      37.029 -25.578 -13.889  0.00  0.00    +0.177 C 
ATOM      6  C   UNL     1      35.174 -23.938 -12.421  0.00  0.00    +0.259 C 
ATOM      7  C   UNL     1      35.253 -23.993 -13.942  0.00  0.00    +0.324 C 
ENDROOT
BRANCH   3   8
ATOM      8  O   UNL     1      38.400 -25.784 -11.917  0.00  0.00    -0.379 OA
ATOM      9  H   UNL     1      38.952 -26.040 -12.672  0.00  0.00    +0.211 HD
ENDBRANCH   3   8
BRANCH   4  10
ATOM     10  O   UNL     1      36.359 -24.350 -10.387  0.00  0.00    -0.379 OA
ATOM     11  H   UNL     1      35.612 -24.932 -10.180  0.00  0.00    +0.211 HD
ENDBRANCH   4  10
BRANCH   7  12
ATOM     12  O   UNL     1      33.956 -23.724 -14.465  0.00  0.00    -0.449 OA
BRANCH  12  13
ATOM     13  C   UNL     1      33.895 -23.247 -15.747  0.00  0.00    +0.164 C 
ATOM     14  C   UNL     1      32.673 -23.087 -16.399  0.00  0.00    +0.178 C 
ATOM     15  C   UNL     1      35.083 -22.917 -16.400  0.00  0.00    +0.040 C 
ATOM     16  C   UNL     1      32.638 -22.598 -17.705  0.00  0.00    +0.051 C 
ATOM     17  C   UNL     1      35.047 -22.428 -17.706  0.00  0.00    +0.027 C 
ATOM     18  C   UNL     1      33.825 -22.269 -18.359  0.00  0.00    +0.145 C 
BRANCH  14  21
ATOM     19  O   UNL     1      30.909 -22.564 -15.010  0.00  0.00    -0.126 OA
ATOM     20  O   UNL     1      30.960 -24.557 -15.928  0.00  0.00    -0.126 OA
ATOM     21  N   UNL     1      31.453 -23.419 -15.747  0.00  0.00    +0.061 N 
ENDBRANCH  14  21
BRANCH  18  24
ATOM     22  O   UNL     1      34.870 -21.487 -20.260  0.00  0.00    -0.126 OA
ATOM     23  O   UNL     1      32.678 -21.629 -20.254  0.00  0.00    -0.126 OA
ATOM     24  N   UNL     1      33.789 -21.771 -19.688  0.00  0.00    +0.058 N 
ENDBRANCH  18  24
ENDBRANCH  12  13
ENDBRANCH   7  12
BRANCH   5  25
ATOM     25  C   UNL     1      37.430 -26.930 -14.471  0.00  0.00    +0.169 C 
BRANCH  25  26
ATOM     26  O   UNL     1      37.360 -26.852 -15.883  0.00  0.00    -0.379 OA
ATOM     27  H   UNL     1      37.081 -27.709 -16.241  0.00  0.00    +0.211 HD
ENDBRANCH  25  26
ENDBRANCH   5  25
TORSDOF 8
ENDMDL
MODEL 9
REMARK VINA RESULT:      -8.4      7.180     10.918
REMARK  Name = 25195339
REMARK  8 active torsions:
REMARK  status: ('A' for Active; 'I' for Inactive)
REMARK    1  A    between atoms: C_3  and  O_8
REMARK    2  A    between atoms: C_4  and  O_10
REMARK    3  A    between atoms: C_5  and  C_25
REMARK    4  A    between atoms: C_7  and  O_12
REMARK    5  A    between atoms: O_12  and  C_13
REMARK    6  A    between atoms: C_14  and  N_21
REMARK    7  A    between atoms: C_18  and  N_24
REMARK    8  A    between atoms: C_25  and  O_26
REMARK                            x       y       z     vdW  Elec       q    Type
REMARK                         _______ _______ _______ _____ _____    ______ ____
ROOT
ATOM      1  F   UNL     1      34.994 -15.254 -20.829  0.00  0.00    -0.228 F 
ATOM      2  O   UNL     1      34.360 -16.251 -23.352  0.00  0.00    -0.316 OA
ATOM      3  C   UNL     1      33.082 -14.259 -22.753  0.00  0.00    +0.170 C 
ATOM      4  C   UNL     1      32.753 -14.886 -21.396  0.00  0.00    +0.179 C 
ATOM      5  C   UNL     1      33.342 -15.351 -23.798  0.00  0.00    +0.177 C 
ATOM      6  C   UNL     1      33.810 -15.912 -21.014  0.00  0.00    +0.259 C 
ATOM      7  C   UNL     1      34.014 -16.920 -22.138  0.00  0.00    +0.324 C 
ENDROOT
BRANCH   3   8
ATOM      8  O   UNL     1      31.986 -13.456 -23.185  0.00  0.00    -0.379 OA
ATOM      9  H   UNL     1      31.311 -13.427 -22.488  0.00  0.00    +0.211 HD
ENDBRANCH   3   8
BRANCH   4  10
ATOM     10  O   UNL     1      32.707 -13.888 -20.382  0.00  0.00    -0.379 OA
ATOM     11  H   UNL     1      32.692 -13.010 -20.792  0.00  0.00    +0.211 HD
ENDBRANCH   4  10
BRANCH   7  12
ATOM     12  O   UNL     1      35.045 -17.820 -21.745  0.00  0.00    -0.449 OA
BRANCH  12  13
ATOM     13  C   UNL     1      34.652 -18.966 -21.106  0.00  0.00    +0.164 C 
ATOM     14  C   UNL     1      35.577 -19.780 -20.453  0.00  0.00    +0.178 C 
ATOM     15  C   UNL     1      33.300 -19.312 -21.113  0.00  0.00    +0.040 C 
ATOM     16  C   UNL     1      35.151 -20.941 -19.808  0.00  0.00    +0.051 C 
ATOM     17  C   UNL     1      32.875 -20.473 -20.468  0.00  0.00    +0.027 C 
ATOM     18  C   UNL     1      33.800 -21.288 -19.815  0.00  0.00    +0.145 C 
BRANCH  14  21
ATOM     19  O   UNL     1      37.509 -19.091 -21.506  0.00  0.00    -0.126 OA
ATOM     20  O   UNL     1      37.583 -19.505 -19.351  0.00  0.00    -0.126 OA
ATOM     21  N   UNL     1      36.958 -19.442 -20.436  0.00  0.00    +0.061 N 
ENDBRANCH  14  21
BRANCH  18  24
ATOM     22  O   UNL     1      33.931 -23.557 -19.430  0.00  0.00    -0.126 OA
ATOM     23  O   UNL     1      32.433 -22.394 -18.323  0.00  0.00    -0.126 OA
ATOM     24  N   UNL     1      33.366 -22.469 -19.158  0.00  0.00    +0.058 N 
ENDBRANCH  18  24
ENDBRANCH  12  13
ENDBRANCH   7  12
BRANCH   5  25
ATOM     25  C   UNL     1      33.803 -14.760 -25.127  0.00  0.00    +0.169 C 
BRANCH  25  26
ATOM     26  O   UNL     1      33.837 -15.795 -26.093  0.00  0.00    -0.379 OA
ATOM     27  H   UNL     1      33.374 -16.575 -25.749  0.00  0.00    +0.211 HD
ENDBRANCH  25  26
ENDBRANCH   5  25
TORSDOF 8
ENDMDL
