MODEL 1
REMARK VINA RESULT:     -11.1      0.000      0.000
REMARK  Name = 25271556
REMARK  1 active torsions:
REMARK  status: ('A' for Active; 'I' for Inactive)
REMARK    1  A    between atoms: C_6  and  C_18
REMARK                            x       y       z     vdW  Elec       q    Type
REMARK                         _______ _______ _______ _____ _____    ______ ____
ROOT
ATOM      1  N   UNL     1      33.849 -16.012 -25.971  0.00  0.00    -0.332 NA
ATOM      2  N   UNL     1      33.570 -14.106 -24.524  0.00  0.00    -0.313 NA
ATOM      3  N   UNL     1      33.894 -14.257 -22.230  0.00  0.00    -0.332 N 
ATOM      4  N   UNL     1      33.235 -13.919 -26.835  0.00  0.00    -0.283 N 
ATOM      5  C   UNL     1      34.537 -17.063 -22.512  0.00  0.00    -0.016 C 
ATOM      6  C   UNL     1      34.838 -18.408 -22.705  0.00  0.00    -0.008 C 
ATOM      7  C   UNL     1      34.203 -16.252 -23.611  0.00  0.00    +0.067 C 
ATOM      8  C   UNL     1      34.167 -16.778 -24.912  0.00  0.00    +0.130 C 
ATOM      9  C   UNL     1      34.806 -18.940 -23.990  0.00  0.00    -0.019 C 
ATOM     10  C   UNL     1      34.472 -18.127 -25.077  0.00  0.00    +0.086 C 
ATOM     11  C   UNL     1      34.591 -16.555 -21.101  0.00  0.00    +0.031 C 
ATOM     12  C   UNL     1      33.893 -14.902 -23.486  0.00  0.00    +0.193 C 
ATOM     13  C   UNL     1      33.568 -14.718 -25.719  0.00  0.00    +0.197 C 
ATOM     14  H   UNL     1      33.671 -13.300 -22.167  0.00  0.00    +0.145 HD
ATOM     15  H   UNL     1      34.118 -14.764 -21.416  0.00  0.00    +0.145 HD
ATOM     16  H   UNL     1      33.216 -14.315 -27.736  0.00  0.00    +0.156 HD
ATOM     17  H   UNL     1      33.019 -12.966 -26.712  0.00  0.00    +0.156 HD
ENDROOT
BRANCH   6  18
ATOM     18  C   UNL     1      35.188 -19.282 -21.603  0.00  0.00    -0.001 C 
ATOM     19  C   UNL     1      34.202 -20.049 -20.981  0.00  0.00    -0.000 C 
ATOM     20  C   UNL     1      36.510 -19.356 -21.163  0.00  0.00    -0.000 C 
ATOM     21  C   UNL     1      34.539 -20.889 -19.919  0.00  0.00    -0.000 C 
ATOM     22  C   UNL     1      36.846 -20.197 -20.102  0.00  0.00    -0.000 C 
ATOM     23  C   UNL     1      35.861 -20.964 -19.480  0.00  0.00    -0.000 C 
ENDBRANCH   6  18
TORSDOF 1
ENDMDL
MODEL 2
REMARK VINA RESULT:     -10.3      0.947      2.673
REMARK  Name = 25271556
REMARK  1 active torsions:
REMARK  status: ('A' for Active; 'I' for Inactive)
REMARK    1  A    between atoms: C_6  and  C_18
REMARK                            x       y       z     vdW  Elec       q    Type
REMARK                         _______ _______ _______ _____ _____    ______ ____
ROOT
ATOM      1  N   UNL     1      34.059 -13.780 -22.911  0.00  0.00    -0.332 NA
ATOM      2  N   UNL     1      33.802 -14.646 -25.145  0.00  0.00    -0.313 NA
ATOM      3  N   UNL     1      34.024 -16.909 -25.609  0.00  0.00    -0.332 N 
ATOM      4  N   UNL     1      33.571 -12.356 -24.710  0.00  0.00    -0.283 N 
ATOM      5  C   UNL     1      34.559 -17.424 -22.813  0.00  0.00    -0.016 C 
ATOM      6  C   UNL     1      34.809 -17.615 -21.457  0.00  0.00    -0.008 C 
ATOM      7  C   UNL     1      34.305 -16.132 -23.307  0.00  0.00    +0.067 C 
ATOM      8  C   UNL     1      34.300 -15.020 -22.450  0.00  0.00    +0.130 C 
ATOM      9  C   UNL     1      34.807 -16.520 -20.600  0.00  0.00    -0.019 C 
ATOM     10  C   UNL     1      34.555 -15.239 -21.099  0.00  0.00    +0.086 C 
ATOM     11  C   UNL     1      34.577 -18.648 -23.682  0.00  0.00    +0.031 C 
ATOM     12  C   UNL     1      34.047 -15.874 -24.649  0.00  0.00    +0.193 C 
ATOM     13  C   UNL     1      33.824 -13.661 -24.233  0.00  0.00    +0.197 C 
ATOM     14  H   UNL     1      33.840 -16.702 -26.554  0.00  0.00    +0.145 HD
ATOM     15  H   UNL     1      34.195 -17.840 -25.334  0.00  0.00    +0.145 HD
ATOM     16  H   UNL     1      33.575 -11.594 -24.087  0.00  0.00    +0.156 HD
ATOM     17  H   UNL     1      33.392 -12.207 -25.667  0.00  0.00    +0.156 HD
ENDROOT
BRANCH   6  18
ATOM     18  C   UNL     1      35.076 -18.928 -20.904  0.00  0.00    -0.001 C 
ATOM     19  C   UNL     1      36.391 -19.343 -20.695  0.00  0.00    -0.000 C 
ATOM     20  C   UNL     1      34.017 -19.777 -20.581  0.00  0.00    -0.000 C 
ATOM     21  C   UNL     1      36.647 -20.607 -20.162  0.00  0.00    -0.000 C 
ATOM     22  C   UNL     1      34.273 -21.040 -20.048  0.00  0.00    -0.000 C 
ATOM     23  C   UNL     1      35.588 -21.455 -19.838  0.00  0.00    -0.000 C 
ENDBRANCH   6  18
TORSDOF 1
ENDMDL
MODEL 3
REMARK VINA RESULT:     -10.3      4.709      7.204
REMARK  Name = 25271556
REMARK  1 active torsions:
REMARK  status: ('A' for Active; 'I' for Inactive)
REMARK    1  A    between atoms: C_6  and  C_18
REMARK                            x       y       z     vdW  Elec       q    Type
REMARK                         _______ _______ _______ _____ _____    ______ ____
ROOT
ATOM      1  N   UNL     1      32.969 -22.318 -18.464  0.00  0.00    -0.332 NA
ATOM      2  N   UNL     1      35.267 -22.686 -17.839  0.00  0.00    -0.313 NA
ATOM      3  N   UNL     1      37.006 -21.523 -18.843  0.00  0.00    -0.332 N 
ATOM      4  N   UNL     1      33.535 -23.878 -16.805  0.00  0.00    -0.283 N 
ATOM      5  C   UNL     1      35.099 -20.111 -20.497  0.00  0.00    -0.016 C 
ATOM      6  C   UNL     1      34.138 -19.461 -21.267  0.00  0.00    -0.008 C 
ATOM      7  C   UNL     1      34.708 -21.075 -19.551  0.00  0.00    +0.067 C 
ATOM      8  C   UNL     1      33.354 -21.398 -19.366  0.00  0.00    +0.130 C 
ATOM      9  C   UNL     1      32.794 -19.773 -21.092  0.00  0.00    -0.019 C 
ATOM     10  C   UNL     1      32.414 -20.733 -20.150  0.00  0.00    +0.086 C 
ATOM     11  C   UNL     1      36.530 -19.726 -20.738  0.00  0.00    +0.031 C 
ATOM     12  C   UNL     1      35.617 -21.759 -18.751  0.00  0.00    +0.193 C 
ATOM     13  C   UNL     1      33.946 -22.912 -17.750  0.00  0.00    +0.197 C 
ATOM     14  H   UNL     1      37.630 -22.020 -18.267  0.00  0.00    +0.145 HD
ATOM     15  H   UNL     1      37.351 -20.861 -19.486  0.00  0.00    +0.145 HD
ATOM     16  H   UNL     1      32.578 -24.085 -16.698  0.00  0.00    +0.156 HD
ATOM     17  H   UNL     1      34.204 -24.345 -16.255  0.00  0.00    +0.156 HD
ENDROOT
BRANCH   6  18
ATOM     18  C   UNL     1      34.494 -18.461 -22.254  0.00  0.00    -0.001 C 
ATOM     19  C   UNL     1      34.656 -18.826 -23.590  0.00  0.00    -0.000 C 
ATOM     20  C   UNL     1      34.675 -17.133 -21.867  0.00  0.00    -0.000 C 
ATOM     21  C   UNL     1      34.999 -17.864 -24.540  0.00  0.00    -0.000 C 
ATOM     22  C   UNL     1      35.017 -16.170 -22.817  0.00  0.00    -0.000 C 
ATOM     23  C   UNL     1      35.179 -16.535 -24.154  0.00  0.00    -0.000 C 
ENDBRANCH   6  18
TORSDOF 1
ENDMDL
MODEL 4
REMARK VINA RESULT:     -10.0      4.645      7.462
REMARK  Name = 25271556
REMARK  1 active torsions:
REMARK  status: ('A' for Active; 'I' for Inactive)
REMARK    1  A    between atoms: C_6  and  C_18
REMARK                            x       y       z     vdW  Elec       q    Type
REMARK                         _______ _______ _______ _____ _____    ______ ____
ROOT
ATOM      1  N   UNL     1      36.656 -22.046 -17.804  0.00  0.00    -0.332 NA
ATOM      2  N   UNL     1      34.388 -22.802 -17.499  0.00  0.00    -0.313 NA
ATOM      3  N   UNL     1      32.663 -22.071 -18.869  0.00  0.00    -0.332 N 
ATOM      4  N   UNL     1      36.106 -23.558 -16.097  0.00  0.00    -0.283 N 
ATOM      5  C   UNL     1      34.539 -20.444 -20.353  0.00  0.00    -0.016 C 
ATOM      6  C   UNL     1      35.484 -19.681 -21.032  0.00  0.00    -0.008 C 
ATOM      7  C   UNL     1      34.930 -21.243 -19.264  0.00  0.00    +0.067 C 
ATOM      8  C   UNL     1      36.269 -21.286 -18.844  0.00  0.00    +0.130 C 
ATOM      9  C   UNL     1      36.813 -19.715 -20.625  0.00  0.00    -0.019 C 
ATOM     10  C   UNL     1      37.194 -20.511 -19.541  0.00  0.00    +0.086 C 
ATOM     11  C   UNL     1      33.123 -20.359 -20.845  0.00  0.00    +0.031 C 
ATOM     12  C   UNL     1      34.036 -22.029 -18.545  0.00  0.00    +0.193 C 
ATOM     13  C   UNL     1      35.693 -22.762 -17.188  0.00  0.00    +0.197 C 
ATOM     14  H   UNL     1      32.049 -22.635 -18.345  0.00  0.00    +0.145 HD
ATOM     15  H   UNL     1      32.318 -21.535 -19.620  0.00  0.00    +0.145 HD
ATOM     16  H   UNL     1      37.051 -23.568 -15.824  0.00  0.00    +0.156 HD
ATOM     17  H   UNL     1      35.447 -24.103 -15.608  0.00  0.00    +0.156 HD
ENDROOT
BRANCH   6  18
ATOM     18  C   UNL     1      35.126 -18.843 -22.160  0.00  0.00    -0.001 C 
ATOM     19  C   UNL     1      34.964 -17.468 -21.984  0.00  0.00    -0.000 C 
ATOM     20  C   UNL     1      34.944 -19.411 -23.421  0.00  0.00    -0.000 C 
ATOM     21  C   UNL     1      34.620 -16.662 -23.069  0.00  0.00    -0.000 C 
ATOM     22  C   UNL     1      34.601 -18.604 -24.506  0.00  0.00    -0.000 C 
ATOM     23  C   UNL     1      34.439 -17.230 -24.330  0.00  0.00    -0.000 C 
ENDBRANCH   6  18
TORSDOF 1
ENDMDL
MODEL 5
REMARK VINA RESULT:     -10.0      4.615      7.423
REMARK  Name = 25271556
REMARK  1 active torsions:
REMARK  status: ('A' for Active; 'I' for Inactive)
REMARK    1  A    between atoms: C_6  and  C_18
REMARK                            x       y       z     vdW  Elec       q    Type
REMARK                         _______ _______ _______ _____ _____    ______ ____
ROOT
ATOM      1  N   UNL     1      36.574 -22.060 -17.807  0.00  0.00    -0.332 NA
ATOM      2  N   UNL     1      34.288 -22.767 -17.524  0.00  0.00    -0.313 NA
ATOM      3  N   UNL     1      32.593 -22.002 -18.913  0.00  0.00    -0.332 N 
ATOM      4  N   UNL     1      35.975 -23.558 -16.104  0.00  0.00    -0.283 N 
ATOM      5  C   UNL     1      34.518 -20.417 -20.379  0.00  0.00    -0.016 C 
ATOM      6  C   UNL     1      35.486 -19.674 -21.049  0.00  0.00    -0.008 C 
ATOM      7  C   UNL     1      34.881 -21.222 -19.286  0.00  0.00    +0.067 C 
ATOM      8  C   UNL     1      36.215 -21.293 -18.852  0.00  0.00    +0.130 C 
ATOM      9  C   UNL     1      36.810 -19.736 -20.629  0.00  0.00    -0.019 C 
ATOM     10  C   UNL     1      37.163 -20.539 -19.540  0.00  0.00    +0.086 C 
ATOM     11  C   UNL     1      33.110 -20.303 -20.886  0.00  0.00    +0.031 C 
ATOM     12  C   UNL     1      33.964 -21.988 -18.575  0.00  0.00    +0.193 C 
ATOM     13  C   UNL     1      35.591 -22.754 -17.200  0.00  0.00    +0.197 C 
ATOM     14  H   UNL     1      31.962 -22.552 -18.395  0.00  0.00    +0.145 HD
ATOM     15  H   UNL     1      32.267 -21.460 -19.669  0.00  0.00    +0.145 HD
ATOM     16  H   UNL     1      36.917 -23.587 -15.822  0.00  0.00    +0.156 HD
ATOM     17  H   UNL     1      35.300 -24.088 -15.621  0.00  0.00    +0.156 HD
ENDROOT
BRANCH   6  18
ATOM     18  C   UNL     1      35.158 -18.830 -22.181  0.00  0.00    -0.001 C 
ATOM     19  C   UNL     1      34.921 -19.402 -23.431  0.00  0.00    -0.000 C 
ATOM     20  C   UNL     1      35.079 -17.447 -22.021  0.00  0.00    -0.000 C 
ATOM     21  C   UNL     1      34.605 -18.590 -24.521  0.00  0.00    -0.000 C 
ATOM     22  C   UNL     1      34.762 -16.635 -23.110  0.00  0.00    -0.000 C 
ATOM     23  C   UNL     1      34.525 -17.206 -24.360  0.00  0.00    -0.000 C 
ENDBRANCH   6  18
TORSDOF 1
ENDMDL
MODEL 6
REMARK VINA RESULT:      -9.4      2.861      6.435
REMARK  Name = 25271556
REMARK  1 active torsions:
REMARK  status: ('A' for Active; 'I' for Inactive)
REMARK    1  A    between atoms: C_6  and  C_18
REMARK                            x       y       z     vdW  Elec       q    Type
REMARK                         _______ _______ _______ _____ _____    ______ ____
ROOT
ATOM      1  N   UNL     1      34.126 -17.614 -25.433  0.00  0.00    -0.332 NA
ATOM      2  N   UNL     1      35.005 -18.235 -23.278  0.00  0.00    -0.313 NA
ATOM      3  N   UNL     1      35.137 -16.715 -21.529  0.00  0.00    -0.332 N 
ATOM      4  N   UNL     1      34.887 -19.795 -25.022  0.00  0.00    -0.283 N 
ATOM      5  C   UNL     1      33.997 -14.671 -23.229  0.00  0.00    -0.016 C 
ATOM      6  C   UNL     1      33.445 -13.726 -24.090  0.00  0.00    -0.008 C 
ATOM      7  C   UNL     1      34.228 -15.983 -23.679  0.00  0.00    +0.067 C 
ATOM      8  C   UNL     1      33.909 -16.362 -24.992  0.00  0.00    +0.130 C 
ATOM      9  C   UNL     1      33.126 -14.091 -25.393  0.00  0.00    -0.019 C 
ATOM     10  C   UNL     1      33.359 -15.398 -25.833  0.00  0.00    +0.086 C 
ATOM     11  C   UNL     1      34.317 -14.209 -21.837  0.00  0.00    +0.031 C 
ATOM     12  C   UNL     1      34.775 -16.973 -22.869  0.00  0.00    +0.193 C 
ATOM     13  C   UNL     1      34.662 -18.482 -24.552  0.00  0.00    +0.197 C 
ATOM     14  H   UNL     1      35.523 -17.432 -20.976  0.00  0.00    +0.145 HD
ATOM     15  H   UNL     1      35.004 -15.816 -21.147  0.00  0.00    +0.145 HD
ATOM     16  H   UNL     1      34.655 -20.033 -25.948  0.00  0.00    +0.156 HD
ATOM     17  H   UNL     1      35.277 -20.472 -24.423  0.00  0.00    +0.156 HD
ENDROOT
BRANCH   6  18
ATOM     18  C   UNL     1      33.189 -12.362 -23.670  0.00  0.00    -0.001 C 
ATOM     19  C   UNL     1      33.936 -11.315 -24.209  0.00  0.00    -0.000 C 
ATOM     20  C   UNL     1      32.196 -12.097 -22.727  0.00  0.00    -0.000 C 
ATOM     21  C   UNL     1      33.690 -10.003 -23.805  0.00  0.00    -0.000 C 
ATOM     22  C   UNL     1      31.949 -10.785 -22.324  0.00  0.00    -0.000 C 
ATOM     23  C   UNL     1      32.696  -9.737 -22.863  0.00  0.00    -0.000 C 
ENDBRANCH   6  18
TORSDOF 1
ENDMDL
MODEL 7
REMARK VINA RESULT:      -9.3      6.328      9.219
REMARK  Name = 25271556
REMARK  1 active torsions:
REMARK  status: ('A' for Active; 'I' for Inactive)
REMARK    1  A    between atoms: C_6  and  C_18
REMARK                            x       y       z     vdW  Elec       q    Type
REMARK                         _______ _______ _______ _____ _____    ______ ____
ROOT
ATOM      1  N   UNL     1      34.825 -21.482 -19.077  0.00  0.00    -0.332 NA
ATOM      2  N   UNL     1      32.678 -22.401 -18.481  0.00  0.00    -0.313 NA
ATOM      3  N   UNL     1      32.384 -23.672 -16.562  0.00  0.00    -0.332 N 
ATOM      4  N   UNL     1      32.940 -21.122 -20.426  0.00  0.00    -0.283 N 
ATOM      5  C   UNL     1      35.189 -23.353 -15.929  0.00  0.00    -0.016 C 
ATOM      6  C   UNL     1      36.544 -23.167 -15.672  0.00  0.00    -0.008 C 
ATOM      7  C   UNL     1      34.606 -22.786 -17.076  0.00  0.00    +0.067 C 
ATOM      8  C   UNL     1      35.372 -22.029 -17.976  0.00  0.00    +0.130 C 
ATOM      9  C   UNL     1      37.312 -22.419 -16.557  0.00  0.00    -0.019 C 
ATOM     10  C   UNL     1      36.725 -21.860 -17.696  0.00  0.00    +0.086 C 
ATOM     11  C   UNL     1      34.419 -24.171 -14.932  0.00  0.00    +0.031 C 
ATOM     12  C   UNL     1      33.258 -22.934 -17.389  0.00  0.00    +0.193 C 
ATOM     13  C   UNL     1      33.508 -21.699 -19.269  0.00  0.00    +0.197 C 
ATOM     14  H   UNL     1      31.435 -23.763 -16.805  0.00  0.00    +0.145 HD
ATOM     15  H   UNL     1      32.725 -24.098 -15.742  0.00  0.00    +0.145 HD
ATOM     16  H   UNL     1      33.502 -20.596 -21.041  0.00  0.00    +0.156 HD
ATOM     17  H   UNL     1      31.983 -21.246 -20.619  0.00  0.00    +0.156 HD
ENDROOT
BRANCH   6  18
ATOM     18  C   UNL     1      37.188 -23.732 -14.503  0.00  0.00    -0.001 C 
ATOM     19  C   UNL     1      37.973 -24.879 -14.624  0.00  0.00    -0.000 C 
ATOM     20  C   UNL     1      37.023 -23.130 -13.255  0.00  0.00    -0.000 C 
ATOM     21  C   UNL     1      38.592 -25.423 -13.499  0.00  0.00    -0.000 C 
ATOM     22  C   UNL     1      37.643 -23.673 -12.130  0.00  0.00    -0.000 C 
ATOM     23  C   UNL     1      38.428 -24.820 -12.252  0.00  0.00    -0.000 C 
ENDBRANCH   6  18
TORSDOF 1
ENDMDL
MODEL 8
REMARK VINA RESULT:      -9.2      8.651     10.665
REMARK  Name = 25271556
REMARK  1 active torsions:
REMARK  status: ('A' for Active; 'I' for Inactive)
REMARK    1  A    between atoms: C_6  and  C_18
REMARK                            x       y       z     vdW  Elec       q    Type
REMARK                         _______ _______ _______ _____ _____    ______ ____
ROOT
ATOM      1  N   UNL     1      29.768 -23.555 -14.910  0.00  0.00    -0.332 NA
ATOM      2  N   UNL     1      30.072 -22.515 -17.062  0.00  0.00    -0.313 NA
ATOM      3  N   UNL     1      32.174 -22.268 -18.013  0.00  0.00    -0.332 N 
ATOM      4  N   UNL     1      27.935 -22.748 -16.130  0.00  0.00    -0.283 N 
ATOM      5  C   UNL     1      33.361 -23.547 -15.706  0.00  0.00    -0.016 C 
ATOM      6  C   UNL     1      33.879 -24.169 -14.573  0.00  0.00    -0.008 C 
ATOM      7  C   UNL     1      31.976 -23.339 -15.822  0.00  0.00    +0.067 C 
ATOM      8  C   UNL     1      31.096 -23.749 -14.809  0.00  0.00    +0.130 C 
ATOM      9  C   UNL     1      33.016 -24.579 -13.562  0.00  0.00    -0.019 C 
ATOM     10  C   UNL     1      31.640 -24.368 -13.686  0.00  0.00    +0.086 C 
ATOM     11  C   UNL     1      34.348 -23.129 -16.757  0.00  0.00    +0.031 C 
ATOM     12  C   UNL     1      31.395 -22.725 -16.928  0.00  0.00    +0.193 C 
ATOM     13  C   UNL     1      29.329 -22.948 -16.031  0.00  0.00    +0.197 C 
ATOM     14  H   UNL     1      31.741 -21.836 -18.784  0.00  0.00    +0.145 HD
ATOM     15  H   UNL     1      33.153 -22.380 -17.998  0.00  0.00    +0.145 HD
ATOM     16  H   UNL     1      27.342 -23.045 -15.403  0.00  0.00    +0.156 HD
ATOM     17  H   UNL     1      27.556 -22.309 -16.926  0.00  0.00    +0.156 HD
ENDROOT
BRANCH   6  18
ATOM     18  C   UNL     1      35.300 -24.404 -14.409  0.00  0.00    -0.001 C 
ATOM     19  C   UNL     1      35.892 -25.527 -14.987  0.00  0.00    -0.000 C 
ATOM     20  C   UNL     1      36.076 -23.507 -13.674  0.00  0.00    -0.000 C 
ATOM     21  C   UNL     1      37.259 -25.754 -14.829  0.00  0.00    -0.000 C 
ATOM     22  C   UNL     1      37.443 -23.734 -13.517  0.00  0.00    -0.000 C 
ATOM     23  C   UNL     1      38.035 -24.857 -14.095  0.00  0.00    -0.000 C 
ENDBRANCH   6  18
TORSDOF 1
ENDMDL
MODEL 9
REMARK VINA RESULT:      -9.0      6.213      9.061
REMARK  Name = 25271556
REMARK  1 active torsions:
REMARK  status: ('A' for Active; 'I' for Inactive)
REMARK    1  A    between atoms: C_6  and  C_18
REMARK                            x       y       z     vdW  Elec       q    Type
REMARK                         _______ _______ _______ _____ _____    ______ ____
ROOT
ATOM      1  N   UNL     1      32.978 -22.451 -18.458  0.00  0.00    -0.332 NA
ATOM      2  N   UNL     1      34.769 -21.245 -19.528  0.00  0.00    -0.313 NA
ATOM      3  N   UNL     1      36.901 -21.162 -18.613  0.00  0.00    -0.332 N 
ATOM      4  N   UNL     1      32.629 -21.309 -20.478  0.00  0.00    -0.283 N 
ATOM      5  C   UNL     1      36.009 -22.799 -16.401  0.00  0.00    -0.016 C 
ATOM      6  C   UNL     1      35.526 -23.589 -15.361  0.00  0.00    -0.008 C 
ATOM      7  C   UNL     1      35.152 -22.414 -17.447  0.00  0.00    +0.067 C 
ATOM      8  C   UNL     1      33.806 -22.813 -17.463  0.00  0.00    +0.130 C 
ATOM      9  C   UNL     1      34.195 -23.991 -15.367  0.00  0.00    -0.019 C 
ATOM     10  C   UNL     1      33.350 -23.602 -16.410  0.00  0.00    +0.086 C 
ATOM     11  C   UNL     1      37.455 -22.402 -16.332  0.00  0.00    +0.031 C 
ATOM     12  C   UNL     1      35.571 -21.627 -18.515  0.00  0.00    +0.193 C 
ATOM     13  C   UNL     1      33.504 -21.686 -19.436  0.00  0.00    +0.197 C 
ATOM     14  H   UNL     1      37.174 -20.606 -19.378  0.00  0.00    +0.145 HD
ATOM     15  H   UNL     1      37.556 -21.393 -17.914  0.00  0.00    +0.145 HD
ATOM     16  H   UNL     1      31.690 -21.603 -20.462  0.00  0.00    +0.156 HD
ATOM     17  H   UNL     1      32.957 -20.750 -21.219  0.00  0.00    +0.156 HD
ENDROOT
BRANCH   6  18
ATOM     18  C   UNL     1      36.373 -24.011 -14.262  0.00  0.00    -0.001 C 
ATOM     19  C   UNL     1      37.102 -25.196 -14.359  0.00  0.00    -0.000 C 
ATOM     20  C   UNL     1      36.458 -23.231 -13.109  0.00  0.00    -0.000 C 
ATOM     21  C   UNL     1      37.917 -25.601 -13.301  0.00  0.00    -0.000 C 
ATOM     22  C   UNL     1      37.274 -23.636 -12.051  0.00  0.00    -0.000 C 
ATOM     23  C   UNL     1      38.003 -24.821 -12.148  0.00  0.00    -0.000 C 
ENDBRANCH   6  18
TORSDOF 1
ENDMDL
