MODEL 1
REMARK VINA RESULT:      -9.4      0.000      0.000
REMARK  Name = 446858
REMARK  8 active torsions:
REMARK  status: ('A' for Active; 'I' for Inactive)
REMARK    1  A    between atoms: C_2  and  O_18
REMARK    2  A    between atoms: C_3  and  O_20
REMARK    3  A    between atoms: C_4  and  N_6
REMARK    4  A    between atoms: C_5  and  C_22
REMARK    5  A    between atoms: C_22  and  O_23
REMARK    6  A    between atoms: O_23  and  P_24
REMARK    7  A    between atoms: P_24  and  O_26
REMARK    8  A    between atoms: P_24  and  O_28
REMARK                            x       y       z     vdW  Elec       q    Type
REMARK                         _______ _______ _______ _____ _____    ______ ____
ROOT
ATOM      1  O   UNL     1      35.776 -25.205 -15.615  0.00  0.00    -0.333 OA
ATOM      2  C   UNL     1      35.545 -23.523 -13.940  0.00  0.00    +0.187 C 
ATOM      3  C   UNL     1      36.785 -24.346 -13.654  0.00  0.00    +0.171 C 
ATOM      4  C   UNL     1      34.784 -24.492 -14.843  0.00  0.00    +0.224 C 
ATOM      5  C   UNL     1      37.065 -24.964 -15.018  0.00  0.00    +0.176 C 
ENDROOT
BRANCH   4   6
ATOM      6  N   UNL     1      33.789 -23.888 -15.721  0.00  0.00    -0.252 N 
ATOM      7  N   UNL     1      32.913 -22.963 -17.558  0.00  0.00    -0.186 NA
ATOM      8  N   UNL     1      30.666 -22.660 -16.681  0.00  0.00    -0.283 NA
ATOM      9  N   UNL     1      30.389 -23.434 -14.385  0.00  0.00    -0.168 NA
ATOM     10  N   UNL     1      28.609 -22.492 -15.579  0.00  0.00    -0.292 N 
ATOM     11  C   UNL     1      32.476 -23.631 -15.426  0.00  0.00    +0.147 C 
ATOM     12  C   UNL     1      33.998 -23.468 -17.013  0.00  0.00    +0.234 C 
ATOM     13  C   UNL     1      31.956 -23.058 -16.579  0.00  0.00    +0.113 C 
ATOM     14  C   UNL     1      31.682 -23.822 -14.312  0.00  0.00    +0.138 C 
ATOM     15  C   UNL     1      29.967 -22.885 -15.548  0.00  0.00    +0.151 C 
ATOM     16  H   UNL     1      28.232 -22.086 -16.393  0.00  0.00    +0.155 HD
ATOM     17  H   UNL     1      28.040 -22.626 -14.787  0.00  0.00    +0.155 HD
ENDBRANCH   4   6
BRANCH   2  18
ATOM     18  O   UNL     1      35.900 -22.342 -14.652  0.00  0.00    -0.378 OA
ATOM     19  H   UNL     1      36.865 -22.265 -14.692  0.00  0.00    +0.211 HD
ENDBRANCH   2  18
BRANCH   3  20
ATOM     20  O   UNL     1      37.873 -23.577 -13.189  0.00  0.00    -0.379 OA
ATOM     21  H   UNL     1      38.452 -24.132 -12.643  0.00  0.00    +0.211 HD
ENDBRANCH   3  20
BRANCH   5  22
ATOM     22  C   UNL     1      37.842 -26.266 -14.939  0.00  0.00    +0.186 C 
BRANCH  22  23
ATOM     23  O   UNL     1      38.868 -26.130 -13.969  0.00  0.00    -0.271 OA
BRANCH  23  24
ATOM     24  P   UNL     1      40.395 -25.965 -14.479  0.00  0.00    +0.473 P 
ATOM     25  O   UNL     1      41.345 -27.020 -13.990  0.00  0.00    -0.227 OA
BRANCH  24  26
ATOM     26  O   UNL     1      40.776 -24.448 -14.069  0.00  0.00    -0.303 OA
ATOM     27  H   UNL     1      40.042 -23.857 -14.300  0.00  0.00    +0.222 HD
ENDBRANCH  24  26
BRANCH  24  28
ATOM     28  O   UNL     1      40.231 -25.886 -16.086  0.00  0.00    -0.303 OA
ATOM     29  H   UNL     1      40.681 -26.642 -16.495  0.00  0.00    +0.222 HD
ENDBRANCH  24  28
ENDBRANCH  23  24
ENDBRANCH  22  23
ENDBRANCH   5  22
TORSDOF 8
ENDMDL
MODEL 2
REMARK VINA RESULT:      -8.8      8.729     10.990
REMARK  Name = 446858
REMARK  8 active torsions:
REMARK  status: ('A' for Active; 'I' for Inactive)
REMARK    1  A    between atoms: C_2  and  O_18
REMARK    2  A    between atoms: C_3  and  O_20
REMARK    3  A    between atoms: C_4  and  N_6
REMARK    4  A    between atoms: C_5  and  C_22
REMARK    5  A    between atoms: C_22  and  O_23
REMARK    6  A    between atoms: O_23  and  P_24
REMARK    7  A    between atoms: P_24  and  O_26
REMARK    8  A    between atoms: P_24  and  O_28
REMARK                            x       y       z     vdW  Elec       q    Type
REMARK                         _______ _______ _______ _____ _____    ______ ____
ROOT
ATOM      1  O   UNL     1      34.439 -17.338 -20.992  0.00  0.00    -0.333 OA
ATOM      2  C   UNL     1      35.332 -18.301 -22.982  0.00  0.00    +0.187 C 
ATOM      3  C   UNL     1      34.836 -16.900 -23.283  0.00  0.00    +0.171 C 
ATOM      4  C   UNL     1      34.551 -18.591 -21.702  0.00  0.00    +0.224 C 
ATOM      5  C   UNL     1      34.812 -16.277 -21.894  0.00  0.00    +0.176 C 
ENDROOT
BRANCH   4   6
ATOM      6  N   UNL     1      35.114 -19.621 -20.837  0.00  0.00    -0.252 N 
ATOM      7  N   UNL     1      36.658 -20.833 -19.767  0.00  0.00    -0.186 NA
ATOM      8  N   UNL     1      35.112 -22.336 -18.643  0.00  0.00    -0.283 NA
ATOM      9  N   UNL     1      32.766 -21.892 -19.140  0.00  0.00    -0.168 NA
ATOM     10  N   UNL     1      33.402 -23.627 -17.703  0.00  0.00    -0.292 N 
ATOM     11  C   UNL     1      34.425 -20.561 -20.118  0.00  0.00    +0.147 C 
ATOM     12  C   UNL     1      36.450 -19.829 -20.590  0.00  0.00    +0.234 C 
ATOM     13  C   UNL     1      35.403 -21.299 -19.464  0.00  0.00    +0.113 C 
ATOM     14  C   UNL     1      33.087 -20.861 -19.954  0.00  0.00    +0.138 C 
ATOM     15  C   UNL     1      33.783 -22.556 -18.544  0.00  0.00    +0.151 C 
ATOM     16  H   UNL     1      34.090 -24.155 -17.235  0.00  0.00    +0.155 HD
ATOM     17  H   UNL     1      32.450 -23.845 -17.584  0.00  0.00    +0.155 HD
ENDBRANCH   4   6
BRANCH   2  18
ATOM     18  O   UNL     1      36.732 -18.275 -22.724  0.00  0.00    -0.378 OA
ATOM     19  H   UNL     1      36.906 -17.743 -21.933  0.00  0.00    +0.211 HD
ENDBRANCH   2  18
BRANCH   3  20
ATOM     20  O   UNL     1      35.673 -16.188 -24.168  0.00  0.00    -0.379 OA
ATOM     21  H   UNL     1      35.585 -15.236 -24.001  0.00  0.00    +0.211 HD
ENDBRANCH   3  20
BRANCH   5  22
ATOM     22  C   UNL     1      33.826 -15.130 -21.767  0.00  0.00    +0.186 C 
BRANCH  22  23
ATOM     23  O   UNL     1      34.326 -14.014 -22.487  0.00  0.00    -0.271 OA
BRANCH  23  24
ATOM     24  P   UNL     1      33.414 -13.386 -23.667  0.00  0.00    +0.473 P 
ATOM     25  O   UNL     1      33.244 -14.263 -24.873  0.00  0.00    -0.227 OA
BRANCH  24  26
ATOM     26  O   UNL     1      34.089 -11.944 -23.949  0.00  0.00    -0.303 OA
ATOM     27  H   UNL     1      34.306 -11.868 -24.892  0.00  0.00    +0.222 HD
ENDBRANCH  24  26
BRANCH  24  28
ATOM     28  O   UNL     1      32.041 -13.010 -22.898  0.00  0.00    -0.303 OA
ATOM     29  H   UNL     1      32.190 -13.031 -21.940  0.00  0.00    +0.222 HD
ENDBRANCH  24  28
ENDBRANCH  23  24
ENDBRANCH  22  23
ENDBRANCH   5  22
TORSDOF 8
ENDMDL
MODEL 3
REMARK VINA RESULT:      -8.8      1.666      2.548
REMARK  Name = 446858
REMARK  8 active torsions:
REMARK  status: ('A' for Active; 'I' for Inactive)
REMARK    1  A    between atoms: C_2  and  O_18
REMARK    2  A    between atoms: C_3  and  O_20
REMARK    3  A    between atoms: C_4  and  N_6
REMARK    4  A    between atoms: C_5  and  C_22
REMARK    5  A    between atoms: C_22  and  O_23
REMARK    6  A    between atoms: O_23  and  P_24
REMARK    7  A    between atoms: P_24  and  O_26
REMARK    8  A    between atoms: P_24  and  O_28
REMARK                            x       y       z     vdW  Elec       q    Type
REMARK                         _______ _______ _______ _____ _____    ______ ____
ROOT
ATOM      1  O   UNL     1      34.675 -24.010 -13.755  0.00  0.00    -0.333 OA
ATOM      2  C   UNL     1      34.515 -23.156 -15.976  0.00  0.00    +0.187 C 
ATOM      3  C   UNL     1      35.940 -23.002 -15.482  0.00  0.00    +0.171 C 
ATOM      4  C   UNL     1      33.784 -23.297 -14.642  0.00  0.00    +0.224 C 
ATOM      5  C   UNL     1      35.986 -24.023 -14.353  0.00  0.00    +0.176 C 
ENDROOT
BRANCH   4   6
ATOM      6  N   UNL     1      32.484 -23.955 -14.699  0.00  0.00    -0.252 N 
ATOM      7  N   UNL     1      30.869 -25.430 -14.238  0.00  0.00    -0.186 NA
ATOM      8  N   UNL     1      29.200 -24.506 -15.744  0.00  0.00    -0.283 NA
ATOM      9  N   UNL     1      29.962 -22.548 -16.983  0.00  0.00    -0.168 NA
ATOM     10  N   UNL     1      27.804 -23.409 -17.268  0.00  0.00    -0.292 N 
ATOM     11  C   UNL     1      31.413 -23.598 -15.475  0.00  0.00    +0.147 C 
ATOM     12  C   UNL     1      32.104 -25.060 -13.977  0.00  0.00    +0.234 C 
ATOM     13  C   UNL     1      30.426 -24.527 -15.171  0.00  0.00    +0.113 C 
ATOM     14  C   UNL     1      31.179 -22.594 -16.393  0.00  0.00    +0.138 C 
ATOM     15  C   UNL     1      29.061 -23.493 -16.627  0.00  0.00    +0.151 C 
ATOM     16  H   UNL     1      27.099 -24.064 -17.058  0.00  0.00    +0.155 HD
ATOM     17  H   UNL     1      27.633 -22.696 -17.924  0.00  0.00    +0.155 HD
ENDBRANCH   4   6
BRANCH   2  18
ATOM     18  O   UNL     1      34.394 -24.348 -16.746  0.00  0.00    -0.378 OA
ATOM     19  H   UNL     1      34.002 -25.047 -16.201  0.00  0.00    +0.211 HD
ENDBRANCH   2  18
BRANCH   3  20
ATOM     20  O   UNL     1      36.907 -23.267 -16.474  0.00  0.00    -0.379 OA
ATOM     21  H   UNL     1      36.491 -23.735 -17.216  0.00  0.00    +0.211 HD
ENDBRANCH   3  20
BRANCH   5  22
ATOM     22  C   UNL     1      37.030 -23.704 -13.298  0.00  0.00    +0.186 C 
BRANCH  22  23
ATOM     23  O   UNL     1      38.318 -23.793 -13.886  0.00  0.00    -0.271 OA
BRANCH  23  24
ATOM     24  P   UNL     1      39.014 -25.250 -14.001  0.00  0.00    +0.473 P 
ATOM     25  O   UNL     1      38.611 -26.232 -12.939  0.00  0.00    -0.227 OA
BRANCH  24  26
ATOM     26  O   UNL     1      40.595 -24.917 -14.070  0.00  0.00    -0.303 OA
ATOM     27  H   UNL     1      40.810 -24.550 -14.943  0.00  0.00    +0.222 HD
ENDBRANCH  24  26
BRANCH  24  28
ATOM     28  O   UNL     1      38.662 -25.698 -15.514  0.00  0.00    -0.303 OA
ATOM     29  H   UNL     1      38.348 -24.929 -16.015  0.00  0.00    +0.222 HD
ENDBRANCH  24  28
ENDBRANCH  23  24
ENDBRANCH  22  23
ENDBRANCH   5  22
TORSDOF 8
ENDMDL
MODEL 4
REMARK VINA RESULT:      -8.6      4.814      8.035
REMARK  Name = 446858
REMARK  8 active torsions:
REMARK  status: ('A' for Active; 'I' for Inactive)
REMARK    1  A    between atoms: C_2  and  O_18
REMARK    2  A    between atoms: C_3  and  O_20
REMARK    3  A    between atoms: C_4  and  N_6
REMARK    4  A    between atoms: C_5  and  C_22
REMARK    5  A    between atoms: C_22  and  O_23
REMARK    6  A    between atoms: O_23  and  P_24
REMARK    7  A    between atoms: P_24  and  O_26
REMARK    8  A    between atoms: P_24  and  O_28
REMARK                            x       y       z     vdW  Elec       q    Type
REMARK                         _______ _______ _______ _____ _____    ______ ____
ROOT
ATOM      1  O   UNL     1      33.290 -23.790 -13.656  0.00  0.00    -0.333 OA
ATOM      2  C   UNL     1      34.225 -23.915 -15.846  0.00  0.00    +0.187 C 
ATOM      3  C   UNL     1      32.724 -23.730 -15.953  0.00  0.00    +0.171 C 
ATOM      4  C   UNL     1      34.327 -24.448 -14.418  0.00  0.00    +0.224 C 
ATOM      5  C   UNL     1      32.387 -23.155 -14.583  0.00  0.00    +0.176 C 
ENDROOT
BRANCH   4   6
ATOM      6  N   UNL     1      35.622 -24.279 -13.770  0.00  0.00    -0.252 N 
ATOM      7  N   UNL     1      37.166 -23.475 -12.367  0.00  0.00    -0.186 NA
ATOM      8  N   UNL     1      39.008 -24.855 -13.149  0.00  0.00    -0.283 NA
ATOM      9  N   UNL     1      38.407 -26.373 -14.961  0.00  0.00    -0.168 NA
ATOM     10  N   UNL     1      40.582 -26.302 -14.100  0.00  0.00    -0.292 N 
ATOM     11  C   UNL     1      36.781 -24.951 -14.058  0.00  0.00    +0.147 C 
ATOM     12  C   UNL     1      35.909 -23.406 -12.749  0.00  0.00    +0.234 C 
ATOM     13  C   UNL     1      37.721 -24.436 -13.175  0.00  0.00    +0.113 C 
ATOM     14  C   UNL     1      37.127 -25.934 -14.963  0.00  0.00    +0.138 C 
ATOM     15  C   UNL     1      39.255 -25.814 -14.067  0.00  0.00    +0.151 C 
ATOM     16  H   UNL     1      41.255 -25.941 -13.478  0.00  0.00    +0.155 HD
ATOM     17  H   UNL     1      40.834 -27.001 -14.746  0.00  0.00    +0.155 HD
ENDBRANCH   4   6
BRANCH   2  18
ATOM     18  O   UNL     1      34.880 -22.657 -15.963  0.00  0.00    -0.378 OA
ATOM     19  H   UNL     1      34.431 -22.119 -16.634  0.00  0.00    +0.211 HD
ENDBRANCH   2  18
BRANCH   3  20
ATOM     20  O   UNL     1      32.341 -22.862 -16.998  0.00  0.00    -0.379 OA
ATOM     21  H   UNL     1      33.049 -22.219 -17.161  0.00  0.00    +0.211 HD
ENDBRANCH   3  20
BRANCH   5  22
ATOM     22  C   UNL     1      30.953 -23.417 -14.158  0.00  0.00    +0.186 C 
BRANCH  22  23
ATOM     23  O   UNL     1      30.113 -22.445 -14.759  0.00  0.00    -0.271 OA
BRANCH  23  24
ATOM     24  P   UNL     1      28.941 -22.949 -15.756  0.00  0.00    +0.473 P 
ATOM     25  O   UNL     1      28.588 -24.403 -15.636  0.00  0.00    -0.227 OA
BRANCH  24  26
ATOM     26  O   UNL     1      29.449 -22.478 -17.217  0.00  0.00    -0.303 OA
ATOM     27  H   UNL     1      29.790 -21.571 -17.164  0.00  0.00    +0.222 HD
ENDBRANCH  24  26
BRANCH  24  28
ATOM     28  O   UNL     1      27.731 -21.924 -15.435  0.00  0.00    -0.303 OA
ATOM     29  H   UNL     1      28.088 -21.029 -15.317  0.00  0.00    +0.222 HD
ENDBRANCH  24  28
ENDBRANCH  23  24
ENDBRANCH  22  23
ENDBRANCH   5  22
TORSDOF 8
ENDMDL
MODEL 5
REMARK VINA RESULT:      -8.6      2.454      4.020
REMARK  Name = 446858
REMARK  8 active torsions:
REMARK  status: ('A' for Active; 'I' for Inactive)
REMARK    1  A    between atoms: C_2  and  O_18
REMARK    2  A    between atoms: C_3  and  O_20
REMARK    3  A    between atoms: C_4  and  N_6
REMARK    4  A    between atoms: C_5  and  C_22
REMARK    5  A    between atoms: C_22  and  O_23
REMARK    6  A    between atoms: O_23  and  P_24
REMARK    7  A    between atoms: P_24  and  O_26
REMARK    8  A    between atoms: P_24  and  O_28
REMARK                            x       y       z     vdW  Elec       q    Type
REMARK                         _______ _______ _______ _____ _____    ______ ____
ROOT
ATOM      1  O   UNL     1      35.991 -23.154 -15.391  0.00  0.00    -0.333 OA
ATOM      2  C   UNL     1      33.855 -23.889 -14.627  0.00  0.00    +0.187 C 
ATOM      3  C   UNL     1      34.875 -24.084 -13.523  0.00  0.00    +0.171 C 
ATOM      4  C   UNL     1      34.783 -23.810 -15.838  0.00  0.00    +0.224 C 
ATOM      5  C   UNL     1      35.978 -23.125 -13.950  0.00  0.00    +0.176 C 
ENDROOT
BRANCH   4   6
ATOM      6  N   UNL     1      34.239 -23.136 -17.010  0.00  0.00    -0.252 N 
ATOM      7  N   UNL     1      32.742 -22.489 -18.539  0.00  0.00    -0.186 NA
ATOM      8  N   UNL     1      34.252 -21.109 -19.852  0.00  0.00    -0.283 NA
ATOM      9  N   UNL     1      36.534 -21.048 -18.992  0.00  0.00    -0.168 NA
ATOM     10  N   UNL     1      35.922 -19.862 -20.915  0.00  0.00    -0.292 N 
ATOM     11  C   UNL     1      34.914 -22.319 -17.879  0.00  0.00    +0.147 C 
ATOM     12  C   UNL     1      32.940 -23.204 -17.452  0.00  0.00    +0.234 C 
ATOM     13  C   UNL     1      33.965 -21.932 -18.815  0.00  0.00    +0.113 C 
ATOM     14  C   UNL     1      36.217 -21.872 -17.967  0.00  0.00    +0.138 C 
ATOM     15  C   UNL     1      35.546 -20.723 -19.859  0.00  0.00    +0.151 C 
ATOM     16  H   UNL     1      35.254 -19.583 -21.584  0.00  0.00    +0.155 HD
ATOM     17  H   UNL     1      36.850 -19.542 -20.983  0.00  0.00    +0.155 HD
ENDBRANCH   4   6
BRANCH   2  18
ATOM     18  O   UNL     1      33.165 -22.657 -14.439  0.00  0.00    -0.378 OA
ATOM     19  H   UNL     1      33.167 -22.155 -15.269  0.00  0.00    +0.211 HD
ENDBRANCH   2  18
BRANCH   3  20
ATOM     20  O   UNL     1      34.375 -23.778 -12.239  0.00  0.00    -0.379 OA
ATOM     21  H   UNL     1      34.126 -22.840 -12.204  0.00  0.00    +0.211 HD
ENDBRANCH   3  20
BRANCH   5  22
ATOM     22  C   UNL     1      37.347 -23.510 -13.419  0.00  0.00    +0.186 C 
BRANCH  22  23
ATOM     23  O   UNL     1      37.519 -24.910 -13.566  0.00  0.00    -0.271 OA
BRANCH  23  24
ATOM     24  P   UNL     1      38.614 -25.446 -14.630  0.00  0.00    +0.473 P 
ATOM     25  O   UNL     1      39.784 -26.167 -14.028  0.00  0.00    -0.227 OA
BRANCH  24  26
ATOM     26  O   UNL     1      38.984 -24.131 -15.497  0.00  0.00    -0.303 OA
ATOM     27  H   UNL     1      38.915 -23.344 -14.934  0.00  0.00    +0.222 HD
ENDBRANCH  24  26
BRANCH  24  28
ATOM     28  O   UNL     1      37.722 -26.326 -15.653  0.00  0.00    -0.303 OA
ATOM     29  H   UNL     1      37.942 -26.084 -16.566  0.00  0.00    +0.222 HD
ENDBRANCH  24  28
ENDBRANCH  23  24
ENDBRANCH  22  23
ENDBRANCH   5  22
TORSDOF 8
ENDMDL
MODEL 6
REMARK VINA RESULT:      -8.5      5.328      8.309
REMARK  Name = 446858
REMARK  8 active torsions:
REMARK  status: ('A' for Active; 'I' for Inactive)
REMARK    1  A    between atoms: C_2  and  O_18
REMARK    2  A    between atoms: C_3  and  O_20
REMARK    3  A    between atoms: C_4  and  N_6
REMARK    4  A    between atoms: C_5  and  C_22
REMARK    5  A    between atoms: C_22  and  O_23
REMARK    6  A    between atoms: O_23  and  P_24
REMARK    7  A    between atoms: P_24  and  O_26
REMARK    8  A    between atoms: P_24  and  O_28
REMARK                            x       y       z     vdW  Elec       q    Type
REMARK                         _______ _______ _______ _____ _____    ______ ____
ROOT
ATOM      1  O   UNL     1      31.804 -22.825 -15.226  0.00  0.00    -0.333 OA
ATOM      2  C   UNL     1      31.854 -24.630 -13.669  0.00  0.00    +0.187 C 
ATOM      3  C   UNL     1      30.429 -24.132 -13.812  0.00  0.00    +0.171 C 
ATOM      4  C   UNL     1      32.615 -23.410 -14.184  0.00  0.00    +0.224 C 
ATOM      5  C   UNL     1      30.489 -23.409 -15.152  0.00  0.00    +0.176 C 
ENDROOT
BRANCH   4   6
ATOM      6  N   UNL     1      33.966 -23.667 -14.670  0.00  0.00    -0.252 N 
ATOM      7  N   UNL     1      35.675 -23.817 -16.102  0.00  0.00    -0.186 NA
ATOM      8  N   UNL     1      37.324 -24.602 -14.498  0.00  0.00    -0.283 NA
ATOM      9  N   UNL     1      36.456 -24.856 -12.233  0.00  0.00    -0.168 NA
ATOM     10  N   UNL     1      38.687 -25.344 -12.747  0.00  0.00    -0.292 N 
ATOM     11  C   UNL     1      35.035 -24.110 -13.937  0.00  0.00    +0.147 C 
ATOM     12  C   UNL     1      34.405 -23.506 -15.962  0.00  0.00    +0.234 C 
ATOM     13  C   UNL     1      36.081 -24.195 -14.847  0.00  0.00    +0.113 C 
ATOM     14  C   UNL     1      35.224 -24.445 -12.612  0.00  0.00    +0.138 C 
ATOM     15  C   UNL     1      37.416 -24.908 -13.186  0.00  0.00    +0.151 C 
ATOM     16  H   UNL     1      39.434 -25.406 -13.386  0.00  0.00    +0.155 HD
ATOM     17  H   UNL     1      38.826 -25.585 -11.803  0.00  0.00    +0.155 HD
ENDBRANCH   4   6
BRANCH   2  18
ATOM     18  O   UNL     1      32.064 -25.752 -14.521  0.00  0.00    -0.378 OA
ATOM     19  H   UNL     1      32.117 -25.455 -15.441  0.00  0.00    +0.211 HD
ENDBRANCH   2  18
BRANCH   3  20
ATOM     20  O   UNL     1      29.471 -25.169 -13.814  0.00  0.00    -0.379 OA
ATOM     21  H   UNL     1      28.859 -25.045 -13.071  0.00  0.00    +0.211 HD
ENDBRANCH   3  20
BRANCH   5  22
ATOM     22  C   UNL     1      29.438 -22.322 -15.295  0.00  0.00    +0.186 C 
BRANCH  22  23
ATOM     23  O   UNL     1      29.036 -22.251 -16.654  0.00  0.00    -0.271 OA
BRANCH  23  24
ATOM     24  P   UNL     1      27.465 -22.416 -17.002  0.00  0.00    +0.473 P 
ATOM     25  O   UNL     1      26.872 -21.297 -17.808  0.00  0.00    -0.227 OA
BRANCH  24  26
ATOM     26  O   UNL     1      26.775 -22.671 -15.562  0.00  0.00    -0.303 OA
ATOM     27  H   UNL     1      27.228 -22.140 -14.888  0.00  0.00    +0.222 HD
ENDBRANCH  24  26
BRANCH  24  28
ATOM     28  O   UNL     1      27.404 -23.871 -17.707  0.00  0.00    -0.303 OA
ATOM     29  H   UNL     1      26.590 -23.943 -18.230  0.00  0.00    +0.222 HD
ENDBRANCH  24  28
ENDBRANCH  23  24
ENDBRANCH  22  23
ENDBRANCH   5  22
TORSDOF 8
ENDMDL
MODEL 7
REMARK VINA RESULT:      -8.4      2.106      2.838
REMARK  Name = 446858
REMARK  8 active torsions:
REMARK  status: ('A' for Active; 'I' for Inactive)
REMARK    1  A    between atoms: C_2  and  O_18
REMARK    2  A    between atoms: C_3  and  O_20
REMARK    3  A    between atoms: C_4  and  N_6
REMARK    4  A    between atoms: C_5  and  C_22
REMARK    5  A    between atoms: C_22  and  O_23
REMARK    6  A    between atoms: O_23  and  P_24
REMARK    7  A    between atoms: P_24  and  O_26
REMARK    8  A    between atoms: P_24  and  O_28
REMARK                            x       y       z     vdW  Elec       q    Type
REMARK                         _______ _______ _______ _____ _____    ______ ____
ROOT
ATOM      1  O   UNL     1      35.202 -24.587 -14.978  0.00  0.00    -0.333 OA
ATOM      2  C   UNL     1      36.203 -22.613 -15.866  0.00  0.00    +0.187 C 
ATOM      3  C   UNL     1      37.238 -23.385 -15.071  0.00  0.00    +0.171 C 
ATOM      4  C   UNL     1      34.922 -23.201 -15.277  0.00  0.00    +0.224 C 
ATOM      5  C   UNL     1      36.628 -24.780 -15.046  0.00  0.00    +0.176 C 
ENDROOT
BRANCH   4   6
ATOM      6  N   UNL     1      33.732 -23.088 -16.112  0.00  0.00    -0.252 N 
ATOM      7  N   UNL     1      32.488 -22.921 -17.962  0.00  0.00    -0.186 NA
ATOM      8  N   UNL     1      30.329 -22.845 -16.848  0.00  0.00    -0.283 NA
ATOM      9  N   UNL     1      30.467 -22.972 -14.416  0.00  0.00    -0.168 NA
ATOM     10  N   UNL     1      28.407 -22.792 -15.514  0.00  0.00    -0.292 N 
ATOM     11  C   UNL     1      32.430 -23.029 -15.688  0.00  0.00    +0.147 C 
ATOM     12  C   UNL     1      33.710 -23.019 -17.484  0.00  0.00    +0.234 C 
ATOM     13  C   UNL     1      31.680 -22.926 -16.852  0.00  0.00    +0.113 C 
ATOM     14  C   UNL     1      31.817 -23.052 -14.452  0.00  0.00    +0.138 C 
ATOM     15  C   UNL     1      29.816 -22.875 -15.599  0.00  0.00    +0.151 C 
ATOM     16  H   UNL     1      27.868 -22.719 -16.335  0.00  0.00    +0.155 HD
ATOM     17  H   UNL     1      27.965 -22.807 -14.635  0.00  0.00    +0.155 HD
ENDBRANCH   4   6
BRANCH   2  18
ATOM     18  O   UNL     1      36.315 -22.932 -17.249  0.00  0.00    -0.378 OA
ATOM     19  H   UNL     1      37.251 -22.950 -17.502  0.00  0.00    +0.211 HD
ENDBRANCH   2  18
BRANCH   3  20
ATOM     20  O   UNL     1      38.518 -23.379 -15.665  0.00  0.00    -0.379 OA
ATOM     21  H   UNL     1      38.673 -24.228 -16.109  0.00  0.00    +0.211 HD
ENDBRANCH   3  20
BRANCH   5  22
ATOM     22  C   UNL     1      37.087 -25.615 -13.864  0.00  0.00    +0.186 C 
BRANCH  22  23
ATOM     23  O   UNL     1      36.073 -25.600 -12.872  0.00  0.00    -0.271 OA
BRANCH  23  24
ATOM     24  P   UNL     1      36.252 -24.613 -11.602  0.00  0.00    +0.473 P 
ATOM     25  O   UNL     1      37.672 -24.373 -11.179  0.00  0.00    -0.227 OA
BRANCH  24  26
ATOM     26  O   UNL     1      35.294 -25.262 -10.471  0.00  0.00    -0.303 OA
ATOM     27  H   UNL     1      35.592 -24.977  -9.593  0.00  0.00    +0.222 HD
ENDBRANCH  24  26
BRANCH  24  28
ATOM     28  O   UNL     1      35.443 -23.289 -12.058  0.00  0.00    -0.303 OA
ATOM     29  H   UNL     1      35.994 -22.764 -12.660  0.00  0.00    +0.222 HD
ENDBRANCH  24  28
ENDBRANCH  23  24
ENDBRANCH  22  23
ENDBRANCH   5  22
TORSDOF 8
ENDMDL
MODEL 8
REMARK VINA RESULT:      -8.4      1.588      2.742
REMARK  Name = 446858
REMARK  8 active torsions:
REMARK  status: ('A' for Active; 'I' for Inactive)
REMARK    1  A    between atoms: C_2  and  O_18
REMARK    2  A    between atoms: C_3  and  O_20
REMARK    3  A    between atoms: C_4  and  N_6
REMARK    4  A    between atoms: C_5  and  C_22
REMARK    5  A    between atoms: C_22  and  O_23
REMARK    6  A    between atoms: O_23  and  P_24
REMARK    7  A    between atoms: P_24  and  O_26
REMARK    8  A    between atoms: P_24  and  O_28
REMARK                            x       y       z     vdW  Elec       q    Type
REMARK                         _______ _______ _______ _____ _____    ______ ____
ROOT
ATOM      1  O   UNL     1      36.120 -25.396 -13.681  0.00  0.00    -0.333 OA
ATOM      2  C   UNL     1      35.893 -23.497 -12.257  0.00  0.00    +0.187 C 
ATOM      3  C   UNL     1      37.227 -24.166 -11.989  0.00  0.00    +0.171 C 
ATOM      4  C   UNL     1      35.143 -24.651 -12.919  0.00  0.00    +0.224 C 
ATOM      5  C   UNL     1      37.432 -24.965 -13.269  0.00  0.00    +0.176 C 
ENDROOT
BRANCH   4   6
ATOM      6  N   UNL     1      34.017 -24.273 -13.764  0.00  0.00    -0.252 N 
ATOM      7  N   UNL     1      31.901 -23.884 -14.372  0.00  0.00    -0.186 NA
ATOM      8  N   UNL     1      32.382 -23.180 -16.648  0.00  0.00    -0.283 NA
ATOM      9  N   UNL     1      34.755 -23.207 -17.210  0.00  0.00    -0.168 NA
ATOM     10  N   UNL     1      33.139 -22.552 -18.771  0.00  0.00    -0.292 N 
ATOM     11  C   UNL     1      34.069 -23.850 -15.067  0.00  0.00    +0.147 C 
ATOM     12  C   UNL     1      32.693 -24.275 -13.397  0.00  0.00    +0.234 C 
ATOM     13  C   UNL     1      32.746 -23.616 -15.419  0.00  0.00    +0.113 C 
ATOM     14  C   UNL     1      35.089 -23.643 -15.973  0.00  0.00    +0.138 C 
ATOM     15  C   UNL     1      33.442 -23.006 -17.467  0.00  0.00    +0.151 C 
ATOM     16  H   UNL     1      32.203 -22.383 -19.029  0.00  0.00    +0.155 HD
ATOM     17  H   UNL     1      33.863 -22.404 -19.421  0.00  0.00    +0.155 HD
ENDBRANCH   4   6
BRANCH   2  18
ATOM     18  O   UNL     1      36.065 -22.418 -13.170  0.00  0.00    -0.378 OA
ATOM     19  H   UNL     1      36.939 -22.019 -13.039  0.00  0.00    +0.211 HD
ENDBRANCH   2  18
BRANCH   3  20
ATOM     20  O   UNL     1      38.276 -23.250 -11.763  0.00  0.00    -0.379 OA
ATOM     21  H   UNL     1      38.512 -23.254 -10.822  0.00  0.00    +0.211 HD
ENDBRANCH   3  20
BRANCH   5  22
ATOM     22  C   UNL     1      38.332 -26.174 -13.085  0.00  0.00    +0.186 C 
BRANCH  22  23
ATOM     23  O   UNL     1      38.941 -26.485 -14.327  0.00  0.00    -0.271 OA
BRANCH  23  24
ATOM     24  P   UNL     1      40.419 -25.898 -14.630  0.00  0.00    +0.473 P 
ATOM     25  O   UNL     1      40.717 -24.571 -13.995  0.00  0.00    -0.227 OA
BRANCH  24  26
ATOM     26  O   UNL     1      40.522 -25.930 -16.244  0.00  0.00    -0.303 OA
ATOM     27  H   UNL     1      40.445 -25.027 -16.591  0.00  0.00    +0.222 HD
ENDBRANCH  24  26
BRANCH  24  28
ATOM     28  O   UNL     1      41.388 -27.108 -14.171  0.00  0.00    -0.303 OA
ATOM     29  H   UNL     1      42.306 -26.891 -14.396  0.00  0.00    +0.222 HD
ENDBRANCH  24  28
ENDBRANCH  23  24
ENDBRANCH  22  23
ENDBRANCH   5  22
TORSDOF 8
ENDMDL
MODEL 9
REMARK VINA RESULT:      -8.4      8.810     10.528
REMARK  Name = 446858
REMARK  8 active torsions:
REMARK  status: ('A' for Active; 'I' for Inactive)
REMARK    1  A    between atoms: C_2  and  O_18
REMARK    2  A    between atoms: C_3  and  O_20
REMARK    3  A    between atoms: C_4  and  N_6
REMARK    4  A    between atoms: C_5  and  C_22
REMARK    5  A    between atoms: C_22  and  O_23
REMARK    6  A    between atoms: O_23  and  P_24
REMARK    7  A    between atoms: P_24  and  O_26
REMARK    8  A    between atoms: P_24  and  O_28
REMARK                            x       y       z     vdW  Elec       q    Type
REMARK                         _______ _______ _______ _____ _____    ______ ____
ROOT
ATOM      1  O   UNL     1      33.855 -19.012 -22.137  0.00  0.00    -0.333 OA
ATOM      2  C   UNL     1      35.915 -17.862 -21.785  0.00  0.00    +0.187 C 
ATOM      3  C   UNL     1      35.678 -18.827 -20.639  0.00  0.00    +0.171 C 
ATOM      4  C   UNL     1      34.489 -17.726 -22.318  0.00  0.00    +0.224 C 
ATOM      5  C   UNL     1      34.682 -19.799 -21.257  0.00  0.00    +0.176 C 
ENDROOT
BRANCH   4   6
ATOM      6  N   UNL     1      34.371 -17.287 -23.703  0.00  0.00    -0.252 N 
ATOM      7  N   UNL     1      34.404 -17.392 -25.936  0.00  0.00    -0.186 NA
ATOM      8  N   UNL     1      33.770 -15.080 -26.339  0.00  0.00    -0.283 NA
ATOM      9  N   UNL     1      33.410 -13.785 -24.304  0.00  0.00    -0.168 NA
ATOM     10  N   UNL     1      33.152 -12.825 -26.423  0.00  0.00    -0.292 N 
ATOM     11  C   UNL     1      34.029 -16.036 -24.145  0.00  0.00    +0.147 C 
ATOM     12  C   UNL     1      34.586 -18.061 -24.818  0.00  0.00    +0.234 C 
ATOM     13  C   UNL     1      34.056 -16.128 -25.530  0.00  0.00    +0.113 C 
ATOM     14  C   UNL     1      33.701 -14.849 -23.522  0.00  0.00    +0.138 C 
ATOM     15  C   UNL     1      33.462 -13.963 -25.644  0.00  0.00    +0.151 C 
ATOM     16  H   UNL     1      33.169 -12.881 -27.406  0.00  0.00    +0.155 HD
ATOM     17  H   UNL     1      32.919 -11.976 -25.983  0.00  0.00    +0.155 HD
ENDBRANCH   4   6
BRANCH   2  18
ATOM     18  O   UNL     1      36.762 -18.463 -22.759  0.00  0.00    -0.378 OA
ATOM     19  H   UNL     1      36.281 -18.552 -23.596  0.00  0.00    +0.211 HD
ENDBRANCH   2  18
BRANCH   3  20
ATOM     20  O   UNL     1      36.852 -19.478 -20.205  0.00  0.00    -0.379 OA
ATOM     21  H   UNL     1      37.090 -20.174 -20.839  0.00  0.00    +0.211 HD
ENDBRANCH   3  20
BRANCH   5  22
ATOM     22  C   UNL     1      33.810 -20.500 -20.230  0.00  0.00    +0.186 C 
BRANCH  22  23
ATOM     23  O   UNL     1      34.611 -21.412 -19.496  0.00  0.00    -0.271 OA
BRANCH  23  24
ATOM     24  P   UNL     1      33.876 -22.604 -18.685  0.00  0.00    +0.473 P 
ATOM     25  O   UNL     1      32.451 -22.326 -18.301  0.00  0.00    -0.227 OA
BRANCH  24  26
ATOM     26  O   UNL     1      34.878 -22.906 -17.451  0.00  0.00    -0.303 OA
ATOM     27  H   UNL     1      34.370 -22.948 -16.626  0.00  0.00    +0.222 HD
ENDBRANCH  24  26
BRANCH  24  28
ATOM     28  O   UNL     1      34.084 -23.881 -19.655  0.00  0.00    -0.303 OA
ATOM     29  H   UNL     1      33.291 -24.439 -19.631  0.00  0.00    +0.222 HD
ENDBRANCH  24  28
ENDBRANCH  23  24
ENDBRANCH  22  23
ENDBRANCH   5  22
TORSDOF 8
ENDMDL
