MODEL 1
REMARK VINA RESULT:      -6.3      0.000      0.000
REMARK  Name = 78386
REMARK  5 active torsions:
REMARK  status: ('A' for Active; 'I' for Inactive)
REMARK    1  A    between atoms: C_1  and  C_2
REMARK    2  A    between atoms: C_1  and  C_8
REMARK    3  A    between atoms: C_2  and  C_4
REMARK    4  A    between atoms: C_8  and  C_10
REMARK    5  A    between atoms: C_10  and  O_11
REMARK                            x       y       z     vdW  Elec       q    Type
REMARK                         _______ _______ _______ _____ _____    ______ ____
ROOT
ATOM      1  C   UNL     1      35.343 -18.676 -22.728  0.00  0.00    +0.017 C 
ENDROOT
BRANCH   1   2
ATOM      2  C   UNL     1      34.294 -18.614 -21.609  0.00  0.00    +0.034 C 
BRANCH   2   4
ATOM      3  S   UNL     1      35.693 -20.611 -20.316  0.00  0.00    -0.091 S 
ATOM      4  C   UNL     1      34.237 -19.842 -20.737  0.00  0.00    +0.007 C 
ATOM      5  C   UNL     1      33.131 -20.443 -20.222  0.00  0.00    +0.003 C 
ATOM      6  C   UNL     1      33.482 -21.586 -19.446  0.00  0.00    +0.007 C 
ATOM      7  C   UNL     1      34.843 -21.791 -19.414  0.00  0.00    +0.035 C 
ENDBRANCH   2   4
ENDBRANCH   1   2
BRANCH   1   8
ATOM      8  C   UNL     1      34.763 -18.482 -24.133  0.00  0.00    +0.110 C 
BRANCH   8  10
ATOM      9  O   UNL     1      34.656 -16.726 -25.817  0.00  0.00    -0.250 OA
ATOM     10  C   UNL     1      34.982 -17.095 -24.696  0.00  0.00    +0.314 C 
BRANCH  10  11
ATOM     11  O   UNL     1      35.638 -16.294 -23.819  0.00  0.00    -0.480 OA
ATOM     12  H   UNL     1      36.388 -16.617 -23.358  0.00  0.00    +0.295 HD
ENDBRANCH  10  11
ENDBRANCH   8  10
ENDBRANCH   1   8
TORSDOF 5
ENDMDL
MODEL 2
REMARK VINA RESULT:      -6.0      3.786      5.790
REMARK  Name = 78386
REMARK  5 active torsions:
REMARK  status: ('A' for Active; 'I' for Inactive)
REMARK    1  A    between atoms: C_1  and  C_2
REMARK    2  A    between atoms: C_1  and  C_8
REMARK    3  A    between atoms: C_2  and  C_4
REMARK    4  A    between atoms: C_8  and  C_10
REMARK    5  A    between atoms: C_10  and  O_11
REMARK                            x       y       z     vdW  Elec       q    Type
REMARK                         _______ _______ _______ _____ _____    ______ ____
ROOT
ATOM      1  C   UNL     1      34.323 -20.008 -20.729  0.00  0.00    +0.017 C 
ENDROOT
BRANCH   1   2
ATOM      2  C   UNL     1      35.419 -19.095 -21.297  0.00  0.00    +0.034 C 
BRANCH   2   4
ATOM      3  S   UNL     1      35.081 -16.810 -22.806  0.00  0.00    -0.091 S 
ATOM      4  C   UNL     1      35.103 -18.501 -22.645  0.00  0.00    +0.007 C 
ATOM      5  C   UNL     1      34.819 -19.165 -23.798  0.00  0.00    +0.003 C 
ATOM      6  C   UNL     1      34.571 -18.255 -24.866  0.00  0.00    +0.007 C 
ATOM      7  C   UNL     1      34.682 -16.943 -24.465  0.00  0.00    +0.035 C 
ENDBRANCH   2   4
ENDBRANCH   1   2
BRANCH   1   8
ATOM      8  C   UNL     1      34.849 -21.107 -19.800  0.00  0.00    +0.110 C 
BRANCH   8  10
ATOM      9  O   UNL     1      33.923 -23.310 -19.334  0.00  0.00    -0.250 OA
ATOM     10  C   UNL     1      33.789 -22.093 -19.363  0.00  0.00    +0.314 C 
BRANCH  10  11
ATOM     11  O   UNL     1      32.626 -21.472 -19.039  0.00  0.00    -0.480 OA
ATOM     12  H   UNL     1      31.875 -21.567 -19.592  0.00  0.00    +0.295 HD
ENDBRANCH  10  11
ENDBRANCH   8  10
ENDBRANCH   1   8
TORSDOF 5
ENDMDL
MODEL 3
REMARK VINA RESULT:      -5.9      5.363      6.997
REMARK  Name = 78386
REMARK  5 active torsions:
REMARK  status: ('A' for Active; 'I' for Inactive)
REMARK    1  A    between atoms: C_1  and  C_2
REMARK    2  A    between atoms: C_1  and  C_8
REMARK    3  A    between atoms: C_2  and  C_4
REMARK    4  A    between atoms: C_8  and  C_10
REMARK    5  A    between atoms: C_10  and  O_11
REMARK                            x       y       z     vdW  Elec       q    Type
REMARK                         _______ _______ _______ _____ _____    ______ ____
ROOT
ATOM      1  C   UNL     1      36.122 -21.988 -17.899  0.00  0.00    +0.017 C 
ENDROOT
BRANCH   1   2
ATOM      2  C   UNL     1      36.381 -21.375 -19.283  0.00  0.00    +0.034 C 
BRANCH   2   4
ATOM      3  S   UNL     1      35.372 -19.546 -21.086  0.00  0.00    -0.091 S 
ATOM      4  C   UNL     1      35.161 -20.786 -19.943  0.00  0.00    +0.007 C 
ATOM      5  C   UNL     1      33.860 -21.128 -19.740  0.00  0.00    +0.003 C 
ATOM      6  C   UNL     1      32.990 -20.343 -20.550  0.00  0.00    +0.007 C 
ATOM      7  C   UNL     1      33.681 -19.444 -21.331  0.00  0.00    +0.035 C 
ENDBRANCH   2   4
ENDBRANCH   1   2
BRANCH   1   8
ATOM      8  C   UNL     1      37.180 -21.625 -16.851  0.00  0.00    +0.110 C 
BRANCH   8  10
ATOM      9  O   UNL     1      36.595 -22.901 -14.862  0.00  0.00    -0.250 OA
ATOM     10  C   UNL     1      37.368 -22.681 -15.785  0.00  0.00    +0.314 C 
BRANCH  10  11
ATOM     11  O   UNL     1      38.541 -23.348 -15.939  0.00  0.00    -0.480 OA
ATOM     12  H   UNL     1      39.147 -23.401 -15.227  0.00  0.00    +0.295 HD
ENDBRANCH  10  11
ENDBRANCH   8  10
ENDBRANCH   1   8
TORSDOF 5
ENDMDL
MODEL 4
REMARK VINA RESULT:      -5.9      1.399      1.831
REMARK  Name = 78386
REMARK  5 active torsions:
REMARK  status: ('A' for Active; 'I' for Inactive)
REMARK    1  A    between atoms: C_1  and  C_2
REMARK    2  A    between atoms: C_1  and  C_8
REMARK    3  A    between atoms: C_2  and  C_4
REMARK    4  A    between atoms: C_8  and  C_10
REMARK    5  A    between atoms: C_10  and  O_11
REMARK                            x       y       z     vdW  Elec       q    Type
REMARK                         _______ _______ _______ _____ _____    ______ ____
ROOT
ATOM      1  C   UNL     1      34.508 -18.158 -22.008  0.00  0.00    +0.017 C 
ENDROOT
BRANCH   1   2
ATOM      2  C   UNL     1      35.523 -19.092 -21.334  0.00  0.00    +0.034 C 
BRANCH   2   4
ATOM      3  S   UNL     1      35.937 -21.311 -19.746  0.00  0.00    -0.091 S 
ATOM      4  C   UNL     1      34.909 -20.193 -20.510  0.00  0.00    +0.007 C 
ATOM      5  C   UNL     1      33.587 -20.424 -20.285  0.00  0.00    +0.003 C 
ATOM      6  C   UNL     1      33.398 -21.564 -19.453  0.00  0.00    +0.007 C 
ATOM      7  C   UNL     1      34.593 -22.141 -19.086  0.00  0.00    +0.035 C 
ENDBRANCH   2   4
ENDBRANCH   1   2
BRANCH   1   8
ATOM      8  C   UNL     1      34.560 -16.714 -21.500  0.00  0.00    +0.110 C 
BRANCH   8  10
ATOM      9  O   UNL     1      34.414 -14.559 -22.625  0.00  0.00    -0.250 OA
ATOM     10  C   UNL     1      34.859 -15.699 -22.581  0.00  0.00    +0.314 C 
BRANCH  10  11
ATOM     11  O   UNL     1      35.660 -16.215 -23.548  0.00  0.00    -0.480 OA
ATOM     12  H   UNL     1      35.813 -15.732 -24.337  0.00  0.00    +0.295 HD
ENDBRANCH  10  11
ENDBRANCH   8  10
ENDBRANCH   1   8
TORSDOF 5
ENDMDL
MODEL 5
REMARK VINA RESULT:      -5.9      3.881      5.598
REMARK  Name = 78386
REMARK  5 active torsions:
REMARK  status: ('A' for Active; 'I' for Inactive)
REMARK    1  A    between atoms: C_1  and  C_2
REMARK    2  A    between atoms: C_1  and  C_8
REMARK    3  A    between atoms: C_2  and  C_4
REMARK    4  A    between atoms: C_8  and  C_10
REMARK    5  A    between atoms: C_10  and  O_11
REMARK                            x       y       z     vdW  Elec       q    Type
REMARK                         _______ _______ _______ _____ _____    ______ ____
ROOT
ATOM      1  C   UNL     1      34.256 -19.400 -21.810  0.00  0.00    +0.017 C 
ENDROOT
BRANCH   1   2
ATOM      2  C   UNL     1      35.329 -18.388 -21.382  0.00  0.00    +0.034 C 
BRANCH   2   4
ATOM      3  S   UNL     1      34.958 -16.334 -23.188  0.00  0.00    -0.091 S 
ATOM      4  C   UNL     1      34.950 -16.946 -21.602  0.00  0.00    +0.007 C 
ATOM      5  C   UNL     1      34.588 -16.030 -20.664  0.00  0.00    +0.003 C 
ATOM      6  C   UNL     1      34.304 -14.768 -21.260  0.00  0.00    +0.007 C 
ATOM      7  C   UNL     1      34.465 -14.794 -22.628  0.00  0.00    +0.035 C 
ENDBRANCH   2   4
ENDBRANCH   1   2
BRANCH   1   8
ATOM      8  C   UNL     1      33.309 -19.816 -20.679  0.00  0.00    +0.110 C 
BRANCH   8  10
ATOM      9  O   UNL     1      34.897 -21.199 -19.456  0.00  0.00    -0.250 OA
ATOM     10  C   UNL     1      33.773 -21.035 -19.914  0.00  0.00    +0.314 C 
BRANCH  10  11
ATOM     11  O   UNL     1      32.797 -21.975 -19.824  0.00  0.00    -0.480 OA
ATOM     12  H   UNL     1      32.056 -21.936 -20.397  0.00  0.00    +0.295 HD
ENDBRANCH  10  11
ENDBRANCH   8  10
ENDBRANCH   1   8
TORSDOF 5
ENDMDL
MODEL 6
REMARK VINA RESULT:      -5.8      8.843      9.667
REMARK  Name = 78386
REMARK  5 active torsions:
REMARK  status: ('A' for Active; 'I' for Inactive)
REMARK    1  A    between atoms: C_1  and  C_2
REMARK    2  A    between atoms: C_1  and  C_8
REMARK    3  A    between atoms: C_2  and  C_4
REMARK    4  A    between atoms: C_8  and  C_10
REMARK    5  A    between atoms: C_10  and  O_11
REMARK                            x       y       z     vdW  Elec       q    Type
REMARK                         _______ _______ _______ _____ _____    ______ ____
ROOT
ATOM      1  C   UNL     1      28.545 -22.531 -16.026  0.00  0.00    +0.017 C 
ENDROOT
BRANCH   1   2
ATOM      2  C   UNL     1      30.022 -22.689 -16.415  0.00  0.00    +0.034 C 
BRANCH   2   4
ATOM      3  S   UNL     1      30.194 -24.852 -14.709  0.00  0.00    -0.091 S 
ATOM      4  C   UNL     1      30.852 -23.454 -15.416  0.00  0.00    +0.007 C 
ATOM      5  C   UNL     1      32.110 -23.164 -14.987  0.00  0.00    +0.003 C 
ATOM      6  C   UNL     1      32.563 -24.122 -14.035  0.00  0.00    +0.007 C 
ATOM      7  C   UNL     1      31.619 -25.096 -13.793  0.00  0.00    +0.035 C 
ENDBRANCH   2   4
ENDBRANCH   1   2
BRANCH   1   8
ATOM      8  C   UNL     1      27.578 -22.627 -17.211  0.00  0.00    +0.110 C 
BRANCH   8  10
ATOM      9  O   UNL     1      26.393 -20.617 -17.908  0.00  0.00    -0.250 OA
ATOM     10  C   UNL     1      26.471 -21.596 -17.177  0.00  0.00    +0.314 C 
BRANCH  10  11
ATOM     11  O   UNL     1      25.572 -21.856 -16.194  0.00  0.00    -0.480 OA
ATOM     12  H   UNL     1      24.695 -22.103 -16.414  0.00  0.00    +0.295 HD
ENDBRANCH  10  11
ENDBRANCH   8  10
ENDBRANCH   1   8
TORSDOF 5
ENDMDL
MODEL 7
REMARK VINA RESULT:      -5.7      7.725      8.994
REMARK  Name = 78386
REMARK  5 active torsions:
REMARK  status: ('A' for Active; 'I' for Inactive)
REMARK    1  A    between atoms: C_1  and  C_2
REMARK    2  A    between atoms: C_1  and  C_8
REMARK    3  A    between atoms: C_2  and  C_4
REMARK    4  A    between atoms: C_8  and  C_10
REMARK    5  A    between atoms: C_10  and  O_11
REMARK                            x       y       z     vdW  Elec       q    Type
REMARK                         _______ _______ _______ _____ _____    ______ ____
ROOT
ATOM      1  C   UNL     1      29.482 -23.557 -15.873  0.00  0.00    +0.017 C 
ENDROOT
BRANCH   1   2
ATOM      2  C   UNL     1      30.677 -23.297 -14.944  0.00  0.00    +0.034 C 
BRANCH   2   4
ATOM      3  S   UNL     1      33.405 -23.634 -14.706  0.00  0.00    -0.091 S 
ATOM      4  C   UNL     1      32.017 -23.309 -15.631  0.00  0.00    +0.007 C 
ATOM      5  C   UNL     1      32.278 -23.083 -16.947  0.00  0.00    +0.003 C 
ATOM      6  C   UNL     1      33.673 -23.179 -17.219  0.00  0.00    +0.007 C 
ATOM      7  C   UNL     1      34.401 -23.475 -16.088  0.00  0.00    +0.035 C 
ENDBRANCH   2   4
ENDBRANCH   1   2
BRANCH   1   8
ATOM      8  C   UNL     1      28.373 -22.505 -15.768  0.00  0.00    +0.110 C 
BRANCH   8  10
ATOM      9  O   UNL     1      26.950 -21.350 -17.371  0.00  0.00    -0.250 OA
ATOM     10  C   UNL     1      27.548 -22.361 -17.027  0.00  0.00    +0.314 C 
BRANCH  10  11
ATOM     11  O   UNL     1      27.503 -23.520 -17.734  0.00  0.00    -0.480 OA
ATOM     12  H   UNL     1      27.907 -23.569 -18.579  0.00  0.00    +0.295 HD
ENDBRANCH  10  11
ENDBRANCH   8  10
ENDBRANCH   1   8
TORSDOF 5
ENDMDL
MODEL 8
REMARK VINA RESULT:      -5.7      2.467      3.959
REMARK  Name = 78386
REMARK  5 active torsions:
REMARK  status: ('A' for Active; 'I' for Inactive)
REMARK    1  A    between atoms: C_1  and  C_2
REMARK    2  A    between atoms: C_1  and  C_8
REMARK    3  A    between atoms: C_2  and  C_4
REMARK    4  A    between atoms: C_8  and  C_10
REMARK    5  A    between atoms: C_10  and  O_11
REMARK                            x       y       z     vdW  Elec       q    Type
REMARK                         _______ _______ _______ _____ _____    ______ ____
ROOT
ATOM      1  C   UNL     1      33.382 -14.959 -23.369  0.00  0.00    +0.017 C 
ENDROOT
BRANCH   1   2
ATOM      2  C   UNL     1      34.766 -15.524 -23.019  0.00  0.00    +0.034 C 
BRANCH   2   4
ATOM      3  S   UNL     1      34.812 -17.765 -21.410  0.00  0.00    -0.091 S 
ATOM      4  C   UNL     1      34.826 -17.027 -22.941  0.00  0.00    +0.007 C 
ATOM      5  C   UNL     1      34.893 -17.910 -23.973  0.00  0.00    +0.003 C 
ATOM      6  C   UNL     1      34.936 -19.253 -23.499  0.00  0.00    +0.007 C 
ATOM      7  C   UNL     1      34.898 -19.318 -22.124  0.00  0.00    +0.035 C 
ENDBRANCH   2   4
ENDBRANCH   1   2
BRANCH   1   8
ATOM      8  C   UNL     1      33.373 -14.062 -24.612  0.00  0.00    +0.110 C 
BRANCH   8  10
ATOM      9  O   UNL     1      33.796 -15.725 -26.339  0.00  0.00    -0.250 OA
ATOM     10  C   UNL     1      33.111 -14.810 -25.900  0.00  0.00    +0.314 C 
BRANCH  10  11
ATOM     11  O   UNL     1      32.032 -14.315 -26.559  0.00  0.00    -0.480 OA
ATOM     12  H   UNL     1      31.178 -14.389 -26.181  0.00  0.00    +0.295 HD
ENDBRANCH  10  11
ENDBRANCH   8  10
ENDBRANCH   1   8
TORSDOF 5
ENDMDL
MODEL 9
REMARK VINA RESULT:      -5.5      8.543     10.736
REMARK  Name = 78386
REMARK  5 active torsions:
REMARK  status: ('A' for Active; 'I' for Inactive)
REMARK    1  A    between atoms: C_1  and  C_2
REMARK    2  A    between atoms: C_1  and  C_8
REMARK    3  A    between atoms: C_2  and  C_4
REMARK    4  A    between atoms: C_8  and  C_10
REMARK    5  A    between atoms: C_10  and  O_11
REMARK                            x       y       z     vdW  Elec       q    Type
REMARK                         _______ _______ _______ _____ _____    ______ ____
ROOT
ATOM      1  C   UNL     1      37.920 -26.036 -14.206  0.00  0.00    +0.017 C 
ENDROOT
BRANCH   1   2
ATOM      2  C   UNL     1      36.742 -25.299 -13.554  0.00  0.00    +0.034 C 
BRANCH   2   4
ATOM      3  S   UNL     1      36.719 -23.319 -15.475  0.00  0.00    -0.091 S 
ATOM      4  C   UNL     1      35.923 -24.465 -14.505  0.00  0.00    +0.007 C 
ATOM      5  C   UNL     1      34.577 -24.506 -14.698  0.00  0.00    +0.003 C 
ATOM      6  C   UNL     1      34.170 -23.560 -15.683  0.00  0.00    +0.007 C 
ATOM      7  C   UNL     1      35.235 -22.849 -16.188  0.00  0.00    +0.035 C 
ENDBRANCH   2   4
ENDBRANCH   1   2
BRANCH   1   8
ATOM      8  C   UNL     1      39.286 -25.410 -13.907  0.00  0.00    +0.110 C 
BRANCH   8  10
ATOM      9  O   UNL     1      41.320 -26.740 -14.063  0.00  0.00    -0.250 OA
ATOM     10  C   UNL     1      40.437 -26.094 -14.612  0.00  0.00    +0.314 C 
BRANCH  10  11
ATOM     11  O   UNL     1      40.410 -25.871 -15.951  0.00  0.00    -0.480 OA
ATOM     12  H   UNL     1      40.478 -26.591 -16.548  0.00  0.00    +0.295 HD
ENDBRANCH  10  11
ENDBRANCH   8  10
ENDBRANCH   1   8
TORSDOF 5
ENDMDL
