MODEL 1
REMARK VINA RESULT:      -7.5      0.000      0.000
REMARK  Name = 444753
REMARK  1 active torsions:
REMARK  status: ('A' for Active; 'I' for Inactive)
REMARK    1  A    between atoms: C_4  and  C_12
REMARK                            x       y       z     vdW  Elec       q    Type
REMARK                         _______ _______ _______ _____ _____    ______ ____
ROOT
ATOM      1  S   UNL     1      36.400 -18.817 -21.367  0.00  0.00    -0.084 S 
ATOM      2  C   UNL     1      34.092 -19.744 -20.662  0.00  0.00    +0.007 C 
ATOM      3  C   UNL     1      35.458 -20.037 -20.594  0.00  0.00    +0.030 C 
ATOM      4  C   UNL     1      35.019 -17.910 -21.787  0.00  0.00    +0.058 C 
ATOM      5  C   UNL     1      33.860 -18.508 -21.355  0.00  0.00    +0.010 C 
ATOM      6  C   UNL     1      33.182 -20.653 -20.070  0.00  0.00    +0.001 C 
ATOM      7  C   UNL     1      35.930 -21.202 -19.960  0.00  0.00    +0.006 C 
ATOM      8  C   UNL     1      33.648 -21.810 -19.439  0.00  0.00    +0.000 C 
ATOM      9  C   UNL     1      35.008 -22.079 -19.385  0.00  0.00    +0.001 C 
ENDROOT
BRANCH   4  12
ATOM     10  N   UNL     1      34.634 -15.525 -21.938  0.00  0.00    -0.386 N 
ATOM     11  N   UNL     1      35.539 -16.619 -23.767  0.00  0.00    -0.344 N 
ATOM     12  C   UNL     1      35.065 -16.675 -22.502  0.00  0.00    +0.102 C 
ATOM     13  H   UNL     1      34.673 -14.682 -22.446  0.00  0.00    +0.157 HD
ATOM     14  H   UNL     1      34.280 -15.529 -21.019  0.00  0.00    +0.157 HD
ATOM     15  H   UNL     1      35.564 -15.759 -24.246  0.00  0.00    +0.144 HD
ATOM     16  H   UNL     1      35.860 -17.437 -24.211  0.00  0.00    +0.144 HD
ENDBRANCH   4  12
TORSDOF 1
ENDMDL
MODEL 2
REMARK VINA RESULT:      -6.9      4.021      5.148
REMARK  Name = 444753
REMARK  1 active torsions:
REMARK  status: ('A' for Active; 'I' for Inactive)
REMARK    1  A    between atoms: C_4  and  C_12
REMARK                            x       y       z     vdW  Elec       q    Type
REMARK                         _______ _______ _______ _____ _____    ______ ____
ROOT
ATOM      1  S   UNL     1      33.496 -15.007 -25.169  0.00  0.00    -0.084 S 
ATOM      2  C   UNL     1      34.712 -16.204 -23.227  0.00  0.00    +0.007 C 
ATOM      3  C   UNL     1      34.199 -16.435 -24.507  0.00  0.00    +0.030 C 
ATOM      4  C   UNL     1      33.864 -14.091 -23.780  0.00  0.00    +0.058 C 
ATOM      5  C   UNL     1      34.509 -14.841 -22.825  0.00  0.00    +0.010 C 
ATOM      6  C   UNL     1      35.326 -17.283 -22.547  0.00  0.00    +0.001 C 
ATOM      7  C   UNL     1      34.281 -17.703 -25.115  0.00  0.00    +0.006 C 
ATOM      8  C   UNL     1      35.409 -18.543 -23.148  0.00  0.00    +0.000 C 
ATOM      9  C   UNL     1      34.892 -18.747 -24.419  0.00  0.00    +0.001 C 
ENDROOT
BRANCH   4  12
ATOM     10  N   UNL     1      34.251 -11.752 -24.267  0.00  0.00    -0.386 N 
ATOM     11  N   UNL     1      32.516 -12.314 -22.840  0.00  0.00    -0.344 N 
ATOM     12  C   UNL     1      33.541 -12.709 -23.628  0.00  0.00    +0.102 C 
ATOM     13  H   UNL     1      34.014 -10.803 -24.151  0.00  0.00    +0.157 HD
ATOM     14  H   UNL     1      35.005 -12.002 -24.847  0.00  0.00    +0.157 HD
ATOM     15  H   UNL     1      32.306 -11.356 -22.747  0.00  0.00    +0.144 HD
ATOM     16  H   UNL     1      31.978 -12.983 -22.359  0.00  0.00    +0.144 HD
ENDBRANCH   4  12
TORSDOF 1
ENDMDL
MODEL 3
REMARK VINA RESULT:      -6.8      1.134      2.091
REMARK  Name = 444753
REMARK  1 active torsions:
REMARK  status: ('A' for Active; 'I' for Inactive)
REMARK    1  A    between atoms: C_4  and  C_12
REMARK                            x       y       z     vdW  Elec       q    Type
REMARK                         _______ _______ _______ _____ _____    ______ ____
ROOT
ATOM      1  S   UNL     1      33.645 -19.040 -21.577  0.00  0.00    -0.084 S 
ATOM      2  C   UNL     1      35.844 -19.923 -20.541  0.00  0.00    +0.007 C 
ATOM      3  C   UNL     1      34.464 -20.151 -20.543  0.00  0.00    +0.030 C 
ATOM      4  C   UNL     1      35.097 -18.265 -22.019  0.00  0.00    +0.058 C 
ATOM      5  C   UNL     1      36.189 -18.828 -21.403  0.00  0.00    +0.010 C 
ATOM      6  C   UNL     1      36.659 -20.756 -19.739  0.00  0.00    +0.001 C 
ATOM      7  C   UNL     1      33.887 -21.177 -19.769  0.00  0.00    +0.006 C 
ATOM      8  C   UNL     1      36.090 -21.775 -18.970  0.00  0.00    +0.000 C 
ATOM      9  C   UNL     1      34.718 -21.982 -18.988  0.00  0.00    +0.001 C 
ENDROOT
BRANCH   4  12
ATOM     10  N   UNL     1      35.398 -17.354 -24.242  0.00  0.00    -0.386 N 
ATOM     11  N   UNL     1      35.007 -15.892 -22.489  0.00  0.00    -0.344 N 
ATOM     12  C   UNL     1      35.167 -17.162 -22.924  0.00  0.00    +0.102 C 
ATOM     13  H   UNL     1      35.443 -16.582 -24.852  0.00  0.00    +0.157 HD
ATOM     14  H   UNL     1      35.521 -18.265 -24.594  0.00  0.00    +0.157 HD
ATOM     15  H   UNL     1      35.058 -15.144 -23.127  0.00  0.00    +0.144 HD
ATOM     16  H   UNL     1      34.838 -15.715 -21.536  0.00  0.00    +0.144 HD
ENDBRANCH   4  12
TORSDOF 1
ENDMDL
MODEL 4
REMARK VINA RESULT:      -6.8      3.305      4.304
REMARK  Name = 444753
REMARK  1 active torsions:
REMARK  status: ('A' for Active; 'I' for Inactive)
REMARK    1  A    between atoms: C_4  and  C_12
REMARK                            x       y       z     vdW  Elec       q    Type
REMARK                         _______ _______ _______ _____ _____    ______ ____
ROOT
ATOM      1  S   UNL     1      34.298 -16.741 -25.164  0.00  0.00    -0.084 S 
ATOM      2  C   UNL     1      34.524 -16.421 -22.608  0.00  0.00    +0.007 C 
ATOM      3  C   UNL     1      34.775 -17.350 -23.623  0.00  0.00    +0.030 C 
ATOM      4  C   UNL     1      33.765 -15.265 -24.499  0.00  0.00    +0.058 C 
ATOM      5  C   UNL     1      33.940 -15.221 -23.137  0.00  0.00    +0.010 C 
ATOM      6  C   UNL     1      34.863 -16.773 -21.279  0.00  0.00    +0.001 C 
ATOM      7  C   UNL     1      35.347 -18.607 -23.345  0.00  0.00    +0.006 C 
ATOM      8  C   UNL     1      35.431 -18.020 -21.000  0.00  0.00    +0.000 C 
ATOM      9  C   UNL     1      35.670 -18.925 -22.025  0.00  0.00    +0.001 C 
ENDROOT
BRANCH   4  12
ATOM     10  N   UNL     1      32.393 -14.455 -26.322  0.00  0.00    -0.386 N 
ATOM     11  N   UNL     1      33.467 -12.909 -24.972  0.00  0.00    -0.344 N 
ATOM     12  C   UNL     1      33.203 -14.202 -25.269  0.00  0.00    +0.102 C 
ATOM     13  H   UNL     1      32.014 -13.710 -26.842  0.00  0.00    +0.157 HD
ATOM     14  H   UNL     1      32.181 -15.384 -26.569  0.00  0.00    +0.157 HD
ATOM     15  H   UNL     1      33.070 -12.189 -25.514  0.00  0.00    +0.144 HD
ATOM     16  H   UNL     1      34.053 -12.688 -24.213  0.00  0.00    +0.144 HD
ENDBRANCH   4  12
TORSDOF 1
ENDMDL
MODEL 5
REMARK VINA RESULT:      -6.8      3.429      4.479
REMARK  Name = 444753
REMARK  1 active torsions:
REMARK  status: ('A' for Active; 'I' for Inactive)
REMARK    1  A    between atoms: C_4  and  C_12
REMARK                            x       y       z     vdW  Elec       q    Type
REMARK                         _______ _______ _______ _____ _____    ______ ____
ROOT
ATOM      1  S   UNL     1      33.797 -14.780 -22.739  0.00  0.00    -0.084 S 
ATOM      2  C   UNL     1      34.680 -17.044 -23.621  0.00  0.00    +0.007 C 
ATOM      3  C   UNL     1      34.513 -16.319 -22.437  0.00  0.00    +0.030 C 
ATOM      4  C   UNL     1      33.708 -15.067 -24.416  0.00  0.00    +0.058 C 
ATOM      5  C   UNL     1      34.207 -16.302 -24.755  0.00  0.00    +0.010 C 
ATOM      6  C   UNL     1      35.256 -18.335 -23.540  0.00  0.00    +0.001 C 
ATOM      7  C   UNL     1      34.905 -16.845 -21.190  0.00  0.00    +0.006 C 
ATOM      8  C   UNL     1      35.647 -18.860 -22.304  0.00  0.00    +0.000 C 
ATOM      9  C   UNL     1      35.470 -18.120 -21.143  0.00  0.00    +0.001 C 
ENDROOT
BRANCH   4  12
ATOM     10  N   UNL     1      32.375 -14.537 -26.366  0.00  0.00    -0.386 N 
ATOM     11  N   UNL     1      33.465 -12.814 -25.269  0.00  0.00    -0.344 N 
ATOM     12  C   UNL     1      33.178 -14.132 -25.357  0.00  0.00    +0.102 C 
ATOM     13  H   UNL     1      32.017 -13.879 -27.006  0.00  0.00    +0.157 HD
ATOM     14  H   UNL     1      32.146 -15.489 -26.463  0.00  0.00    +0.157 HD
ATOM     15  H   UNL     1      33.090 -12.183 -25.926  0.00  0.00    +0.144 HD
ATOM     16  H   UNL     1      34.048 -12.483 -24.547  0.00  0.00    +0.144 HD
ENDBRANCH   4  12
TORSDOF 1
ENDMDL
MODEL 6
REMARK VINA RESULT:      -6.7      3.371      5.918
REMARK  Name = 444753
REMARK  1 active torsions:
REMARK  status: ('A' for Active; 'I' for Inactive)
REMARK    1  A    between atoms: C_4  and  C_12
REMARK                            x       y       z     vdW  Elec       q    Type
REMARK                         _______ _______ _______ _____ _____    ______ ____
ROOT
ATOM      1  S   UNL     1      34.635 -15.827 -23.493  0.00  0.00    -0.084 S 
ATOM      2  C   UNL     1      33.502 -14.861 -21.379  0.00  0.00    +0.007 C 
ATOM      3  C   UNL     1      33.629 -14.638 -22.754  0.00  0.00    +0.030 C 
ATOM      4  C   UNL     1      34.902 -16.629 -22.013  0.00  0.00    +0.058 C 
ATOM      5  C   UNL     1      34.247 -16.019 -20.971  0.00  0.00    +0.010 C 
ATOM      6  C   UNL     1      32.704 -13.967 -20.626  0.00  0.00    +0.001 C 
ATOM      7  C   UNL     1      32.985 -13.556 -23.386  0.00  0.00    +0.006 C 
ATOM      8  C   UNL     1      32.064 -12.892 -21.251  0.00  0.00    +0.000 C 
ATOM      9  C   UNL     1      32.205 -12.692 -22.617  0.00  0.00    +0.001 C 
ENDROOT
BRANCH   4  12
ATOM     10  N   UNL     1      35.786 -18.461 -20.700  0.00  0.00    -0.386 N 
ATOM     11  N   UNL     1      36.432 -18.274 -22.916  0.00  0.00    -0.344 N 
ATOM     12  C   UNL     1      35.712 -17.797 -21.876  0.00  0.00    +0.102 C 
ATOM     13  H   UNL     1      36.349 -19.265 -20.623  0.00  0.00    +0.157 HD
ATOM     14  H   UNL     1      35.277 -18.142 -19.921  0.00  0.00    +0.157 HD
ATOM     15  H   UNL     1      36.985 -19.081 -22.803  0.00  0.00    +0.144 HD
ATOM     16  H   UNL     1      36.404 -17.815 -23.786  0.00  0.00    +0.144 HD
ENDBRANCH   4  12
TORSDOF 1
ENDMDL
MODEL 7
REMARK VINA RESULT:      -6.7      3.289      4.466
REMARK  Name = 444753
REMARK  1 active torsions:
REMARK  status: ('A' for Active; 'I' for Inactive)
REMARK    1  A    between atoms: C_4  and  C_12
REMARK                            x       y       z     vdW  Elec       q    Type
REMARK                         _______ _______ _______ _____ _____    ______ ____
ROOT
ATOM      1  S   UNL     1      34.305 -14.945 -21.508  0.00  0.00    -0.084 S 
ATOM      2  C   UNL     1      34.567 -16.523 -23.540  0.00  0.00    +0.007 C 
ATOM      3  C   UNL     1      34.721 -16.490 -22.150  0.00  0.00    +0.030 C 
ATOM      4  C   UNL     1      33.925 -14.324 -23.049  0.00  0.00    +0.058 C 
ATOM      5  C   UNL     1      34.105 -15.259 -24.040  0.00  0.00    +0.010 C 
ATOM      6  C   UNL     1      34.870 -17.727 -24.219  0.00  0.00    +0.001 C 
ATOM      7  C   UNL     1      35.166 -17.618 -21.433  0.00  0.00    +0.006 C 
ATOM      8  C   UNL     1      35.311 -18.848 -23.510  0.00  0.00    +0.000 C 
ATOM      9  C   UNL     1      35.456 -18.791 -22.131  0.00  0.00    +0.001 C 
ENDROOT
BRANCH   4  12
ATOM     10  N   UNL     1      34.151 -12.156 -24.102  0.00  0.00    -0.386 N 
ATOM     11  N   UNL     1      32.357 -12.516 -22.682  0.00  0.00    -0.344 N 
ATOM     12  C   UNL     1      33.474 -12.989 -23.280  0.00  0.00    +0.102 C 
ATOM     13  H   UNL     1      33.826 -11.238 -24.250  0.00  0.00    +0.157 HD
ATOM     14  H   UNL     1      34.969 -12.465 -24.553  0.00  0.00    +0.157 HD
ATOM     15  H   UNL     1      32.061 -11.593 -22.853  0.00  0.00    +0.144 HD
ATOM     16  H   UNL     1      31.840 -13.094 -22.076  0.00  0.00    +0.144 HD
ENDBRANCH   4  12
TORSDOF 1
ENDMDL
MODEL 8
REMARK VINA RESULT:      -6.7      2.812      5.275
REMARK  Name = 444753
REMARK  1 active torsions:
REMARK  status: ('A' for Active; 'I' for Inactive)
REMARK    1  A    between atoms: C_4  and  C_12
REMARK                            x       y       z     vdW  Elec       q    Type
REMARK                         _______ _______ _______ _____ _____    ______ ____
ROOT
ATOM      1  S   UNL     1      34.923 -17.154 -21.152  0.00  0.00    -0.084 S 
ATOM      2  C   UNL     1      34.690 -17.813 -23.641  0.00  0.00    +0.007 C 
ATOM      3  C   UNL     1      34.578 -16.715 -22.783  0.00  0.00    +0.030 C 
ATOM      4  C   UNL     1      35.218 -18.779 -21.573  0.00  0.00    +0.058 C 
ATOM      5  C   UNL     1      35.062 -18.998 -22.920  0.00  0.00    +0.010 C 
ATOM      6  C   UNL     1      34.438 -17.615 -25.020  0.00  0.00    +0.001 C 
ATOM      7  C   UNL     1      34.223 -15.439 -23.264  0.00  0.00    +0.006 C 
ATOM      8  C   UNL     1      34.084 -16.351 -25.500  0.00  0.00    +0.000 C 
ATOM      9  C   UNL     1      33.980 -15.276 -24.629  0.00  0.00    +0.001 C 
ENDROOT
BRANCH   4  12
ATOM     10  N   UNL     1      36.836 -19.854 -20.128  0.00  0.00    -0.386 N 
ATOM     11  N   UNL     1      34.689 -20.717 -20.222  0.00  0.00    -0.344 N 
ATOM     12  C   UNL     1      35.583 -19.790 -20.633  0.00  0.00    +0.102 C 
ATOM     13  H   UNL     1      37.071 -20.558 -19.481  0.00  0.00    +0.157 HD
ATOM     14  H   UNL     1      37.514 -19.198 -20.406  0.00  0.00    +0.157 HD
ATOM     15  H   UNL     1      34.958 -21.407 -19.573  0.00  0.00    +0.144 HD
ATOM     16  H   UNL     1      33.768 -20.702 -20.570  0.00  0.00    +0.144 HD
ENDBRANCH   4  12
TORSDOF 1
ENDMDL
MODEL 9
REMARK VINA RESULT:      -6.6      4.679      5.965
REMARK  Name = 444753
REMARK  1 active torsions:
REMARK  status: ('A' for Active; 'I' for Inactive)
REMARK    1  A    between atoms: C_4  and  C_12
REMARK                            x       y       z     vdW  Elec       q    Type
REMARK                         _______ _______ _______ _____ _____    ______ ____
ROOT
ATOM      1  S   UNL     1      32.733 -13.357 -23.144  0.00  0.00    -0.084 S 
ATOM      2  C   UNL     1      33.652 -15.065 -21.434  0.00  0.00    +0.007 C 
ATOM      3  C   UNL     1      33.661 -14.768 -22.801  0.00  0.00    +0.030 C 
ATOM      4  C   UNL     1      32.321 -13.138 -21.504  0.00  0.00    +0.058 C 
ATOM      5  C   UNL     1      32.871 -14.108 -20.701  0.00  0.00    +0.010 C 
ATOM      6  C   UNL     1      34.372 -16.199 -20.990  0.00  0.00    +0.001 C 
ATOM      7  C   UNL     1      34.363 -15.570 -23.722  0.00  0.00    +0.006 C 
ATOM      8  C   UNL     1      35.070 -16.996 -21.902  0.00  0.00    +0.000 C 
ATOM      9  C   UNL     1      35.064 -16.682 -23.253  0.00  0.00    +0.001 C 
ENDROOT
BRANCH   4  12
ATOM     10  N   UNL     1      30.580 -11.486 -21.823  0.00  0.00    -0.386 N 
ATOM     11  N   UNL     1      31.624 -11.611 -19.760  0.00  0.00    -0.344 N 
ATOM     12  C   UNL     1      31.502 -12.071 -21.025  0.00  0.00    +0.102 C 
ATOM     13  H   UNL     1      30.023 -10.752 -21.476  0.00  0.00    +0.157 HD
ATOM     14  H   UNL     1      30.464 -11.794 -22.750  0.00  0.00    +0.157 HD
ATOM     15  H   UNL     1      31.051 -10.874 -19.446  0.00  0.00    +0.144 HD
ATOM     16  H   UNL     1      32.286 -12.012 -19.151  0.00  0.00    +0.144 HD
ENDBRANCH   4  12
TORSDOF 1
ENDMDL
