MODEL 1
REMARK VINA RESULT:      -8.5      0.000      0.000
REMARK  Name = 1360
REMARK  9 active torsions:
REMARK  status: ('A' for Active; 'I' for Inactive)
REMARK    1  A    between atoms: C_1  and  O_2
REMARK    2  A    between atoms: C_1  and  C_12
REMARK    3  A    between atoms: O_2  and  C_4
REMARK    4  A    between atoms: C_9  and  O_10
REMARK    5  A    between atoms: C_12  and  C_13
REMARK    6  A    between atoms: C_13  and  C_14
REMARK    7  A    between atoms: C_14  and  C_15
REMARK    8  A    between atoms: C_15  and  C_16
REMARK    9  A    between atoms: C_16  and  N_17
REMARK                            x       y       z     vdW  Elec       q    Type
REMARK                         _______ _______ _______ _____ _____    ______ ____
ROOT
ATOM      1  C   UNL     1      33.778 -17.601 -21.234  0.00  0.00    +0.205 C 
ENDROOT
BRANCH   1   2
ATOM      2  O   UNL     1      34.395 -18.792 -21.704  0.00  0.00    -0.475 OA
BRANCH   2   4
ATOM      3 CL   UNL     1      37.186 -19.474 -20.816  0.00  0.00    -0.079 Cl
ATOM      4  C   UNL     1      34.489 -19.832 -20.817  0.00  0.00    +0.149 C 
ATOM      5  C   UNL     1      35.723 -20.248 -20.329  0.00  0.00    +0.095 C 
ATOM      6  C   UNL     1      33.319 -20.467 -20.413  0.00  0.00    +0.041 C 
ATOM      7  C   UNL     1      35.789 -21.310 -19.425  0.00  0.00    +0.051 C 
ATOM      8  C   UNL     1      33.384 -21.528 -19.510  0.00  0.00    +0.040 C 
ATOM      9  C   UNL     1      34.619 -21.950 -19.016  0.00  0.00    +0.140 C 
BRANCH   9  10
ATOM     10  O   UNL     1      34.682 -22.986 -18.136  0.00  0.00    -0.471 OA
ATOM     11  C   UNL     1      33.488 -23.307 -17.425  0.00  0.00    +0.252 C 
ENDBRANCH   9  10
ENDBRANCH   2   4
ENDBRANCH   1   2
BRANCH   1  12
ATOM     12  C   UNL     1      34.860 -16.584 -20.900  0.00  0.00    +0.047 C 
BRANCH  12  13
ATOM     13  C   UNL     1      34.268 -15.206 -20.615  0.00  0.00    +0.004 C 
BRANCH  13  14
ATOM     14  C   UNL     1      32.816 -15.115 -21.087  0.00  0.00    +0.002 C 
BRANCH  14  15
ATOM     15  C   UNL     1      32.624 -13.957 -22.071  0.00  0.00    +0.022 C 
BRANCH  15  16
ATOM     16  C   UNL     1      33.782 -13.810 -23.060  0.00  0.00    +0.097 C 
BRANCH  16  17
ATOM     17  N   UNL     1      33.595 -14.549 -24.302  0.00  0.00    -0.268 N 
ATOM     18  N   UNL     1      33.695 -16.206 -25.756  0.00  0.00    -0.225 NA
ATOM     19  C   UNL     1      32.973 -14.084 -25.416  0.00  0.00    +0.087 C 
ATOM     20  C   UNL     1      34.013 -15.818 -24.541  0.00  0.00    +0.168 C 
ATOM     21  C   UNL     1      33.046 -15.129 -26.308  0.00  0.00    +0.117 C 
ENDBRANCH  16  17
ENDBRANCH  15  16
ENDBRANCH  14  15
ENDBRANCH  13  14
ENDBRANCH  12  13
ENDBRANCH   1  12
TORSDOF 9
ENDMDL
MODEL 2
REMARK VINA RESULT:      -8.2      4.850      8.833
REMARK  Name = 1360
REMARK  9 active torsions:
REMARK  status: ('A' for Active; 'I' for Inactive)
REMARK    1  A    between atoms: C_1  and  O_2
REMARK    2  A    between atoms: C_1  and  C_12
REMARK    3  A    between atoms: O_2  and  C_4
REMARK    4  A    between atoms: C_9  and  O_10
REMARK    5  A    between atoms: C_12  and  C_13
REMARK    6  A    between atoms: C_13  and  C_14
REMARK    7  A    between atoms: C_14  and  C_15
REMARK    8  A    between atoms: C_15  and  C_16
REMARK    9  A    between atoms: C_16  and  N_17
REMARK                            x       y       z     vdW  Elec       q    Type
REMARK                         _______ _______ _______ _____ _____    ______ ____
ROOT
ATOM      1  C   UNL     1      33.427 -22.816 -17.877  0.00  0.00    +0.205 C 
ENDROOT
BRANCH   1   2
ATOM      2  O   UNL     1      34.303 -22.716 -18.992  0.00  0.00    -0.475 OA
BRANCH   2   4
ATOM      3 CL   UNL     1      37.019 -21.590 -19.623  0.00  0.00    -0.079 Cl
ATOM      4  C   UNL     1      34.299 -21.530 -19.677  0.00  0.00    +0.149 C 
ATOM      5  C   UNL     1      35.490 -20.902 -20.030  0.00  0.00    +0.095 C 
ATOM      6  C   UNL     1      33.075 -20.962 -20.014  0.00  0.00    +0.041 C 
ATOM      7  C   UNL     1      35.456 -19.695 -20.729  0.00  0.00    +0.051 C 
ATOM      8  C   UNL     1      33.040 -19.755 -20.712  0.00  0.00    +0.040 C 
ATOM      9  C   UNL     1      34.231 -19.121 -21.070  0.00  0.00    +0.140 C 
BRANCH   9  10
ATOM     10  O   UNL     1      34.197 -17.943 -21.750  0.00  0.00    -0.471 OA
ATOM     11  C   UNL     1      34.837 -16.823 -21.142  0.00  0.00    +0.252 C 
ENDBRANCH   9  10
ENDBRANCH   2   4
ENDBRANCH   1   2
BRANCH   1  12
ATOM     12  C   UNL     1      34.246 -23.135 -16.635  0.00  0.00    +0.047 C 
BRANCH  12  13
ATOM     13  C   UNL     1      33.353 -23.495 -15.449  0.00  0.00    +0.004 C 
BRANCH  13  14
ATOM     14  C   UNL     1      31.872 -23.439 -15.830  0.00  0.00    +0.002 C 
BRANCH  14  15
ATOM     15  C   UNL     1      30.991 -23.213 -14.599  0.00  0.00    +0.022 C 
BRANCH  15  16
ATOM     16  C   UNL     1      29.673 -23.989 -14.653  0.00  0.00    +0.097 C 
BRANCH  16  17
ATOM     17  N   UNL     1      28.769 -23.545 -15.706  0.00  0.00    -0.268 N 
ATOM     18  N   UNL     1      27.566 -23.597 -17.556  0.00  0.00    -0.225 NA
ATOM     19  C   UNL     1      28.161 -22.331 -15.772  0.00  0.00    +0.087 C 
ATOM     20  C   UNL     1      28.391 -24.274 -16.787  0.00  0.00    +0.168 C 
ATOM     21  C   UNL     1      27.420 -22.385 -16.929  0.00  0.00    +0.117 C 
ENDBRANCH  16  17
ENDBRANCH  15  16
ENDBRANCH  14  15
ENDBRANCH  13  14
ENDBRANCH  12  13
ENDBRANCH   1  12
TORSDOF 9
ENDMDL
MODEL 3
REMARK VINA RESULT:      -8.1      4.348      8.514
REMARK  Name = 1360
REMARK  9 active torsions:
REMARK  status: ('A' for Active; 'I' for Inactive)
REMARK    1  A    between atoms: C_1  and  O_2
REMARK    2  A    between atoms: C_1  and  C_12
REMARK    3  A    between atoms: O_2  and  C_4
REMARK    4  A    between atoms: C_9  and  O_10
REMARK    5  A    between atoms: C_12  and  C_13
REMARK    6  A    between atoms: C_13  and  C_14
REMARK    7  A    between atoms: C_14  and  C_15
REMARK    8  A    between atoms: C_15  and  C_16
REMARK    9  A    between atoms: C_16  and  N_17
REMARK                            x       y       z     vdW  Elec       q    Type
REMARK                         _______ _______ _______ _____ _____    ______ ____
ROOT
ATOM      1  C   UNL     1      36.243 -19.314 -20.944  0.00  0.00    +0.205 C 
ENDROOT
BRANCH   1   2
ATOM      2  O   UNL     1      35.384 -18.181 -20.954  0.00  0.00    -0.475 OA
BRANCH   2   4
ATOM      3 CL   UNL     1      34.600 -15.278 -20.929  0.00  0.00    -0.079 Cl
ATOM      4  C   UNL     1      35.079 -17.647 -22.178  0.00  0.00    +0.149 C 
ATOM      5  C   UNL     1      34.699 -16.315 -22.305  0.00  0.00    +0.095 C 
ATOM      6  C   UNL     1      35.155 -18.469 -23.298  0.00  0.00    +0.041 C 
ATOM      7  C   UNL     1      34.395 -15.798 -23.565  0.00  0.00    +0.051 C 
ATOM      8  C   UNL     1      34.850 -17.953 -24.557  0.00  0.00    +0.040 C 
ATOM      9  C   UNL     1      34.470 -16.618 -24.691  0.00  0.00    +0.140 C 
BRANCH   9  10
ATOM     10  O   UNL     1      34.172 -16.115 -25.920  0.00  0.00    -0.471 OA
ATOM     11  C   UNL     1      33.250 -15.028 -25.971  0.00  0.00    +0.252 C 
ENDBRANCH   9  10
ENDBRANCH   2   4
ENDBRANCH   1   2
BRANCH   1  12
ATOM     12  C   UNL     1      35.538 -20.459 -20.232  0.00  0.00    +0.047 C 
BRANCH  12  13
ATOM     13  C   UNL     1      34.019 -20.319 -20.306  0.00  0.00    +0.004 C 
BRANCH  13  14
ATOM     14  C   UNL     1      33.318 -21.434 -19.528  0.00  0.00    +0.002 C 
BRANCH  14  15
ATOM     15  C   UNL     1      34.324 -22.469 -19.014  0.00  0.00    +0.022 C 
BRANCH  15  16
ATOM     16  C   UNL     1      34.084 -22.867 -17.557  0.00  0.00    +0.097 C 
BRANCH  16  17
ATOM     17  N   UNL     1      35.266 -22.754 -16.711  0.00  0.00    -0.268 N 
ATOM     18  N   UNL     1      36.568 -22.958 -14.941  0.00  0.00    -0.225 NA
ATOM     19  C   UNL     1      36.441 -22.171 -17.063  0.00  0.00    +0.087 C 
ATOM     20  C   UNL     1      35.377 -23.212 -15.438  0.00  0.00    +0.168 C 
ATOM     21  C   UNL     1      37.236 -22.308 -15.950  0.00  0.00    +0.117 C 
ENDBRANCH  16  17
ENDBRANCH  15  16
ENDBRANCH  14  15
ENDBRANCH  13  14
ENDBRANCH  12  13
ENDBRANCH   1  12
TORSDOF 9
ENDMDL
MODEL 4
REMARK VINA RESULT:      -8.1      4.899      9.377
REMARK  Name = 1360
REMARK  9 active torsions:
REMARK  status: ('A' for Active; 'I' for Inactive)
REMARK    1  A    between atoms: C_1  and  O_2
REMARK    2  A    between atoms: C_1  and  C_12
REMARK    3  A    between atoms: O_2  and  C_4
REMARK    4  A    between atoms: C_9  and  O_10
REMARK    5  A    between atoms: C_12  and  C_13
REMARK    6  A    between atoms: C_13  and  C_14
REMARK    7  A    between atoms: C_14  and  C_15
REMARK    8  A    between atoms: C_15  and  C_16
REMARK    9  A    between atoms: C_16  and  N_17
REMARK                            x       y       z     vdW  Elec       q    Type
REMARK                         _______ _______ _______ _____ _____    ______ ____
ROOT
ATOM      1  C   UNL     1      34.100 -19.510 -21.001  0.00  0.00    +0.205 C 
ENDROOT
BRANCH   1   2
ATOM      2  O   UNL     1      35.199 -18.963 -21.719  0.00  0.00    -0.475 OA
BRANCH   2   4
ATOM      3 CL   UNL     1      34.842 -16.031 -21.155  0.00  0.00    -0.079 Cl
ATOM      4  C   UNL     1      34.902 -18.189 -22.810  0.00  0.00    +0.149 C 
ATOM      5  C   UNL     1      34.711 -16.817 -22.685  0.00  0.00    +0.095 C 
ATOM      6  C   UNL     1      34.793 -18.807 -24.052  0.00  0.00    +0.041 C 
ATOM      7  C   UNL     1      34.410 -16.054 -23.814  0.00  0.00    +0.051 C 
ATOM      8  C   UNL     1      34.492 -18.045 -25.180  0.00  0.00    +0.040 C 
ATOM      9  C   UNL     1      34.300 -16.668 -25.061  0.00  0.00    +0.140 C 
BRANCH   9  10
ATOM     10  O   UNL     1      34.006 -15.924 -26.163  0.00  0.00    -0.471 OA
ATOM     11  C   UNL     1      33.098 -14.838 -25.989  0.00  0.00    +0.252 C 
ENDBRANCH   9  10
ENDBRANCH   2   4
ENDBRANCH   1   2
BRANCH   1  12
ATOM     12  C   UNL     1      34.597 -20.668 -20.149  0.00  0.00    +0.047 C 
BRANCH  12  13
ATOM     13  C   UNL     1      33.445 -21.393 -19.457  0.00  0.00    +0.004 C 
BRANCH  13  14
ATOM     14  C   UNL     1      33.929 -22.662 -18.752  0.00  0.00    +0.002 C 
BRANCH  14  15
ATOM     15  C   UNL     1      33.025 -23.019 -17.569  0.00  0.00    +0.022 C 
BRANCH  15  16
ATOM     16  C   UNL     1      33.806 -23.382 -16.304  0.00  0.00    +0.097 C 
BRANCH  16  17
ATOM     17  N   UNL     1      32.966 -23.596 -15.133  0.00  0.00    -0.268 N 
ATOM     18  N   UNL     1      32.305 -24.380 -13.178  0.00  0.00    -0.225 NA
ATOM     19  C   UNL     1      31.753 -23.026 -14.910  0.00  0.00    +0.087 C 
ATOM     20  C   UNL     1      33.264 -24.398 -14.079  0.00  0.00    +0.168 C 
ATOM     21  C   UNL     1      31.360 -23.527 -13.691  0.00  0.00    +0.117 C 
ENDBRANCH  16  17
ENDBRANCH  15  16
ENDBRANCH  14  15
ENDBRANCH  13  14
ENDBRANCH  12  13
ENDBRANCH   1  12
TORSDOF 9
ENDMDL
MODEL 5
REMARK VINA RESULT:      -8.0      2.767      4.812
REMARK  Name = 1360
REMARK  9 active torsions:
REMARK  status: ('A' for Active; 'I' for Inactive)
REMARK    1  A    between atoms: C_1  and  O_2
REMARK    2  A    between atoms: C_1  and  C_12
REMARK    3  A    between atoms: O_2  and  C_4
REMARK    4  A    between atoms: C_9  and  O_10
REMARK    5  A    between atoms: C_12  and  C_13
REMARK    6  A    between atoms: C_13  and  C_14
REMARK    7  A    between atoms: C_14  and  C_15
REMARK    8  A    between atoms: C_15  and  C_16
REMARK    9  A    between atoms: C_16  and  N_17
REMARK                            x       y       z     vdW  Elec       q    Type
REMARK                         _______ _______ _______ _____ _____    ______ ____
ROOT
ATOM      1  C   UNL     1      34.033 -22.591 -19.109  0.00  0.00    +0.205 C 
ENDROOT
BRANCH   1   2
ATOM      2  O   UNL     1      34.837 -22.858 -17.967  0.00  0.00    -0.475 OA
BRANCH   2   4
ATOM      3 CL   UNL     1      36.606 -23.445 -15.607  0.00  0.00    -0.079 Cl
ATOM      4  C   UNL     1      34.179 -23.181 -16.810  0.00  0.00    +0.149 C 
ATOM      5  C   UNL     1      34.881 -23.475 -15.645  0.00  0.00    +0.095 C 
ATOM      6  C   UNL     1      32.789 -23.209 -16.823  0.00  0.00    +0.041 C 
ATOM      7  C   UNL     1      34.184 -23.799 -14.481  0.00  0.00    +0.051 C 
ATOM      8  C   UNL     1      32.092 -23.533 -15.659  0.00  0.00    +0.040 C 
ATOM      9  C   UNL     1      32.790 -23.829 -14.488  0.00  0.00    +0.140 C 
BRANCH   9  10
ATOM     10  O   UNL     1      32.109 -24.146 -13.352  0.00  0.00    -0.471 OA
ATOM     11  C   UNL     1      30.841 -24.780 -13.511  0.00  0.00    +0.252 C 
ENDBRANCH   9  10
ENDBRANCH   2   4
ENDBRANCH   1   2
BRANCH   1  12
ATOM     12  C   UNL     1      34.428 -21.238 -19.684  0.00  0.00    +0.047 C 
BRANCH  12  13
ATOM     13  C   UNL     1      33.218 -20.482 -20.226  0.00  0.00    +0.004 C 
BRANCH  13  14
ATOM     14  C   UNL     1      33.643 -19.235 -21.005  0.00  0.00    +0.002 C 
BRANCH  14  15
ATOM     15  C   UNL     1      34.734 -19.566 -22.028  0.00  0.00    +0.022 C 
BRANCH  15  16
ATOM     16  C   UNL     1      35.523 -18.336 -22.483  0.00  0.00    +0.097 C 
BRANCH  16  17
ATOM     17  N   UNL     1      34.966 -17.680 -23.659  0.00  0.00    -0.268 N 
ATOM     18  N   UNL     1      34.086 -17.439 -25.669  0.00  0.00    -0.225 NA
ATOM     19  C   UNL     1      34.790 -16.342 -23.814  0.00  0.00    +0.087 C 
ATOM     20  C   UNL     1      34.535 -18.303 -24.786  0.00  0.00    +0.168 C 
ATOM     21  C   UNL     1      34.243 -16.214 -25.069  0.00  0.00    +0.117 C 
ENDBRANCH  16  17
ENDBRANCH  15  16
ENDBRANCH  14  15
ENDBRANCH  13  14
ENDBRANCH  12  13
ENDBRANCH   1  12
TORSDOF 9
ENDMDL
MODEL 6
REMARK VINA RESULT:      -7.9      3.016      4.947
REMARK  Name = 1360
REMARK  9 active torsions:
REMARK  status: ('A' for Active; 'I' for Inactive)
REMARK    1  A    between atoms: C_1  and  O_2
REMARK    2  A    between atoms: C_1  and  C_12
REMARK    3  A    between atoms: O_2  and  C_4
REMARK    4  A    between atoms: C_9  and  O_10
REMARK    5  A    between atoms: C_12  and  C_13
REMARK    6  A    between atoms: C_13  and  C_14
REMARK    7  A    between atoms: C_14  and  C_15
REMARK    8  A    between atoms: C_15  and  C_16
REMARK    9  A    between atoms: C_16  and  N_17
REMARK                            x       y       z     vdW  Elec       q    Type
REMARK                         _______ _______ _______ _____ _____    ______ ____
ROOT
ATOM      1  C   UNL     1      33.666 -22.321 -19.020  0.00  0.00    +0.205 C 
ENDROOT
BRANCH   1   2
ATOM      2  O   UNL     1      32.543 -22.746 -18.258  0.00  0.00    -0.475 OA
BRANCH   2   4
ATOM      3 CL   UNL     1      30.095 -22.872 -16.517  0.00  0.00    -0.079 Cl
ATOM      4  C   UNL     1      32.774 -23.076 -16.949  0.00  0.00    +0.149 C 
ATOM      5  C   UNL     1      31.726 -23.168 -16.038  0.00  0.00    +0.095 C 
ATOM      6  C   UNL     1      34.083 -23.319 -16.547  0.00  0.00    +0.041 C 
ATOM      7  C   UNL     1      31.991 -23.507 -14.711  0.00  0.00    +0.051 C 
ATOM      8  C   UNL     1      34.348 -23.658 -15.220  0.00  0.00    +0.040 C 
ATOM      9  C   UNL     1      33.302 -23.752 -14.302  0.00  0.00    +0.140 C 
BRANCH   9  10
ATOM     10  O   UNL     1      33.560 -24.083 -13.007  0.00  0.00    -0.471 OA
ATOM     11  C   UNL     1      34.924 -24.306 -12.654  0.00  0.00    +0.252 C 
ENDBRANCH   9  10
ENDBRANCH   2   4
ENDBRANCH   1   2
BRANCH   1  12
ATOM     12  C   UNL     1      33.324 -21.008 -19.710  0.00  0.00    +0.047 C 
BRANCH  12  13
ATOM     13  C   UNL     1      34.552 -20.378 -20.362  0.00  0.00    +0.004 C 
BRANCH  13  14
ATOM     14  C   UNL     1      34.169 -19.558 -21.596  0.00  0.00    +0.002 C 
BRANCH  14  15
ATOM     15  C   UNL     1      34.586 -18.093 -21.441  0.00  0.00    +0.022 C 
BRANCH  15  16
ATOM     16  C   UNL     1      35.523 -17.614 -22.552  0.00  0.00    +0.097 C 
BRANCH  16  17
ATOM     17  N   UNL     1      34.835 -17.022 -23.691  0.00  0.00    -0.268 N 
ATOM     18  N   UNL     1      34.008 -16.815 -25.727  0.00  0.00    -0.225 NA
ATOM     19  C   UNL     1      34.245 -15.799 -23.714  0.00  0.00    +0.087 C 
ATOM     20  C   UNL     1      34.674 -17.600 -24.909  0.00  0.00    +0.168 C 
ATOM     21  C   UNL     1      33.738 -15.690 -24.988  0.00  0.00    +0.117 C 
ENDBRANCH  16  17
ENDBRANCH  15  16
ENDBRANCH  14  15
ENDBRANCH  13  14
ENDBRANCH  12  13
ENDBRANCH   1  12
TORSDOF 9
ENDMDL
MODEL 7
REMARK VINA RESULT:      -7.9      5.272      9.570
REMARK  Name = 1360
REMARK  9 active torsions:
REMARK  status: ('A' for Active; 'I' for Inactive)
REMARK    1  A    between atoms: C_1  and  O_2
REMARK    2  A    between atoms: C_1  and  C_12
REMARK    3  A    between atoms: O_2  and  C_4
REMARK    4  A    between atoms: C_9  and  O_10
REMARK    5  A    between atoms: C_12  and  C_13
REMARK    6  A    between atoms: C_13  and  C_14
REMARK    7  A    between atoms: C_14  and  C_15
REMARK    8  A    between atoms: C_15  and  C_16
REMARK    9  A    between atoms: C_16  and  N_17
REMARK                            x       y       z     vdW  Elec       q    Type
REMARK                         _______ _______ _______ _____ _____    ______ ____
ROOT
ATOM      1  C   UNL     1      35.639 -19.964 -20.851  0.00  0.00    +0.205 C 
ENDROOT
BRANCH   1   2
ATOM      2  O   UNL     1      35.229 -18.603 -20.869  0.00  0.00    -0.475 OA
BRANCH   2   4
ATOM      3 CL   UNL     1      34.690 -15.645 -20.850  0.00  0.00    -0.079 Cl
ATOM      4  C   UNL     1      34.993 -18.044 -22.097  0.00  0.00    +0.149 C 
ATOM      5  C   UNL     1      34.730 -16.684 -22.227  0.00  0.00    +0.095 C 
ATOM      6  C   UNL     1      35.022 -18.867 -23.217  0.00  0.00    +0.041 C 
ATOM      7  C   UNL     1      34.494 -16.142 -23.490  0.00  0.00    +0.051 C 
ATOM      8  C   UNL     1      34.787 -18.326 -24.481  0.00  0.00    +0.040 C 
ATOM      9  C   UNL     1      34.523 -16.963 -24.618  0.00  0.00    +0.140 C 
BRANCH   9  10
ATOM     10  O   UNL     1      34.292 -16.435 -25.851  0.00  0.00    -0.471 OA
ATOM     11  C   UNL     1      33.400 -15.324 -25.925  0.00  0.00    +0.252 C 
ENDBRANCH   9  10
ENDBRANCH   2   4
ENDBRANCH   1   2
BRANCH   1  12
ATOM     12  C   UNL     1      34.731 -20.740 -19.908  0.00  0.00    +0.047 C 
BRANCH  12  13
ATOM     13  C   UNL     1      35.441 -21.954 -19.315  0.00  0.00    +0.004 C 
BRANCH  13  14
ATOM     14  C   UNL     1      36.453 -21.539 -18.244  0.00  0.00    +0.002 C 
BRANCH  14  15
ATOM     15  C   UNL     1      36.185 -22.258 -16.919  0.00  0.00    +0.022 C 
BRANCH  15  16
ATOM     16  C   UNL     1      37.465 -22.659 -16.183  0.00  0.00    +0.097 C 
BRANCH  16  17
ATOM     17  N   UNL     1      37.324 -23.855 -15.362  0.00  0.00    -0.268 N 
ATOM     18  N   UNL     1      37.895 -25.608 -14.148  0.00  0.00    -0.225 NA
ATOM     19  C   UNL     1      36.151 -24.424 -14.983  0.00  0.00    +0.087 C 
ATOM     20  C   UNL     1      38.344 -24.587 -14.846  0.00  0.00    +0.168 C 
ATOM     21  C   UNL     1      36.528 -25.512 -14.231  0.00  0.00    +0.117 C 
ENDBRANCH  16  17
ENDBRANCH  15  16
ENDBRANCH  14  15
ENDBRANCH  13  14
ENDBRANCH  12  13
ENDBRANCH   1  12
TORSDOF 9
ENDMDL
MODEL 8
REMARK VINA RESULT:      -7.8      3.748      5.379
REMARK  Name = 1360
REMARK  9 active torsions:
REMARK  status: ('A' for Active; 'I' for Inactive)
REMARK    1  A    between atoms: C_1  and  O_2
REMARK    2  A    between atoms: C_1  and  C_12
REMARK    3  A    between atoms: O_2  and  C_4
REMARK    4  A    between atoms: C_9  and  O_10
REMARK    5  A    between atoms: C_12  and  C_13
REMARK    6  A    between atoms: C_13  and  C_14
REMARK    7  A    between atoms: C_14  and  C_15
REMARK    8  A    between atoms: C_15  and  C_16
REMARK    9  A    between atoms: C_16  and  N_17
REMARK                            x       y       z     vdW  Elec       q    Type
REMARK                         _______ _______ _______ _____ _____    ______ ____
ROOT
ATOM      1  C   UNL     1      33.850 -14.828 -24.011  0.00  0.00    +0.205 C 
ENDROOT
BRANCH   1   2
ATOM      2  O   UNL     1      35.066 -15.366 -23.508  0.00  0.00    -0.475 OA
BRANCH   2   4
ATOM      3 CL   UNL     1      34.696 -15.353 -20.524  0.00  0.00    -0.079 Cl
ATOM      4  C   UNL     1      35.000 -16.602 -22.922  0.00  0.00    +0.149 C 
ATOM      5  C   UNL     1      34.832 -16.736 -21.547  0.00  0.00    +0.095 C 
ATOM      6  C   UNL     1      35.107 -17.727 -23.732  0.00  0.00    +0.041 C 
ATOM      7  C   UNL     1      34.767 -18.008 -20.978  0.00  0.00    +0.051 C 
ATOM      8  C   UNL     1      35.043 -18.999 -23.164  0.00  0.00    +0.040 C 
ATOM      9  C   UNL     1      34.873 -19.139 -21.786  0.00  0.00    +0.140 C 
BRANCH   9  10
ATOM     10  O   UNL     1      34.811 -20.381 -21.231  0.00  0.00    -0.471 OA
ATOM     11  C   UNL     1      35.815 -20.715 -20.274  0.00  0.00    +0.252 C 
ENDBRANCH   9  10
ENDBRANCH   2   4
ENDBRANCH   1   2
BRANCH   1  12
ATOM     12  C   UNL     1      33.683 -13.411 -23.483  0.00  0.00    +0.047 C 
BRANCH  12  13
ATOM     13  C   UNL     1      32.250 -13.145 -23.026  0.00  0.00    +0.004 C 
BRANCH  13  14
ATOM     14  C   UNL     1      32.156 -13.086 -21.500  0.00  0.00    +0.002 C 
BRANCH  14  15
ATOM     15  C   UNL     1      31.375 -11.852 -21.039  0.00  0.00    +0.022 C 
BRANCH  15  16
ATOM     16  C   UNL     1      31.572 -10.641 -21.954  0.00  0.00    +0.097 C 
BRANCH  16  17
ATOM     17  N   UNL     1      31.914  -9.415 -21.245  0.00  0.00    -0.268 N 
ATOM     18  N   UNL     1      32.351  -8.052 -19.565  0.00  0.00    -0.225 NA
ATOM     19  C   UNL     1      32.171  -8.211 -21.819  0.00  0.00    +0.087 C 
ATOM     20  C   UNL     1      32.030  -9.283 -19.899  0.00  0.00    +0.168 C 
ATOM     21  C   UNL     1      32.440  -7.379 -20.758  0.00  0.00    +0.117 C 
ENDBRANCH  16  17
ENDBRANCH  15  16
ENDBRANCH  14  15
ENDBRANCH  13  14
ENDBRANCH  12  13
ENDBRANCH   1  12
TORSDOF 9
ENDMDL
MODEL 9
REMARK VINA RESULT:      -7.8      2.137      3.004
REMARK  Name = 1360
REMARK  9 active torsions:
REMARK  status: ('A' for Active; 'I' for Inactive)
REMARK    1  A    between atoms: C_1  and  O_2
REMARK    2  A    between atoms: C_1  and  C_12
REMARK    3  A    between atoms: O_2  and  C_4
REMARK    4  A    between atoms: C_9  and  O_10
REMARK    5  A    between atoms: C_12  and  C_13
REMARK    6  A    between atoms: C_13  and  C_14
REMARK    7  A    between atoms: C_14  and  C_15
REMARK    8  A    between atoms: C_15  and  C_16
REMARK    9  A    between atoms: C_16  and  N_17
REMARK                            x       y       z     vdW  Elec       q    Type
REMARK                         _______ _______ _______ _____ _____    ______ ____
ROOT
ATOM      1  C   UNL     1      35.612 -17.933 -21.310  0.00  0.00    +0.205 C 
ENDROOT
BRANCH   1   2
ATOM      2  O   UNL     1      35.252 -19.259 -21.676  0.00  0.00    -0.475 OA
BRANCH   2   4
ATOM      3 CL   UNL     1      32.454 -20.096 -20.958  0.00  0.00    -0.079 Cl
ATOM      4  C   UNL     1      35.158 -20.176 -20.663  0.00  0.00    +0.149 C 
ATOM      5  C   UNL     1      33.921 -20.646 -20.234  0.00  0.00    +0.095 C 
ATOM      6  C   UNL     1      36.331 -20.631 -20.069  0.00  0.00    +0.041 C 
ATOM      7  C   UNL     1      33.856 -21.581 -19.200  0.00  0.00    +0.051 C 
ATOM      8  C   UNL     1      36.266 -21.566 -19.036  0.00  0.00    +0.040 C 
ATOM      9  C   UNL     1      35.029 -22.041 -18.601  0.00  0.00    +0.140 C 
BRANCH   9  10
ATOM     10  O   UNL     1      34.966 -22.953 -17.593  0.00  0.00    -0.471 OA
ATOM     11  C   UNL     1      33.668 -23.333 -17.141  0.00  0.00    +0.252 C 
ENDBRANCH   9  10
ENDBRANCH   2   4
ENDBRANCH   1   2
BRANCH   1  12
ATOM     12  C   UNL     1      34.366 -17.060 -21.333  0.00  0.00    +0.047 C 
BRANCH  12  13
ATOM     13  C   UNL     1      34.594 -15.733 -20.612  0.00  0.00    +0.004 C 
BRANCH  13  14
ATOM     14  C   UNL     1      33.635 -14.654 -21.117  0.00  0.00    +0.002 C 
BRANCH  14  15
ATOM     15  C   UNL     1      34.064 -14.127 -22.489  0.00  0.00    +0.022 C 
BRANCH  15  16
ATOM     16  C   UNL     1      32.909 -13.517 -23.286  0.00  0.00    +0.097 C 
BRANCH  16  17
ATOM     17  N   UNL     1      32.870 -12.061 -23.250  0.00  0.00    -0.268 N 
ATOM     18  N   UNL     1      32.263 -10.024 -22.656  0.00  0.00    -0.225 NA
ATOM     19  C   UNL     1      33.635 -11.227 -24.001  0.00  0.00    +0.087 C 
ATOM     20  C   UNL     1      32.063 -11.309 -22.459  0.00  0.00    +0.168 C 
ATOM     21  C   UNL     1      33.241  -9.966 -23.617  0.00  0.00    +0.117 C 
ENDBRANCH  16  17
ENDBRANCH  15  16
ENDBRANCH  14  15
ENDBRANCH  13  14
ENDBRANCH  12  13
ENDBRANCH   1  12
TORSDOF 9
ENDMDL
