MODEL 1
REMARK VINA RESULT:      -6.4      0.000      0.000
REMARK  Name = 17754073
REMARK  11 active torsions:
REMARK  status: ('A' for Active; 'I' for Inactive)
REMARK    1  A    between atoms: CG_1  and  CD_2
REMARK    2  A    between atoms: CG_1  and  CB_13
REMARK    3  A    between atoms: CD_2  and  CE_3
REMARK    4  A    between atoms: CE_3  and  N_4
REMARK    5  A    between atoms: N_4  and  CA_7
REMARK    6  A    between atoms: CA_7  and  C_10
REMARK    7  A    between atoms: C_10  and  O_11
REMARK    8  A    between atoms: CB_13  and  CA_14
REMARK    9  A    between atoms: CA_14  and  N_15
REMARK   10  A    between atoms: CA_14  and  C_20
REMARK   11  A    between atoms: C_20  and  O_21
REMARK                            x       y       z     vdW  Elec       q    Type
REMARK                         _______ _______ _______ _____ _____    ______ ____
ROOT
ATOM      1  CG  ALA A   1      36.338 -25.606 -15.166  0.00  0.00    -0.004 C 
ENDROOT
BRANCH   1   2
ATOM      2  CD  ALA A   1      35.178 -24.616 -15.027  0.00  0.00    -0.023 C 
BRANCH   2   3
ATOM      3  CE  ALA A   1      35.542 -23.475 -14.077  0.00  0.00    -0.081 C 
BRANCH   3   4
ATOM      4  N   ALA A   1      34.815 -23.611 -12.820  0.00  0.00    +0.392 N 
ATOM      5  H1  ALA A   1      34.433 -24.555 -12.756  0.00  0.00    -0.084 HD
ATOM      6  H2  ALA A   1      34.066 -22.920 -12.800  0.00  0.00    -0.084 HD
BRANCH   4   7
ATOM      7  CA  ALA A   1      35.695 -23.375 -11.684  0.00  0.00    +0.040 C 
ATOM      8  CB  ALA A   1      37.098 -23.048 -12.179  0.00  0.00    -0.012 C 
BRANCH   7  10
ATOM      9  OXT ALA A   1      35.362 -24.703  -9.657  0.00  0.00    -0.253 OA
ATOM     10  C   ALA A   1      35.704 -24.625 -10.829  0.00  0.00    +0.293 C 
BRANCH  10  11
ATOM     11  O   ALA A   1      36.143 -25.689 -11.550  0.00  0.00    -0.482 OA
ATOM     12  H   ALA A   1      36.575 -25.553 -12.371  0.00  0.00    +0.295 HD
ENDBRANCH  10  11
ENDBRANCH   7  10
ENDBRANCH   4   7
ENDBRANCH   3   4
ENDBRANCH   2   3
ENDBRANCH   1   2
BRANCH   1  13
ATOM     13  CB  ALA A   1      37.720 -24.962 -14.981  0.00  0.00    -0.011 C 
BRANCH  13  14
ATOM     14  CA  ALA A   1      38.811 -25.920 -14.487  0.00  0.00    +0.036 C 
BRANCH  14  15
ATOM     15  N   ALA A   1      38.808 -26.024 -13.027  0.00  0.00    +0.389 N 
ATOM     16  H1  ALA A   1      38.299 -25.235 -12.630  0.00  0.00    -0.088 HD
ATOM     17  H2  ALA A   1      39.768 -26.017 -12.683  0.00  0.00    -0.088 HD
ATOM     18  H3  ALA A   1      38.355 -26.895 -12.749  0.00  0.00    -0.088 HD
ENDBRANCH  14  15
BRANCH  14  20
ATOM     19  OXT ALA A   1      40.916 -24.763 -14.247  0.00  0.00    -0.253 OA
ATOM     20  C   ALA A   1      40.202 -25.504 -14.914  0.00  0.00    +0.293 C 
BRANCH  20  21
ATOM     21  O   ALA A   1      40.589 -26.008 -16.112  0.00  0.00    -0.482 OA
ATOM     22  H   ALA A   1      39.947 -26.340 -16.710  0.00  0.00    +0.295 HD
ENDBRANCH  20  21
ENDBRANCH  14  20
ENDBRANCH  13  14
ENDBRANCH   1  13
TORSDOF 11
ENDMDL
MODEL 2
REMARK VINA RESULT:      -6.2      4.979      6.012
REMARK  Name = 17754073
REMARK  11 active torsions:
REMARK  status: ('A' for Active; 'I' for Inactive)
REMARK    1  A    between atoms: CG_1  and  CD_2
REMARK    2  A    between atoms: CG_1  and  CB_13
REMARK    3  A    between atoms: CD_2  and  CE_3
REMARK    4  A    between atoms: CE_3  and  N_4
REMARK    5  A    between atoms: N_4  and  CA_7
REMARK    6  A    between atoms: CA_7  and  C_10
REMARK    7  A    between atoms: C_10  and  O_11
REMARK    8  A    between atoms: CB_13  and  CA_14
REMARK    9  A    between atoms: CA_14  and  N_15
REMARK   10  A    between atoms: CA_14  and  C_20
REMARK   11  A    between atoms: C_20  and  O_21
REMARK                            x       y       z     vdW  Elec       q    Type
REMARK                         _______ _______ _______ _____ _____    ______ ____
ROOT
ATOM      1  CG  ALA A   1      36.377 -23.108 -15.901  0.00  0.00    -0.004 C 
ENDROOT
BRANCH   1   2
ATOM      2  CD  ALA A   1      37.257 -22.069 -16.600  0.00  0.00    -0.023 C 
BRANCH   2   3
ATOM      3  CE  ALA A   1      36.690 -21.702 -17.971  0.00  0.00    -0.081 C 
BRANCH   3   4
ATOM      4  N   ALA A   1      35.322 -22.191 -18.101  0.00  0.00    +0.392 N 
ATOM      5  H1  ALA A   1      34.730 -21.712 -17.421  0.00  0.00    -0.084 HD
ATOM      6  H2  ALA A   1      35.317 -23.196 -17.933  0.00  0.00    -0.084 HD
BRANCH   4   7
ATOM      7  CA  ALA A   1      34.807 -21.941 -19.440  0.00  0.00    +0.040 C 
ATOM      8  CB  ALA A   1      35.587 -20.806 -20.088  0.00  0.00    -0.012 C 
BRANCH   7  10
ATOM      9  OXT ALA A   1      32.763 -20.682 -19.908  0.00  0.00    -0.253 OA
ATOM     10  C   ALA A   1      33.340 -21.587 -19.321  0.00  0.00    +0.293 C 
BRANCH  10  11
ATOM     11  O   ALA A   1      32.715 -22.434 -18.461  0.00  0.00    -0.482 OA
ATOM     12  H   ALA A   1      31.803 -22.324 -18.275  0.00  0.00    +0.295 HD
ENDBRANCH  10  11
ENDBRANCH   7  10
ENDBRANCH   4   7
ENDBRANCH   3   4
ENDBRANCH   2   3
ENDBRANCH   1   2
BRANCH   1  13
ATOM     13  CB  ALA A   1      37.168 -24.110 -15.048  0.00  0.00    -0.011 C 
BRANCH  13  14
ATOM     14  CA  ALA A   1      36.429 -25.419 -14.746  0.00  0.00    +0.036 C 
BRANCH  14  15
ATOM     15  N   ALA A   1      36.158 -25.561 -13.315  0.00  0.00    +0.389 N 
ATOM     16  H1  ALA A   1      36.019 -24.639 -12.902  0.00  0.00    -0.088 HD
ATOM     17  H2  ALA A   1      36.947 -26.021 -12.863  0.00  0.00    -0.088 HD
ATOM     18  H3  ALA A   1      35.317 -26.123 -13.182  0.00  0.00    -0.088 HD
ENDBRANCH  14  15
BRANCH  14  20
ATOM     19  OXT ALA A   1      38.175 -27.079 -14.599  0.00  0.00    -0.253 OA
ATOM     20  C   ALA A   1      37.193 -26.648 -15.193  0.00  0.00    +0.293 C 
BRANCH  20  21
ATOM     21  O   ALA A   1      36.709 -27.224 -16.320  0.00  0.00    -0.482 OA
ATOM     22  H   ALA A   1      36.436 -26.689 -17.040  0.00  0.00    +0.295 HD
ENDBRANCH  20  21
ENDBRANCH  14  20
ENDBRANCH  13  14
ENDBRANCH   1  13
TORSDOF 11
ENDMDL
MODEL 3
REMARK VINA RESULT:      -6.1      9.443     11.147
REMARK  Name = 17754073
REMARK  11 active torsions:
REMARK  status: ('A' for Active; 'I' for Inactive)
REMARK    1  A    between atoms: CG_1  and  CD_2
REMARK    2  A    between atoms: CG_1  and  CB_13
REMARK    3  A    between atoms: CD_2  and  CE_3
REMARK    4  A    between atoms: CE_3  and  N_4
REMARK    5  A    between atoms: N_4  and  CA_7
REMARK    6  A    between atoms: CA_7  and  C_10
REMARK    7  A    between atoms: C_10  and  O_11
REMARK    8  A    between atoms: CB_13  and  CA_14
REMARK    9  A    between atoms: CA_14  and  N_15
REMARK   10  A    between atoms: CA_14  and  C_20
REMARK   11  A    between atoms: C_20  and  O_21
REMARK                            x       y       z     vdW  Elec       q    Type
REMARK                         _______ _______ _______ _____ _____    ______ ____
ROOT
ATOM      1  CG  ALA A   1      33.636 -19.831 -20.658  0.00  0.00    -0.004 C 
ENDROOT
BRANCH   1   2
ATOM      2  CD  ALA A   1      34.210 -18.566 -21.300  0.00  0.00    -0.023 C 
BRANCH   2   3
ATOM      3  CE  ALA A   1      35.717 -18.694 -21.516  0.00  0.00    -0.081 C 
BRANCH   3   4
ATOM      4  N   ALA A   1      36.076 -18.254 -22.860  0.00  0.00    +0.392 N 
ATOM      5  H1  ALA A   1      36.738 -18.918 -23.263  0.00  0.00    -0.084 HD
ATOM      6  H2  ALA A   1      36.494 -17.327 -22.799  0.00  0.00    -0.084 HD
BRANCH   4   7
ATOM      7  CA  ALA A   1      34.898 -18.178 -23.713  0.00  0.00    +0.040 C 
ATOM      8  CB  ALA A   1      34.820 -19.419 -24.593  0.00  0.00    -0.012 C 
BRANCH   7  10
ATOM      9  OXT ALA A   1      34.706 -16.819 -25.737  0.00  0.00    -0.253 OA
ATOM     10  C   ALA A   1      35.008 -16.926 -24.556  0.00  0.00    +0.293 C 
BRANCH  10  11
ATOM     11  O   ALA A   1      35.487 -15.894 -23.813  0.00  0.00    -0.482 OA
ATOM     12  H   ALA A   1      36.413 -15.785 -23.706  0.00  0.00    +0.295 HD
ENDBRANCH  10  11
ENDBRANCH   7  10
ENDBRANCH   4   7
ENDBRANCH   3   4
ENDBRANCH   2   3
ENDBRANCH   1   2
BRANCH   1  13
ATOM     13  CB  ALA A   1      34.710 -20.781 -20.107  0.00  0.00    -0.011 C 
BRANCH  13  14
ATOM     14  CA  ALA A   1      34.163 -22.055 -19.452  0.00  0.00    +0.036 C 
BRANCH  14  15
ATOM     15  N   ALA A   1      32.763 -21.893 -19.057  0.00  0.00    +0.389 N 
ATOM     16  H1  ALA A   1      32.223 -21.553 -19.852  0.00  0.00    -0.088 HD
ATOM     17  H2  ALA A   1      32.701 -21.222 -18.291  0.00  0.00    -0.088 HD
ATOM     18  H3  ALA A   1      32.389 -22.792 -18.752  0.00  0.00    -0.088 HD
ENDBRANCH  14  15
BRANCH  14  20
ATOM     19  OXT ALA A   1      36.128 -22.205 -18.058  0.00  0.00    -0.253 OA
ATOM     20  C   ALA A   1      34.942 -22.470 -18.222  0.00  0.00    +0.293 C 
BRANCH  20  21
ATOM     21  O   ALA A   1      34.219 -23.177 -17.319  0.00  0.00    -0.482 OA
ATOM     22  H   ALA A   1      34.647 -23.789 -16.752  0.00  0.00    +0.295 HD
ENDBRANCH  20  21
ENDBRANCH  14  20
ENDBRANCH  13  14
ENDBRANCH   1  13
TORSDOF 11
ENDMDL
MODEL 4
REMARK VINA RESULT:      -6.1      7.358      9.497
REMARK  Name = 17754073
REMARK  11 active torsions:
REMARK  status: ('A' for Active; 'I' for Inactive)
REMARK    1  A    between atoms: CG_1  and  CD_2
REMARK    2  A    between atoms: CG_1  and  CB_13
REMARK    3  A    between atoms: CD_2  and  CE_3
REMARK    4  A    between atoms: CE_3  and  N_4
REMARK    5  A    between atoms: N_4  and  CA_7
REMARK    6  A    between atoms: CA_7  and  C_10
REMARK    7  A    between atoms: C_10  and  O_11
REMARK    8  A    between atoms: CB_13  and  CA_14
REMARK    9  A    between atoms: CA_14  and  N_15
REMARK   10  A    between atoms: CA_14  and  C_20
REMARK   11  A    between atoms: C_20  and  O_21
REMARK                            x       y       z     vdW  Elec       q    Type
REMARK                         _______ _______ _______ _____ _____    ______ ____
ROOT
ATOM      1  CG  ALA A   1      31.216 -23.108 -16.585  0.00  0.00    -0.004 C 
ENDROOT
BRANCH   1   2
ATOM      2  CD  ALA A   1      32.669 -23.299 -16.142  0.00  0.00    -0.023 C 
BRANCH   2   3
ATOM      3  CE  ALA A   1      33.623 -23.191 -17.331  0.00  0.00    -0.081 C 
BRANCH   3   4
ATOM      4  N   ALA A   1      32.960 -22.542 -18.456  0.00  0.00    +0.392 N 
ATOM      5  H1  ALA A   1      32.439 -21.733 -18.115  0.00  0.00    -0.084 HD
ATOM      6  H2  ALA A   1      32.331 -23.212 -18.896  0.00  0.00    -0.084 HD
BRANCH   4   7
ATOM      7  CA  ALA A   1      33.932 -22.098 -19.446  0.00  0.00    +0.040 C 
ATOM      8  CB  ALA A   1      35.303 -21.967 -18.797  0.00  0.00    -0.012 C 
BRANCH   7  10
ATOM      9  OXT ALA A   1      34.089 -20.044 -20.764  0.00  0.00    -0.253 OA
ATOM     10  C   ALA A   1      33.468 -20.767 -19.997  0.00  0.00    +0.293 C 
BRANCH  10  11
ATOM     11  O   ALA A   1      32.227 -20.467 -19.531  0.00  0.00    -0.482 OA
ATOM     12  H   ALA A   1      32.122 -19.813 -18.867  0.00  0.00    +0.295 HD
ENDBRANCH  10  11
ENDBRANCH   7  10
ENDBRANCH   4   7
ENDBRANCH   3   4
ENDBRANCH   2   3
ENDBRANCH   1   2
BRANCH   1  13
ATOM     13  CB  ALA A   1      30.278 -22.681 -15.446  0.00  0.00    -0.011 C 
BRANCH  13  14
ATOM     14  CA  ALA A   1      28.869 -23.281 -15.518  0.00  0.00    +0.036 C 
BRANCH  14  15
ATOM     15  N   ALA A   1      28.908 -24.742 -15.463  0.00  0.00    +0.389 N 
ATOM     16  H1  ALA A   1      29.864 -25.051 -15.286  0.00  0.00    -0.088 HD
ATOM     17  H2  ALA A   1      28.585 -25.125 -16.351  0.00  0.00    -0.088 HD
ATOM     18  H3  ALA A   1      28.301 -25.071 -14.711  0.00  0.00    -0.088 HD
ENDBRANCH  14  15
BRANCH  14  20
ATOM     19  OXT ALA A   1      27.864 -21.726 -17.067  0.00  0.00    -0.253 OA
ATOM     20  C   ALA A   1      28.121 -22.888 -16.775  0.00  0.00    +0.293 C 
BRANCH  20  21
ATOM     21  O   ALA A   1      27.741 -23.938 -17.545  0.00  0.00    -0.482 OA
ATOM     22  H   ALA A   1      26.836 -24.177 -17.598  0.00  0.00    +0.295 HD
ENDBRANCH  20  21
ENDBRANCH  14  20
ENDBRANCH  13  14
ENDBRANCH   1  13
TORSDOF 11
ENDMDL
MODEL 5
REMARK VINA RESULT:      -6.1      1.582      5.057
REMARK  Name = 17754073
REMARK  11 active torsions:
REMARK  status: ('A' for Active; 'I' for Inactive)
REMARK    1  A    between atoms: CG_1  and  CD_2
REMARK    2  A    between atoms: CG_1  and  CB_13
REMARK    3  A    between atoms: CD_2  and  CE_3
REMARK    4  A    between atoms: CE_3  and  N_4
REMARK    5  A    between atoms: N_4  and  CA_7
REMARK    6  A    between atoms: CA_7  and  C_10
REMARK    7  A    between atoms: C_10  and  O_11
REMARK    8  A    between atoms: CB_13  and  CA_14
REMARK    9  A    between atoms: CA_14  and  N_15
REMARK   10  A    between atoms: CA_14  and  C_20
REMARK   11  A    between atoms: C_20  and  O_21
REMARK                            x       y       z     vdW  Elec       q    Type
REMARK                         _______ _______ _______ _____ _____    ______ ____
ROOT
ATOM      1  CG  ALA A   1      35.576 -23.354 -15.953  0.00  0.00    -0.004 C 
ENDROOT
BRANCH   1   2
ATOM      2  CD  ALA A   1      36.998 -22.792 -15.888  0.00  0.00    -0.023 C 
BRANCH   2   3
ATOM      3  CE  ALA A   1      37.877 -23.628 -14.957  0.00  0.00    -0.081 C 
BRANCH   3   4
ATOM      4  N   ALA A   1      37.828 -25.033 -15.342  0.00  0.00    +0.392 N 
ATOM      5  H1  ALA A   1      38.094 -25.120 -16.324  0.00  0.00    -0.084 HD
ATOM      6  H2  ALA A   1      36.881 -25.379 -15.198  0.00  0.00    -0.084 HD
BRANCH   4   7
ATOM      7  CA  ALA A   1      38.741 -25.826 -14.530  0.00  0.00    +0.040 C 
ATOM      8  CB  ALA A   1      38.490 -25.547 -13.054  0.00  0.00    -0.012 C 
BRANCH   7  10
ATOM      9  OXT ALA A   1      40.951 -24.820 -14.232  0.00  0.00    -0.253 OA
ATOM     10  C   ALA A   1      40.158 -25.453 -14.914  0.00  0.00    +0.293 C 
BRANCH  10  11
ATOM     11  O   ALA A   1      40.457 -25.937 -16.148  0.00  0.00    -0.482 OA
ATOM     12  H   ALA A   1      39.793 -25.973 -16.811  0.00  0.00    +0.295 HD
ENDBRANCH  10  11
ENDBRANCH   7  10
ENDBRANCH   4   7
ENDBRANCH   3   4
ENDBRANCH   2   3
ENDBRANCH   1   2
BRANCH   1  13
ATOM     13  CB  ALA A   1      34.770 -23.136 -14.664  0.00  0.00    -0.011 C 
BRANCH  13  14
ATOM     14  CA  ALA A   1      34.650 -24.374 -13.767  0.00  0.00    +0.036 C 
BRANCH  14  15
ATOM     15  N   ALA A   1      33.254 -24.786 -13.611  0.00  0.00    +0.389 N 
ATOM     16  H1  ALA A   1      32.928 -24.538 -12.677  0.00  0.00    -0.088 HD
ATOM     17  H2  ALA A   1      33.181 -25.795 -13.740  0.00  0.00    -0.088 HD
ATOM     18  H3  ALA A   1      32.679 -24.312 -14.308  0.00  0.00    -0.088 HD
ENDBRANCH  14  15
BRANCH  14  20
ATOM     19  OXT ALA A   1      35.966 -23.227 -12.100  0.00  0.00    -0.253 OA
ATOM     20  C   ALA A   1      35.222 -24.160 -12.382  0.00  0.00    +0.293 C 
BRANCH  20  21
ATOM     21  O   ALA A   1      34.857 -25.102 -11.478  0.00  0.00    -0.482 OA
ATOM     22  H   ALA A   1      34.857 -26.008 -11.719  0.00  0.00    +0.295 HD
ENDBRANCH  20  21
ENDBRANCH  14  20
ENDBRANCH  13  14
ENDBRANCH   1  13
TORSDOF 11
ENDMDL
MODEL 6
REMARK VINA RESULT:      -6.1      2.541      3.465
REMARK  Name = 17754073
REMARK  11 active torsions:
REMARK  status: ('A' for Active; 'I' for Inactive)
REMARK    1  A    between atoms: CG_1  and  CD_2
REMARK    2  A    between atoms: CG_1  and  CB_13
REMARK    3  A    between atoms: CD_2  and  CE_3
REMARK    4  A    between atoms: CE_3  and  N_4
REMARK    5  A    between atoms: N_4  and  CA_7
REMARK    6  A    between atoms: CA_7  and  C_10
REMARK    7  A    between atoms: C_10  and  O_11
REMARK    8  A    between atoms: CB_13  and  CA_14
REMARK    9  A    between atoms: CA_14  and  N_15
REMARK   10  A    between atoms: CA_14  and  C_20
REMARK   11  A    between atoms: C_20  and  O_21
REMARK                            x       y       z     vdW  Elec       q    Type
REMARK                         _______ _______ _______ _____ _____    ______ ____
ROOT
ATOM      1  CG  ALA A   1      37.051 -25.711 -12.658  0.00  0.00    -0.004 C 
ENDROOT
BRANCH   1   2
ATOM      2  CD  ALA A   1      36.307 -24.645 -11.850  0.00  0.00    -0.023 C 
BRANCH   2   3
ATOM      3  CE  ALA A   1      35.035 -24.198 -12.569  0.00  0.00    -0.081 C 
BRANCH   3   4
ATOM      4  N   ALA A   1      35.369 -23.354 -13.711  0.00  0.00    +0.392 N 
ATOM      5  H1  ALA A   1      36.187 -23.740 -14.184  0.00  0.00    -0.084 HD
ATOM      6  H2  ALA A   1      35.563 -22.412 -13.375  0.00  0.00    -0.084 HD
BRANCH   4   7
ATOM      7  CA  ALA A   1      34.261 -23.293 -14.653  0.00  0.00    +0.040 C 
ATOM      8  CB  ALA A   1      33.223 -24.349 -14.295  0.00  0.00    -0.012 C 
BRANCH   7  10
ATOM      9  OXT ALA A   1      34.158 -23.644 -17.071  0.00  0.00    -0.253 OA
ATOM     10  C   ALA A   1      34.811 -23.528 -16.044  0.00  0.00    +0.293 C 
BRANCH  10  11
ATOM     11  O   ALA A   1      36.168 -23.585 -16.013  0.00  0.00    -0.482 OA
ATOM     12  H   ALA A   1      36.673 -23.011 -16.556  0.00  0.00    +0.295 HD
ENDBRANCH  10  11
ENDBRANCH   7  10
ENDBRANCH   4   7
ENDBRANCH   3   4
ENDBRANCH   2   3
ENDBRANCH   1   2
BRANCH   1  13
ATOM     13  CB  ALA A   1      38.519 -25.355 -12.938  0.00  0.00    -0.011 C 
BRANCH  13  14
ATOM     14  CA  ALA A   1      38.881 -25.252 -14.425  0.00  0.00    +0.036 C 
BRANCH  14  15
ATOM     15  N   ALA A   1      37.837 -25.834 -15.270  0.00  0.00    +0.389 N 
ATOM     16  H1  ALA A   1      37.039 -26.096 -14.692  0.00  0.00    -0.088 HD
ATOM     17  H2  ALA A   1      38.203 -26.662 -15.740  0.00  0.00    -0.088 HD
ATOM     18  H3  ALA A   1      37.543 -25.151 -15.967  0.00  0.00    -0.088 HD
ENDBRANCH  14  15
BRANCH  14  20
ATOM     19  OXT ALA A   1      40.930 -26.424 -13.921  0.00  0.00    -0.253 OA
ATOM     20  C   ALA A   1      40.185 -25.941 -14.766  0.00  0.00    +0.293 C 
BRANCH  20  21
ATOM     21  O   ALA A   1      40.472 -25.962 -16.091  0.00  0.00    -0.482 OA
ATOM     22  H   ALA A   1      41.208 -26.452 -16.404  0.00  0.00    +0.295 HD
ENDBRANCH  20  21
ENDBRANCH  14  20
ENDBRANCH  13  14
ENDBRANCH   1  13
TORSDOF 11
ENDMDL
MODEL 7
REMARK VINA RESULT:      -6.1      5.124      7.581
REMARK  Name = 17754073
REMARK  11 active torsions:
REMARK  status: ('A' for Active; 'I' for Inactive)
REMARK    1  A    between atoms: CG_1  and  CD_2
REMARK    2  A    between atoms: CG_1  and  CB_13
REMARK    3  A    between atoms: CD_2  and  CE_3
REMARK    4  A    between atoms: CE_3  and  N_4
REMARK    5  A    between atoms: N_4  and  CA_7
REMARK    6  A    between atoms: CA_7  and  C_10
REMARK    7  A    between atoms: C_10  and  O_11
REMARK    8  A    between atoms: CB_13  and  CA_14
REMARK    9  A    between atoms: CA_14  and  N_15
REMARK   10  A    between atoms: CA_14  and  C_20
REMARK   11  A    between atoms: C_20  and  O_21
REMARK                            x       y       z     vdW  Elec       q    Type
REMARK                         _______ _______ _______ _____ _____    ______ ____
ROOT
ATOM      1  CG  ALA A   1      32.122 -23.248 -14.950  0.00  0.00    -0.004 C 
ENDROOT
BRANCH   1   2
ATOM      2  CD  ALA A   1      33.525 -23.490 -15.511  0.00  0.00    -0.023 C 
BRANCH   2   3
ATOM      3  CE  ALA A   1      34.428 -24.147 -14.467  0.00  0.00    -0.081 C 
BRANCH   3   4
ATOM      4  N   ALA A   1      35.064 -25.335 -15.024  0.00  0.00    +0.392 N 
ATOM      5  H1  ALA A   1      35.030 -25.287 -16.042  0.00  0.00    -0.084 HD
ATOM      6  H2  ALA A   1      34.565 -26.159 -14.689  0.00  0.00    -0.084 HD
BRANCH   4   7
ATOM      7  CA  ALA A   1      36.453 -25.428 -14.598  0.00  0.00    +0.040 C 
ATOM      8  CB  ALA A   1      37.209 -24.180 -15.033  0.00  0.00    -0.012 C 
BRANCH   7  10
ATOM      9  OXT ALA A   1      36.611 -27.285 -16.183  0.00  0.00    -0.253 OA
ATOM     10  C   ALA A   1      37.056 -26.668 -15.226  0.00  0.00    +0.293 C 
BRANCH  10  11
ATOM     11  O   ALA A   1      38.200 -27.017 -14.581  0.00  0.00    -0.482 OA
ATOM     12  H   ALA A   1      38.334 -27.906 -14.313  0.00  0.00    +0.295 HD
ENDBRANCH  10  11
ENDBRANCH   7  10
ENDBRANCH   4   7
ENDBRANCH   3   4
ENDBRANCH   2   3
ENDBRANCH   1   2
BRANCH   1  13
ATOM     13  CB  ALA A   1      31.060 -23.013 -16.034  0.00  0.00    -0.011 C 
BRANCH  13  14
ATOM     14  CA  ALA A   1      29.697 -23.653 -15.744  0.00  0.00    +0.036 C 
BRANCH  14  15
ATOM     15  N   ALA A   1      29.791 -25.113 -15.703  0.00  0.00    +0.389 N 
ATOM     16  H1  ALA A   1      29.551 -25.495 -16.618  0.00  0.00    -0.088 HD
ATOM     17  H2  ALA A   1      29.145 -25.476 -15.002  0.00  0.00    -0.088 HD
ATOM     18  H3  ALA A   1      30.743 -25.386 -15.460  0.00  0.00    -0.088 HD
ENDBRANCH  14  15
BRANCH  14  20
ATOM     19  OXT ALA A   1      27.928 -24.120 -17.319  0.00  0.00    -0.253 OA
ATOM     20  C   ALA A   1      28.642 -23.290 -16.767  0.00  0.00    +0.293 C 
BRANCH  20  21
ATOM     21  O   ALA A   1      28.564 -21.963 -17.037  0.00  0.00    -0.482 OA
ATOM     22  H   ALA A   1      28.237 -21.371 -16.387  0.00  0.00    +0.295 HD
ENDBRANCH  20  21
ENDBRANCH  14  20
ENDBRANCH  13  14
ENDBRANCH   1  13
TORSDOF 11
ENDMDL
MODEL 8
REMARK VINA RESULT:      -6.0      5.208      7.367
REMARK  Name = 17754073
REMARK  11 active torsions:
REMARK  status: ('A' for Active; 'I' for Inactive)
REMARK    1  A    between atoms: CG_1  and  CD_2
REMARK    2  A    between atoms: CG_1  and  CB_13
REMARK    3  A    between atoms: CD_2  and  CE_3
REMARK    4  A    between atoms: CE_3  and  N_4
REMARK    5  A    between atoms: N_4  and  CA_7
REMARK    6  A    between atoms: CA_7  and  C_10
REMARK    7  A    between atoms: C_10  and  O_11
REMARK    8  A    between atoms: CB_13  and  CA_14
REMARK    9  A    between atoms: CA_14  and  N_15
REMARK   10  A    between atoms: CA_14  and  C_20
REMARK   11  A    between atoms: C_20  and  O_21
REMARK                            x       y       z     vdW  Elec       q    Type
REMARK                         _______ _______ _______ _____ _____    ______ ____
ROOT
ATOM      1  CG  ALA A   1      31.604 -23.113 -14.628  0.00  0.00    -0.004 C 
ENDROOT
BRANCH   1   2
ATOM      2  CD  ALA A   1      33.085 -23.302 -14.965  0.00  0.00    -0.023 C 
BRANCH   2   3
ATOM      3  CE  ALA A   1      33.746 -24.289 -14.003  0.00  0.00    -0.081 C 
BRANCH   3   4
ATOM      4  N   ALA A   1      34.316 -23.580 -12.863  0.00  0.00    +0.392 N 
ATOM      5  H1  ALA A   1      33.825 -23.862 -12.014  0.00  0.00    -0.084 HD
ATOM      6  H2  ALA A   1      34.214 -22.577 -13.018  0.00  0.00    -0.084 HD
BRANCH   4   7
ATOM      7  CA  ALA A   1      35.732 -23.886 -12.717  0.00  0.00    +0.040 C 
ATOM      8  CB  ALA A   1      36.142 -24.927 -13.749  0.00  0.00    -0.012 C 
BRANCH   7  10
ATOM      9  OXT ALA A   1      35.207 -25.124 -10.674  0.00  0.00    -0.253 OA
ATOM     10  C   ALA A   1      35.959 -24.402 -11.312  0.00  0.00    +0.293 C 
BRANCH  10  11
ATOM     11  O   ALA A   1      37.151 -23.959 -10.831  0.00  0.00    -0.482 OA
ATOM     12  H   ALA A   1      37.575 -24.420 -10.134  0.00  0.00    +0.295 HD
ENDBRANCH  10  11
ENDBRANCH   7  10
ENDBRANCH   4   7
ENDBRANCH   3   4
ENDBRANCH   2   3
ENDBRANCH   1   2
BRANCH   1  13
ATOM     13  CB  ALA A   1      30.687 -23.130 -15.860  0.00  0.00    -0.011 C 
BRANCH  13  14
ATOM     14  CA  ALA A   1      29.201 -23.342 -15.549  0.00  0.00    +0.036 C 
BRANCH  14  15
ATOM     15  N   ALA A   1      28.924 -24.735 -15.194  0.00  0.00    +0.389 N 
ATOM     16  H1  ALA A   1      29.758 -25.300 -15.356  0.00  0.00    -0.088 HD
ATOM     17  H2  ALA A   1      28.158 -25.087 -15.769  0.00  0.00    -0.088 HD
ATOM     18  H3  ALA A   1      28.662 -24.790 -14.210  0.00  0.00    -0.088 HD
ENDBRANCH  14  15
BRANCH  14  20
ATOM     19  OXT ALA A   1      27.980 -21.819 -16.969  0.00  0.00    -0.253 OA
ATOM     20  C   ALA A   1      28.295 -22.974 -16.705  0.00  0.00    +0.293 C 
BRANCH  20  21
ATOM     21  O   ALA A   1      27.844 -24.036 -17.418  0.00  0.00    -0.482 OA
ATOM     22  H   ALA A   1      28.060 -24.116 -18.327  0.00  0.00    +0.295 HD
ENDBRANCH  20  21
ENDBRANCH  14  20
ENDBRANCH  13  14
ENDBRANCH   1  13
TORSDOF 11
ENDMDL
MODEL 9
REMARK VINA RESULT:      -6.0      2.736      6.181
REMARK  Name = 17754073
REMARK  11 active torsions:
REMARK  status: ('A' for Active; 'I' for Inactive)
REMARK    1  A    between atoms: CG_1  and  CD_2
REMARK    2  A    between atoms: CG_1  and  CB_13
REMARK    3  A    between atoms: CD_2  and  CE_3
REMARK    4  A    between atoms: CE_3  and  N_4
REMARK    5  A    between atoms: N_4  and  CA_7
REMARK    6  A    between atoms: CA_7  and  C_10
REMARK    7  A    between atoms: C_10  and  O_11
REMARK    8  A    between atoms: CB_13  and  CA_14
REMARK    9  A    between atoms: CA_14  and  N_15
REMARK   10  A    between atoms: CA_14  and  C_20
REMARK   11  A    between atoms: C_20  and  O_21
REMARK                            x       y       z     vdW  Elec       q    Type
REMARK                         _______ _______ _______ _____ _____    ______ ____
ROOT
ATOM      1  CG  ALA A   1      34.397 -23.159 -15.223  0.00  0.00    -0.004 C 
ENDROOT
BRANCH   1   2
ATOM      2  CD  ALA A   1      35.431 -24.269 -15.421  0.00  0.00    -0.023 C 
BRANCH   2   3
ATOM      3  CE  ALA A   1      36.692 -23.997 -14.601  0.00  0.00    -0.081 C 
BRANCH   3   4
ATOM      4  N   ALA A   1      37.875 -24.439 -15.330  0.00  0.00    +0.392 N 
ATOM      5  H1  ALA A   1      38.485 -23.637 -15.494  0.00  0.00    -0.084 HD
ATOM      6  H2  ALA A   1      37.579 -24.848 -16.216  0.00  0.00    -0.084 HD
BRANCH   4   7
ATOM      7  CA  ALA A   1      38.606 -25.446 -14.574  0.00  0.00    +0.040 C 
ATOM      8  CB  ALA A   1      38.369 -25.241 -13.083  0.00  0.00    -0.012 C 
BRANCH   7  10
ATOM      9  OXT ALA A   1      40.929 -24.765 -14.223  0.00  0.00    -0.253 OA
ATOM     10  C   ALA A   1      40.076 -25.312 -14.909  0.00  0.00    +0.293 C 
BRANCH  10  11
ATOM     11  O   ALA A   1      40.347 -25.905 -16.101  0.00  0.00    -0.482 OA
ATOM     12  H   ALA A   1      41.014 -25.553 -16.658  0.00  0.00    +0.295 HD
ENDBRANCH  10  11
ENDBRANCH   7  10
ENDBRANCH   4   7
ENDBRANCH   3   4
ENDBRANCH   2   3
ENDBRANCH   1   2
BRANCH   1  13
ATOM     13  CB  ALA A   1      33.001 -23.518 -15.754  0.00  0.00    -0.011 C 
BRANCH  13  14
ATOM     14  CA  ALA A   1      31.894 -23.524 -14.692  0.00  0.00    +0.036 C 
BRANCH  14  15
ATOM     15  N   ALA A   1      32.237 -22.664 -13.559  0.00  0.00    +0.389 N 
ATOM     16  H1  ALA A   1      32.824 -23.182 -12.904  0.00  0.00    -0.088 HD
ATOM     17  H2  ALA A   1      31.384 -22.365 -13.088  0.00  0.00    -0.088 HD
ATOM     18  H3  ALA A   1      32.744 -21.845 -13.894  0.00  0.00    -0.088 HD
ENDBRANCH  14  15
BRANCH  14  20
ATOM     19  OXT ALA A   1      30.723 -25.632 -14.598  0.00  0.00    -0.253 OA
ATOM     20  C   ALA A   1      31.603 -24.906 -14.148  0.00  0.00    +0.293 C 
BRANCH  20  21
ATOM     21  O   ALA A   1      32.388 -25.270 -13.105  0.00  0.00    -0.482 OA
ATOM     22  H   ALA A   1      32.216 -24.930 -12.248  0.00  0.00    +0.295 HD
ENDBRANCH  20  21
ENDBRANCH  14  20
ENDBRANCH  13  14
ENDBRANCH   1  13
TORSDOF 11
ENDMDL
