MODEL 1
REMARK VINA RESULT:      -5.5      0.000      0.000
REMARK  Name = 447607
REMARK  4 active torsions:
REMARK  status: ('A' for Active; 'I' for Inactive)
REMARK    1  A    between atoms: C_2  and  C_13
REMARK    2  A    between atoms: C_3  and  O_9
REMARK    3  A    between atoms: C_4  and  O_11
REMARK    4  A    between atoms: C_13  and  O_14
REMARK                            x       y       z     vdW  Elec       q    Type
REMARK                         _______ _______ _______ _____ _____    ______ ____
ROOT
ATOM      1  N   UNL     1      35.759 -25.172 -13.470  0.00  0.00    +0.386 N 
ATOM      2  C   UNL     1      38.221 -24.894 -13.423  0.00  0.00    +0.037 C 
ATOM      3  C   UNL     1      38.148 -24.413 -11.965  0.00  0.00    +0.135 C 
ATOM      4  C   UNL     1      36.767 -23.829 -11.656  0.00  0.00    +0.116 C 
ATOM      5  C   UNL     1      37.040 -25.820 -13.747  0.00  0.00    -0.077 C 
ATOM      6  C   UNL     1      35.651 -24.790 -12.064  0.00  0.00    -0.049 C 
ATOM      7  H   UNL     1      35.003 -25.818 -13.697  0.00  0.00    -0.084 HD
ATOM      8  H   UNL     1      35.695 -24.327 -14.039  0.00  0.00    -0.084 HD
ENDROOT
BRANCH   3   9
ATOM      9  O   UNL     1      39.137 -23.405 -11.757  0.00  0.00    -0.382 OA
ATOM     10  H   UNL     1      39.953 -23.654 -12.218  0.00  0.00    +0.210 HD
ENDBRANCH   3   9
BRANCH   4  11
ATOM     11  O   UNL     1      36.685 -23.589 -10.252  0.00  0.00    -0.384 OA
ATOM     12  H   UNL     1      35.913 -23.033 -10.063  0.00  0.00    +0.210 HD
ENDBRANCH   4  11
BRANCH   2  13
ATOM     13  C   UNL     1      39.548 -25.600 -13.709  0.00  0.00    +0.137 C 
BRANCH  13  14
ATOM     14  O   UNL     1      40.516 -24.618 -14.027  0.00  0.00    -0.382 OA
ATOM     15  H   UNL     1      40.851 -24.773 -14.924  0.00  0.00    +0.210 HD
ENDBRANCH  13  14
ENDBRANCH   2  13
TORSDOF 4
ENDMDL
MODEL 2
REMARK VINA RESULT:      -5.4      2.110      3.908
REMARK  Name = 447607
REMARK  4 active torsions:
REMARK  status: ('A' for Active; 'I' for Inactive)
REMARK    1  A    between atoms: C_2  and  C_13
REMARK    2  A    between atoms: C_3  and  O_9
REMARK    3  A    between atoms: C_4  and  O_11
REMARK    4  A    between atoms: C_13  and  O_14
REMARK                            x       y       z     vdW  Elec       q    Type
REMARK                         _______ _______ _______ _____ _____    ______ ____
ROOT
ATOM      1  N   UNL     1      36.564 -23.629 -14.818  0.00  0.00    +0.386 N 
ATOM      2  C   UNL     1      36.166 -24.511 -12.536  0.00  0.00    +0.037 C 
ATOM      3  C   UNL     1      37.269 -25.561 -12.740  0.00  0.00    +0.135 C 
ATOM      4  C   UNL     1      37.473 -25.850 -14.229  0.00  0.00    +0.116 C 
ATOM      5  C   UNL     1      36.429 -23.273 -13.405  0.00  0.00    -0.077 C 
ATOM      6  C   UNL     1      37.668 -24.561 -15.026  0.00  0.00    -0.049 C 
ATOM      7  H   UNL     1      36.738 -22.782 -15.359  0.00  0.00    -0.084 HD
ATOM      8  H   UNL     1      35.700 -24.079 -15.121  0.00  0.00    -0.084 HD
ENDROOT
BRANCH   3   9
ATOM      9  O   UNL     1      36.892 -26.768 -12.078  0.00  0.00    -0.382 OA
ATOM     10  H   UNL     1      37.325 -27.521 -12.510  0.00  0.00    +0.210 HD
ENDBRANCH   3   9
BRANCH   4  11
ATOM     11  O   UNL     1      38.634 -26.667 -14.373  0.00  0.00    -0.384 OA
ATOM     12  H   UNL     1      39.399 -26.216 -13.983  0.00  0.00    +0.210 HD
ENDBRANCH   4  11
BRANCH   2  13
ATOM     13  C   UNL     1      36.042 -24.114 -11.063  0.00  0.00    +0.137 C 
BRANCH  13  14
ATOM     14  O   UNL     1      35.285 -25.106 -10.397  0.00  0.00    -0.382 OA
ATOM     15  H   UNL     1      35.233 -24.892  -9.452  0.00  0.00    +0.210 HD
ENDBRANCH  13  14
ENDBRANCH   2  13
TORSDOF 4
ENDMDL
MODEL 3
REMARK VINA RESULT:      -5.3      7.343      8.750
REMARK  Name = 447607
REMARK  4 active torsions:
REMARK  status: ('A' for Active; 'I' for Inactive)
REMARK    1  A    between atoms: C_2  and  C_13
REMARK    2  A    between atoms: C_3  and  O_9
REMARK    3  A    between atoms: C_4  and  O_11
REMARK    4  A    between atoms: C_13  and  O_14
REMARK                            x       y       z     vdW  Elec       q    Type
REMARK                         _______ _______ _______ _____ _____    ______ ____
ROOT
ATOM      1  N   UNL     1      32.190 -23.519 -15.860  0.00  0.00    +0.386 N 
ATOM      2  C   UNL     1      29.771 -23.968 -16.163  0.00  0.00    +0.037 C 
ATOM      3  C   UNL     1      29.653 -24.381 -14.688  0.00  0.00    +0.135 C 
ATOM      4  C   UNL     1      31.006 -24.851 -14.147  0.00  0.00    +0.116 C 
ATOM      5  C   UNL     1      30.926 -22.976 -16.358  0.00  0.00    -0.077 C 
ATOM      6  C   UNL     1      32.107 -23.832 -14.436  0.00  0.00    -0.049 C 
ATOM      7  H   UNL     1      32.929 -22.831 -16.006  0.00  0.00    -0.084 HD
ATOM      8  H   UNL     1      32.393 -24.381 -16.368  0.00  0.00    -0.084 HD
ENDROOT
BRANCH   3   9
ATOM      9  O   UNL     1      28.710 -25.446 -14.575  0.00  0.00    -0.382 OA
ATOM     10  H   UNL     1      27.823 -25.078 -14.441  0.00  0.00    +0.210 HD
ENDBRANCH   3   9
BRANCH   4  11
ATOM     11  O   UNL     1      30.890 -25.025 -12.735  0.00  0.00    -0.384 OA
ATOM     12  H   UNL     1      30.291 -24.353 -12.374  0.00  0.00    +0.210 HD
ENDBRANCH   4  11
BRANCH   2  13
ATOM     13  C   UNL     1      28.460 -23.371 -16.679  0.00  0.00    +0.137 C 
BRANCH  13  14
ATOM     14  O   UNL     1      27.767 -24.372 -17.400  0.00  0.00    -0.382 OA
ATOM     15  H   UNL     1      27.594 -25.128 -16.818  0.00  0.00    +0.210 HD
ENDBRANCH  13  14
ENDBRANCH   2  13
TORSDOF 4
ENDMDL
MODEL 4
REMARK VINA RESULT:      -5.3      1.782      3.641
REMARK  Name = 447607
REMARK  4 active torsions:
REMARK  status: ('A' for Active; 'I' for Inactive)
REMARK    1  A    between atoms: C_2  and  C_13
REMARK    2  A    between atoms: C_3  and  O_9
REMARK    3  A    between atoms: C_4  and  O_11
REMARK    4  A    between atoms: C_13  and  O_14
REMARK                            x       y       z     vdW  Elec       q    Type
REMARK                         _______ _______ _______ _____ _____    ______ ____
ROOT
ATOM      1  N   UNL     1      35.095 -25.194 -14.605  0.00  0.00    +0.386 N 
ATOM      2  C   UNL     1      36.103 -24.747 -12.385  0.00  0.00    +0.037 C 
ATOM      3  C   UNL     1      37.395 -25.457 -12.819  0.00  0.00    +0.135 C 
ATOM      4  C   UNL     1      37.112 -26.459 -13.941  0.00  0.00    +0.116 C 
ATOM      5  C   UNL     1      35.370 -24.165 -13.602  0.00  0.00    -0.077 C 
ATOM      6  C   UNL     1      36.329 -25.812 -15.082  0.00  0.00    -0.049 C 
ATOM      7  H   UNL     1      34.610 -24.768 -15.395  0.00  0.00    -0.084 HD
ATOM      8  H   UNL     1      34.518 -25.917 -14.175  0.00  0.00    -0.084 HD
ENDROOT
BRANCH   3   9
ATOM      9  O   UNL     1      37.942 -26.153 -11.700  0.00  0.00    -0.382 OA
ATOM     10  H   UNL     1      37.251 -26.285 -11.032  0.00  0.00    +0.210 HD
ENDBRANCH   3   9
BRANCH   4  11
ATOM     11  O   UNL     1      38.360 -26.936 -14.443  0.00  0.00    -0.384 OA
ATOM     12  H   UNL     1      38.768 -27.526 -13.790  0.00  0.00    +0.210 HD
ENDBRANCH   4  11
BRANCH   2  13
ATOM     13  C   UNL     1      36.391 -23.649 -11.358  0.00  0.00    +0.137 C 
BRANCH  13  14
ATOM     14  O   UNL     1      36.192 -24.186 -10.065  0.00  0.00    -0.382 OA
ATOM     15  H   UNL     1      36.184 -25.154 -10.114  0.00  0.00    +0.210 HD
ENDBRANCH  13  14
ENDBRANCH   2  13
TORSDOF 4
ENDMDL
MODEL 5
REMARK VINA RESULT:      -5.3      2.851      2.897
REMARK  Name = 447607
REMARK  4 active torsions:
REMARK  status: ('A' for Active; 'I' for Inactive)
REMARK    1  A    between atoms: C_2  and  C_13
REMARK    2  A    between atoms: C_3  and  O_9
REMARK    3  A    between atoms: C_4  and  O_11
REMARK    4  A    between atoms: C_13  and  O_14
REMARK                            x       y       z     vdW  Elec       q    Type
REMARK                         _______ _______ _______ _____ _____    ______ ____
ROOT
ATOM      1  N   UNL     1      35.900 -26.430 -14.875  0.00  0.00    +0.386 N 
ATOM      2  C   UNL     1      38.277 -25.738 -15.012  0.00  0.00    +0.037 C 
ATOM      3  C   UNL     1      37.860 -24.261 -14.933  0.00  0.00    +0.135 C 
ATOM      4  C   UNL     1      36.422 -24.077 -15.423  0.00  0.00    +0.116 C 
ATOM      5  C   UNL     1      37.238 -26.631 -14.319  0.00  0.00    -0.077 C 
ATOM      6  C   UNL     1      35.467 -25.043 -14.724  0.00  0.00    -0.049 C 
ATOM      7  H   UNL     1      35.242 -27.038 -14.388  0.00  0.00    -0.084 HD
ATOM      8  H   UNL     1      35.928 -26.652 -15.871  0.00  0.00    -0.084 HD
ENDROOT
BRANCH   3   9
ATOM      9  O   UNL     1      38.735 -23.486 -15.754  0.00  0.00    -0.382 OA
ATOM     10  H   UNL     1      39.653 -23.646 -15.486  0.00  0.00    +0.210 HD
ENDBRANCH   3   9
BRANCH   4  11
ATOM     11  O   UNL     1      36.019 -22.737 -15.139  0.00  0.00    -0.384 OA
ATOM     12  H   UNL     1      35.075 -22.635 -15.335  0.00  0.00    +0.210 HD
ENDBRANCH   4  11
BRANCH   2  13
ATOM     13  C   UNL     1      39.663 -25.958 -14.403  0.00  0.00    +0.137 C 
BRANCH  13  14
ATOM     14  O   UNL     1      40.615 -25.957 -15.450  0.00  0.00    -0.382 OA
ATOM     15  H   UNL     1      40.208 -26.307 -16.258  0.00  0.00    +0.210 HD
ENDBRANCH  13  14
ENDBRANCH   2  13
TORSDOF 4
ENDMDL
MODEL 6
REMARK VINA RESULT:      -5.3      2.066      2.246
REMARK  Name = 447607
REMARK  4 active torsions:
REMARK  status: ('A' for Active; 'I' for Inactive)
REMARK    1  A    between atoms: C_2  and  C_13
REMARK    2  A    between atoms: C_3  and  O_9
REMARK    3  A    between atoms: C_4  and  O_11
REMARK    4  A    between atoms: C_13  and  O_14
REMARK                            x       y       z     vdW  Elec       q    Type
REMARK                         _______ _______ _______ _____ _____    ______ ____
ROOT
ATOM      1  N   UNL     1      35.095 -23.848 -14.189  0.00  0.00    +0.386 N 
ATOM      2  C   UNL     1      37.107 -25.286 -14.019  0.00  0.00    +0.037 C 
ATOM      3  C   UNL     1      36.724 -25.666 -12.580  0.00  0.00    +0.135 C 
ATOM      4  C   UNL     1      35.841 -24.586 -11.951  0.00  0.00    +0.116 C 
ATOM      5  C   UNL     1      35.858 -24.918 -14.832  0.00  0.00    -0.077 C 
ATOM      6  C   UNL     1      34.656 -24.240 -12.852  0.00  0.00    -0.049 C 
ATOM      7  H   UNL     1      34.276 -23.635 -14.758  0.00  0.00    -0.084 HD
ATOM      8  H   UNL     1      35.698 -23.030 -14.103  0.00  0.00    -0.084 HD
ENDROOT
BRANCH   3   9
ATOM      9  O   UNL     1      37.914 -25.806 -11.804  0.00  0.00    -0.382 OA
ATOM     10  H   UNL     1      37.755 -25.471 -10.907  0.00  0.00    +0.210 HD
ENDBRANCH   3   9
BRANCH   4  11
ATOM     11  O   UNL     1      35.350 -25.077 -10.704  0.00  0.00    -0.384 OA
ATOM     12  H   UNL     1      35.647 -24.495  -9.987  0.00  0.00    +0.210 HD
ENDBRANCH   4  11
BRANCH   2  13
ATOM     13  C   UNL     1      37.878 -26.416 -14.705  0.00  0.00    +0.137 C 
BRANCH  13  14
ATOM     14  O   UNL     1      37.176 -26.788 -15.876  0.00  0.00    -0.382 OA
ATOM     15  H   UNL     1      36.478 -27.421 -15.647  0.00  0.00    +0.210 HD
ENDBRANCH  13  14
ENDBRANCH   2  13
TORSDOF 4
ENDMDL
MODEL 7
REMARK VINA RESULT:      -5.2     10.698     11.149
REMARK  Name = 447607
REMARK  4 active torsions:
REMARK  status: ('A' for Active; 'I' for Inactive)
REMARK    1  A    between atoms: C_2  and  C_13
REMARK    2  A    between atoms: C_3  and  O_9
REMARK    3  A    between atoms: C_4  and  O_11
REMARK    4  A    between atoms: C_13  and  O_14
REMARK                            x       y       z     vdW  Elec       q    Type
REMARK                         _______ _______ _______ _____ _____    ______ ____
ROOT
ATOM      1  N   UNL     1      42.257 -13.507 -15.712  0.00  0.00    +0.386 N 
ATOM      2  C   UNL     1      42.942 -15.368 -17.199  0.00  0.00    +0.037 C 
ATOM      3  C   UNL     1      41.680 -16.154 -16.810  0.00  0.00    +0.135 C 
ATOM      4  C   UNL     1      41.162 -15.706 -15.441  0.00  0.00    +0.116 C 
ATOM      5  C   UNL     1      42.704 -13.858 -17.060  0.00  0.00    -0.077 C 
ATOM      6  C   UNL     1      41.010 -14.187 -15.372  0.00  0.00    -0.049 C 
ATOM      7  H   UNL     1      42.109 -12.499 -15.662  0.00  0.00    -0.084 HD
ATOM      8  H   UNL     1      42.975 -13.799 -15.048  0.00  0.00    -0.084 HD
ENDROOT
BRANCH   3   9
ATOM      9  O   UNL     1      41.996 -17.545 -16.756  0.00  0.00    -0.382 OA
ATOM     10  H   UNL     1      42.067 -17.824 -15.830  0.00  0.00    +0.210 HD
ENDBRANCH   3   9
BRANCH   4  11
ATOM     11  O   UNL     1      39.889 -16.312 -15.222  0.00  0.00    -0.384 OA
ATOM     12  H   UNL     1      39.897 -16.787 -14.376  0.00  0.00    +0.210 HD
ENDBRANCH   4  11
BRANCH   2  13
ATOM     13  C   UNL     1      43.394 -15.711 -18.619  0.00  0.00    +0.137 C 
BRANCH  13  14
ATOM     14  O   UNL     1      42.344 -16.403 -19.267  0.00  0.00    -0.382 OA
ATOM     15  H   UNL     1      41.514 -15.916 -19.147  0.00  0.00    +0.210 HD
ENDBRANCH  13  14
ENDBRANCH   2  13
TORSDOF 4
ENDMDL
MODEL 8
REMARK VINA RESULT:      -5.2      6.546      7.822
REMARK  Name = 447607
REMARK  4 active torsions:
REMARK  status: ('A' for Active; 'I' for Inactive)
REMARK    1  A    between atoms: C_2  and  C_13
REMARK    2  A    between atoms: C_3  and  O_9
REMARK    3  A    between atoms: C_4  and  O_11
REMARK    4  A    between atoms: C_13  and  O_14
REMARK                            x       y       z     vdW  Elec       q    Type
REMARK                         _______ _______ _______ _____ _____    ______ ____
ROOT
ATOM      1  N   UNL     1      29.797 -23.006 -16.587  0.00  0.00    +0.386 N 
ATOM      2  C   UNL     1      31.405 -23.392 -14.741  0.00  0.00    +0.037 C 
ATOM      3  C   UNL     1      30.573 -24.589 -14.255  0.00  0.00    +0.135 C 
ATOM      4  C   UNL     1      29.116 -24.454 -14.703  0.00  0.00    +0.116 C 
ATOM      5  C   UNL     1      31.210 -23.173 -16.248  0.00  0.00    -0.077 C 
ATOM      6  C   UNL     1      29.017 -24.180 -16.203  0.00  0.00    -0.049 C 
ATOM      7  H   UNL     1      29.711 -22.865 -17.594  0.00  0.00    -0.084 HD
ATOM      8  H   UNL     1      29.436 -22.199 -16.077  0.00  0.00    -0.084 HD
ENDROOT
BRANCH   3   9
ATOM      9  O   UNL     1      30.619 -24.640 -12.829  0.00  0.00    -0.382 OA
ATOM     10  H   UNL     1      29.972 -24.017 -12.463  0.00  0.00    +0.210 HD
ENDBRANCH   3   9
BRANCH   4  11
ATOM     11  O   UNL     1      28.440 -25.676 -14.407  0.00  0.00    -0.384 OA
ATOM     12  H   UNL     1      27.829 -25.891 -15.129  0.00  0.00    +0.210 HD
ENDBRANCH   4  11
BRANCH   2  13
ATOM     13  C   UNL     1      32.889 -23.577 -14.415  0.00  0.00    +0.137 C 
BRANCH  13  14
ATOM     14  O   UNL     1      33.083 -23.292 -13.043  0.00  0.00    -0.382 OA
ATOM     15  H   UNL     1      32.667 -23.985 -12.506  0.00  0.00    +0.210 HD
ENDBRANCH  13  14
ENDBRANCH   2  13
TORSDOF 4
ENDMDL
MODEL 9
REMARK VINA RESULT:      -5.2      2.681      3.161
REMARK  Name = 447607
REMARK  4 active torsions:
REMARK  status: ('A' for Active; 'I' for Inactive)
REMARK    1  A    between atoms: C_2  and  C_13
REMARK    2  A    between atoms: C_3  and  O_9
REMARK    3  A    between atoms: C_4  and  O_11
REMARK    4  A    between atoms: C_13  and  O_14
REMARK                            x       y       z     vdW  Elec       q    Type
REMARK                         _______ _______ _______ _____ _____    ______ ____
ROOT
ATOM      1  N   UNL     1      37.322 -24.451 -12.332  0.00  0.00    +0.386 N 
ATOM      2  C   UNL     1      38.716 -25.819 -13.858  0.00  0.00    +0.037 C 
ATOM      3  C   UNL     1      37.737 -25.547 -15.011  0.00  0.00    +0.135 C 
ATOM      4  C   UNL     1      36.345 -25.211 -14.472  0.00  0.00    +0.116 C 
ATOM      5  C   UNL     1      38.678 -24.676 -12.834  0.00  0.00    -0.077 C 
ATOM      6  C   UNL     1      36.406 -24.107 -13.417  0.00  0.00    -0.049 C 
ATOM      7  H   UNL     1      37.339 -23.686 -11.658  0.00  0.00    -0.084 HD
ATOM      8  H   UNL     1      36.993 -25.311 -11.894  0.00  0.00    -0.084 HD
ENDROOT
BRANCH   3   9
ATOM      9  O   UNL     1      37.651 -26.710 -15.833  0.00  0.00    -0.382 OA
ATOM     10  H   UNL     1      37.467 -27.484 -15.278  0.00  0.00    +0.210 HD
ENDBRANCH   3   9
BRANCH   4  11
ATOM     11  O   UNL     1      35.535 -24.770 -15.561  0.00  0.00    -0.384 OA
ATOM     12  H   UNL     1      36.101 -24.552 -16.318  0.00  0.00    +0.210 HD
ENDBRANCH   4  11
BRANCH   2  13
ATOM     13  C   UNL     1      40.141 -26.025 -14.376  0.00  0.00    +0.137 C 
BRANCH  13  14
ATOM     14  O   UNL     1      40.163 -25.714 -15.757  0.00  0.00    -0.382 OA
ATOM     15  H   UNL     1      39.588 -26.331 -16.236  0.00  0.00    +0.210 HD
ENDBRANCH  13  14
ENDBRANCH   2  13
TORSDOF 4
ENDMDL
