MODEL 1
REMARK VINA RESULT:      -8.2      0.000      0.000
REMARK  Name = 903
REMARK  4 active torsions:
REMARK  status: ('A' for Active; 'I' for Inactive)
REMARK    1  A    between atoms: C_2  and  C_13
REMARK    2  A    between atoms: C_8  and  O_11
REMARK    3  A    between atoms: C_13  and  C_14
REMARK    4  A    between atoms: C_14  and  N_16
REMARK                            x       y       z     vdW  Elec       q    Type
REMARK                         _______ _______ _______ _____ _____    ______ ____
ROOT
ATOM      1  N   UNL     1      37.174 -19.469 -20.895  0.00  0.00    -0.312 N 
ATOM      2  C   UNL     1      35.273 -18.640 -21.683  0.00  0.00    -0.005 C 
ATOM      3  C   UNL     1      34.960 -19.733 -20.828  0.00  0.00    +0.014 C 
ATOM      4  C   UNL     1      36.171 -20.236 -20.346  0.00  0.00    +0.048 C 
ATOM      5  C   UNL     1      36.641 -18.502 -21.704  0.00  0.00    +0.058 C 
ATOM      6  C   UNL     1      33.760 -20.346 -20.415  0.00  0.00    +0.038 C 
ATOM      7  C   UNL     1      36.242 -21.324 -19.470  0.00  0.00    +0.018 C 
ATOM      8  C   UNL     1      33.816 -21.436 -19.539  0.00  0.00    +0.134 C 
ATOM      9  C   UNL     1      35.039 -21.915 -19.075  0.00  0.00    +0.038 C 
ATOM     10  H   UNL     1      38.137 -19.597 -20.728  0.00  0.00    +0.152 HD
ENDROOT
BRANCH   8  11
ATOM     11  O   UNL     1      32.659 -22.033 -19.136  0.00  0.00    -0.506 OA
ATOM     12  H   UNL     1      31.846 -21.574 -19.205  0.00  0.00    +0.292 HD
ENDBRANCH   8  11
BRANCH   2  13
ATOM     13  C   UNL     1      34.309 -17.798 -22.420  0.00  0.00    +0.049 C 
BRANCH  13  14
ATOM     14  C   UNL     1      34.907 -16.491 -22.967  0.00  0.00    +0.094 C 
BRANCH  14  16
ATOM     15  O   UNL     1      34.836 -16.853 -25.846  0.00  0.00    -0.275 OA
ATOM     16  N   UNL     1      34.032 -15.843 -23.908  0.00  0.00    -0.304 N 
ATOM     17  C   UNL     1      34.071 -16.081 -25.275  0.00  0.00    +0.223 C 
ATOM     18  C   UNL     1      33.032 -15.292 -26.025  0.00  0.00    +0.095 C 
ATOM     19  H   UNL     1      33.372 -15.199 -23.565  0.00  0.00    +0.149 HD
ENDBRANCH  14  16
ENDBRANCH  13  14
ENDBRANCH   2  13
TORSDOF 4
ENDMDL
MODEL 2
REMARK VINA RESULT:      -8.2      1.955      2.340
REMARK  Name = 903
REMARK  4 active torsions:
REMARK  status: ('A' for Active; 'I' for Inactive)
REMARK    1  A    between atoms: C_2  and  C_13
REMARK    2  A    between atoms: C_8  and  O_11
REMARK    3  A    between atoms: C_13  and  C_14
REMARK    4  A    between atoms: C_14  and  N_16
REMARK                            x       y       z     vdW  Elec       q    Type
REMARK                         _______ _______ _______ _____ _____    ______ ____
ROOT
ATOM      1  N   UNL     1      37.116 -19.592 -20.619  0.00  0.00    -0.312 N 
ATOM      2  C   UNL     1      35.237 -18.905 -21.580  0.00  0.00    -0.005 C 
ATOM      3  C   UNL     1      34.917 -19.961 -20.682  0.00  0.00    +0.014 C 
ATOM      4  C   UNL     1      36.115 -20.374 -20.092  0.00  0.00    +0.048 C 
ATOM      5  C   UNL     1      36.597 -18.700 -21.519  0.00  0.00    +0.058 C 
ATOM      6  C   UNL     1      33.721 -20.608 -20.312  0.00  0.00    +0.038 C 
ATOM      7  C   UNL     1      36.174 -21.405 -19.148  0.00  0.00    +0.018 C 
ATOM      8  C   UNL     1      33.767 -21.641 -19.370  0.00  0.00    +0.134 C 
ATOM      9  C   UNL     1      34.975 -22.031 -18.798  0.00  0.00    +0.038 C 
ATOM     10  H   UNL     1      38.070 -19.662 -20.383  0.00  0.00    +0.152 HD
ENDROOT
BRANCH   8  11
ATOM     11  O   UNL     1      32.613 -22.271 -19.008  0.00  0.00    -0.506 OA
ATOM     12  H   UNL     1      32.507 -23.186 -19.176  0.00  0.00    +0.292 HD
ENDBRANCH   8  11
BRANCH   2  13
ATOM     13  C   UNL     1      34.289 -18.155 -22.428  0.00  0.00    +0.049 C 
BRANCH  13  14
ATOM     14  C   UNL     1      34.742 -16.724 -22.765  0.00  0.00    +0.094 C 
BRANCH  14  16
ATOM     15  O   UNL     1      34.797 -15.506 -20.131  0.00  0.00    -0.275 OA
ATOM     16  N   UNL     1      33.842 -15.731 -22.243  0.00  0.00    -0.304 N 
ATOM     17  C   UNL     1      33.947 -15.203 -20.963  0.00  0.00    +0.223 C 
ATOM     18  C   UNL     1      32.895 -14.164 -20.682  0.00  0.00    +0.095 C 
ATOM     19  H   UNL     1      33.116 -15.408 -22.823  0.00  0.00    +0.149 HD
ENDBRANCH  14  16
ENDBRANCH  13  14
ENDBRANCH   2  13
TORSDOF 4
ENDMDL
MODEL 3
REMARK VINA RESULT:      -8.0      3.278      4.793
REMARK  Name = 903
REMARK  4 active torsions:
REMARK  status: ('A' for Active; 'I' for Inactive)
REMARK    1  A    between atoms: C_2  and  C_13
REMARK    2  A    between atoms: C_8  and  O_11
REMARK    3  A    between atoms: C_13  and  C_14
REMARK    4  A    between atoms: C_14  and  N_16
REMARK                            x       y       z     vdW  Elec       q    Type
REMARK                         _______ _______ _______ _____ _____    ______ ____
ROOT
ATOM      1  N   UNL     1      34.017 -16.546 -25.256  0.00  0.00    -0.312 N 
ATOM      2  C   UNL     1      34.116 -15.090 -23.584  0.00  0.00    -0.005 C 
ATOM      3  C   UNL     1      34.587 -16.346 -23.109  0.00  0.00    +0.014 C 
ATOM      4  C   UNL     1      34.515 -17.242 -24.178  0.00  0.00    +0.048 C 
ATOM      5  C   UNL     1      33.773 -15.245 -24.908  0.00  0.00    +0.058 C 
ATOM      6  C   UNL     1      35.070 -16.807 -21.868  0.00  0.00    +0.038 C 
ATOM      7  C   UNL     1      34.903 -18.582 -24.066  0.00  0.00    +0.018 C 
ATOM      8  C   UNL     1      35.461 -18.145 -21.743  0.00  0.00    +0.134 C 
ATOM      9  C   UNL     1      35.379 -19.016 -22.827  0.00  0.00    +0.038 C 
ATOM     10  H   UNL     1      33.860 -16.929 -26.150  0.00  0.00    +0.152 HD
ENDROOT
BRANCH   8  11
ATOM     11  O   UNL     1      35.929 -18.598 -20.546  0.00  0.00    -0.506 OA
ATOM     12  H   UNL     1      35.909 -18.041 -19.793  0.00  0.00    +0.292 HD
ENDBRANCH   8  11
BRANCH   2  13
ATOM     13  C   UNL     1      34.009 -13.839 -22.807  0.00  0.00    +0.049 C 
BRANCH  13  14
ATOM     14  C   UNL     1      33.285 -12.700 -23.543  0.00  0.00    +0.094 C 
BRANCH  14  16
ATOM     15  O   UNL     1      33.753 -11.962 -26.311  0.00  0.00    -0.275 OA
ATOM     16  N   UNL     1      34.197 -11.705 -24.039  0.00  0.00    -0.304 N 
ATOM     17  C   UNL     1      34.354 -11.418 -25.389  0.00  0.00    +0.223 C 
ATOM     18  C   UNL     1      35.353 -10.318 -25.629  0.00  0.00    +0.095 C 
ATOM     19  H   UNL     1      34.736 -11.200 -23.389  0.00  0.00    +0.149 HD
ENDBRANCH  14  16
ENDBRANCH  13  14
ENDBRANCH   2  13
TORSDOF 4
ENDMDL
MODEL 4
REMARK VINA RESULT:      -8.0      1.822      6.689
REMARK  Name = 903
REMARK  4 active torsions:
REMARK  status: ('A' for Active; 'I' for Inactive)
REMARK    1  A    between atoms: C_2  and  C_13
REMARK    2  A    between atoms: C_8  and  O_11
REMARK    3  A    between atoms: C_13  and  C_14
REMARK    4  A    between atoms: C_14  and  N_16
REMARK                            x       y       z     vdW  Elec       q    Type
REMARK                         _______ _______ _______ _____ _____    ______ ____
ROOT
ATOM      1  N   UNL     1      34.028 -14.529 -21.001  0.00  0.00    -0.312 N 
ATOM      2  C   UNL     1      34.771 -16.568 -21.466  0.00  0.00    -0.005 C 
ATOM      3  C   UNL     1      34.335 -15.967 -22.679  0.00  0.00    +0.014 C 
ATOM      4  C   UNL     1      33.873 -14.688 -22.360  0.00  0.00    +0.048 C 
ATOM      5  C   UNL     1      34.570 -15.660 -20.452  0.00  0.00    +0.058 C 
ATOM      6  C   UNL     1      34.289 -16.388 -24.023  0.00  0.00    +0.038 C 
ATOM      7  C   UNL     1      33.365 -13.807 -23.321  0.00  0.00    +0.018 C 
ATOM      8  C   UNL     1      33.783 -15.518 -24.994  0.00  0.00    +0.134 C 
ATOM      9  C   UNL     1      33.329 -14.247 -24.647  0.00  0.00    +0.038 C 
ATOM     10  H   UNL     1      33.784 -13.719 -20.497  0.00  0.00    +0.152 HD
ENDROOT
BRANCH   8  11
ATOM     11  O   UNL     1      33.735 -15.919 -26.296  0.00  0.00    -0.506 OA
ATOM     12  H   UNL     1      34.483 -16.320 -26.691  0.00  0.00    +0.292 HD
ENDBRANCH   8  11
BRANCH   2  13
ATOM     13  C   UNL     1      35.340 -17.922 -21.311  0.00  0.00    +0.049 C 
BRANCH  13  14
ATOM     14  C   UNL     1      34.298 -19.052 -21.367  0.00  0.00    +0.094 C 
BRANCH  14  16
ATOM     15  O   UNL     1      32.605 -20.750 -19.733  0.00  0.00    -0.275 OA
ATOM     16  N   UNL     1      34.696 -20.199 -20.596  0.00  0.00    -0.304 N 
ATOM     17  C   UNL     1      33.811 -20.956 -19.840  0.00  0.00    +0.223 C 
ATOM     18  C   UNL     1      34.484 -22.113 -19.153  0.00  0.00    +0.095 C 
ATOM     19  H   UNL     1      35.645 -20.462 -20.605  0.00  0.00    +0.149 HD
ENDBRANCH  14  16
ENDBRANCH  13  14
ENDBRANCH   2  13
TORSDOF 4
ENDMDL
MODEL 5
REMARK VINA RESULT:      -7.9      1.887      6.793
REMARK  Name = 903
REMARK  4 active torsions:
REMARK  status: ('A' for Active; 'I' for Inactive)
REMARK    1  A    between atoms: C_2  and  C_13
REMARK    2  A    between atoms: C_8  and  O_11
REMARK    3  A    between atoms: C_13  and  C_14
REMARK    4  A    between atoms: C_14  and  N_16
REMARK                            x       y       z     vdW  Elec       q    Type
REMARK                         _______ _______ _______ _____ _____    ______ ____
ROOT
ATOM      1  N   UNL     1      34.493 -18.491 -24.929  0.00  0.00    -0.312 N 
ATOM      2  C   UNL     1      35.174 -18.273 -22.829  0.00  0.00    -0.005 C 
ATOM      3  C   UNL     1      34.775 -16.992 -23.302  0.00  0.00    +0.014 C 
ATOM      4  C   UNL     1      34.352 -17.157 -24.623  0.00  0.00    +0.048 C 
ATOM      5  C   UNL     1      34.989 -19.174 -23.852  0.00  0.00    +0.058 C 
ATOM      6  C   UNL     1      34.732 -15.705 -22.732  0.00  0.00    +0.038 C 
ATOM      7  C   UNL     1      33.886 -16.094 -25.404  0.00  0.00    +0.018 C 
ATOM      8  C   UNL     1      34.270 -14.632 -23.502  0.00  0.00    +0.134 C 
ATOM      9  C   UNL     1      33.853 -14.826 -24.817  0.00  0.00    +0.038 C 
ATOM     10  H   UNL     1      34.269 -18.897 -25.799  0.00  0.00    +0.152 HD
ENDROOT
BRANCH   8  11
ATOM     11  O   UNL     1      34.226 -13.383 -22.957  0.00  0.00    -0.506 OA
ATOM     12  H   UNL     1      33.878 -13.260 -22.097  0.00  0.00    +0.292 HD
ENDBRANCH   8  11
BRANCH   2  13
ATOM     13  C   UNL     1      35.694 -18.591 -21.484  0.00  0.00    +0.049 C 
BRANCH  13  14
ATOM     14  C   UNL     1      35.368 -20.015 -21.003  0.00  0.00    +0.094 C 
BRANCH  14  16
ATOM     15  O   UNL     1      35.173 -22.485 -19.492  0.00  0.00    -0.275 OA
ATOM     16  N   UNL     1      36.046 -20.346 -19.778  0.00  0.00    -0.304 N 
ATOM     17  C   UNL     1      35.891 -21.560 -19.123  0.00  0.00    +0.223 C 
ATOM     18  C   UNL     1      36.734 -21.654 -17.880  0.00  0.00    +0.095 C 
ATOM     19  H   UNL     1      36.653 -19.677 -19.385  0.00  0.00    +0.149 HD
ENDBRANCH  14  16
ENDBRANCH  13  14
ENDBRANCH   2  13
TORSDOF 4
ENDMDL
MODEL 6
REMARK VINA RESULT:      -7.8      3.583      7.733
REMARK  Name = 903
REMARK  4 active torsions:
REMARK  status: ('A' for Active; 'I' for Inactive)
REMARK    1  A    between atoms: C_2  and  C_13
REMARK    2  A    between atoms: C_8  and  O_11
REMARK    3  A    between atoms: C_13  and  C_14
REMARK    4  A    between atoms: C_14  and  N_16
REMARK                            x       y       z     vdW  Elec       q    Type
REMARK                         _______ _______ _______ _____ _____    ______ ____
ROOT
ATOM      1  N   UNL     1      33.202 -21.908 -19.132  0.00  0.00    -0.312 N 
ATOM      2  C   UNL     1      35.386 -21.774 -18.764  0.00  0.00    -0.005 C 
ATOM      3  C   UNL     1      35.048 -20.836 -19.779  0.00  0.00    +0.014 C 
ATOM      4  C   UNL     1      33.671 -20.941 -19.991  0.00  0.00    +0.048 C 
ATOM      5  C   UNL     1      34.230 -22.418 -18.386  0.00  0.00    +0.058 C 
ATOM      6  C   UNL     1      35.782 -19.905 -20.540  0.00  0.00    +0.038 C 
ATOM      7  C   UNL     1      32.991 -20.157 -20.930  0.00  0.00    +0.018 C 
ATOM      8  C   UNL     1      35.115 -19.116 -21.483  0.00  0.00    +0.134 C 
ATOM      9  C   UNL     1      33.740 -19.241 -21.672  0.00  0.00    +0.038 C 
ATOM     10  H   UNL     1      32.261 -22.192 -19.063  0.00  0.00    +0.152 HD
ENDROOT
BRANCH   8  11
ATOM     11  O   UNL     1      35.819 -18.214 -22.223  0.00  0.00    -0.506 OA
ATOM     12  H   UNL     1      36.738 -18.334 -22.358  0.00  0.00    +0.292 HD
ENDBRANCH   8  11
BRANCH   2  13
ATOM     13  C   UNL     1      36.732 -22.021 -18.208  0.00  0.00    +0.049 C 
BRANCH  13  14
ATOM     14  C   UNL     1      36.888 -21.612 -16.734  0.00  0.00    +0.094 C 
BRANCH  14  16
ATOM     15  O   UNL     1      35.920 -24.113 -15.624  0.00  0.00    -0.275 OA
ATOM     16  N   UNL     1      37.636 -22.579 -15.976  0.00  0.00    -0.304 N 
ATOM     17  C   UNL     1      37.086 -23.755 -15.483  0.00  0.00    +0.223 C 
ATOM     18  C   UNL     1      38.094 -24.597 -14.749  0.00  0.00    +0.095 C 
ATOM     19  H   UNL     1      38.588 -22.399 -15.799  0.00  0.00    +0.149 HD
ENDBRANCH  14  16
ENDBRANCH  13  14
ENDBRANCH   2  13
TORSDOF 4
ENDMDL
MODEL 7
REMARK VINA RESULT:      -7.8      3.886      5.501
REMARK  Name = 903
REMARK  4 active torsions:
REMARK  status: ('A' for Active; 'I' for Inactive)
REMARK    1  A    between atoms: C_2  and  C_13
REMARK    2  A    between atoms: C_8  and  O_11
REMARK    3  A    between atoms: C_13  and  C_14
REMARK    4  A    between atoms: C_14  and  N_16
REMARK                            x       y       z     vdW  Elec       q    Type
REMARK                         _______ _______ _______ _____ _____    ______ ____
ROOT
ATOM      1  N   UNL     1      34.007 -16.441 -25.435  0.00  0.00    -0.312 N 
ATOM      2  C   UNL     1      33.939 -14.927 -23.815  0.00  0.00    -0.005 C 
ATOM      3  C   UNL     1      34.463 -16.133 -23.273  0.00  0.00    +0.014 C 
ATOM      4  C   UNL     1      34.495 -17.068 -24.311  0.00  0.00    +0.048 C 
ATOM      5  C   UNL     1      33.669 -15.146 -25.146  0.00  0.00    +0.058 C 
ATOM      6  C   UNL     1      34.914 -16.523 -21.997  0.00  0.00    +0.038 C 
ATOM      7  C   UNL     1      34.958 -18.376 -24.135  0.00  0.00    +0.018 C 
ATOM      8  C   UNL     1      35.379 -17.828 -21.806  0.00  0.00    +0.134 C 
ATOM      9  C   UNL     1      35.401 -18.739 -22.860  0.00  0.00    +0.038 C 
ATOM     10  H   UNL     1      33.916 -16.862 -26.321  0.00  0.00    +0.152 HD
ENDROOT
BRANCH   8  11
ATOM     11  O   UNL     1      35.817 -18.212 -20.573  0.00  0.00    -0.506 OA
ATOM     12  H   UNL     1      35.641 -17.676 -19.826  0.00  0.00    +0.292 HD
ENDBRANCH   8  11
BRANCH   2  13
ATOM     13  C   UNL     1      33.721 -13.659 -23.088  0.00  0.00    +0.049 C 
BRANCH  13  14
ATOM     14  C   UNL     1      32.260 -13.417 -22.671  0.00  0.00    +0.094 C 
BRANCH  14  16
ATOM     15  O   UNL     1      30.760 -11.044 -21.935  0.00  0.00    -0.275 OA
ATOM     16  N   UNL     1      32.158 -12.817 -21.367  0.00  0.00    -0.304 N 
ATOM     17  C   UNL     1      31.412 -11.676 -21.109  0.00  0.00    +0.223 C 
ATOM     18  C   UNL     1      31.456 -11.277 -19.658  0.00  0.00    +0.095 C 
ATOM     19  H   UNL     1      32.641 -13.239 -20.620  0.00  0.00    +0.149 HD
ENDBRANCH  14  16
ENDBRANCH  13  14
ENDBRANCH   2  13
TORSDOF 4
ENDMDL
MODEL 8
REMARK VINA RESULT:      -7.7      3.121      4.534
REMARK  Name = 903
REMARK  4 active torsions:
REMARK  status: ('A' for Active; 'I' for Inactive)
REMARK    1  A    between atoms: C_2  and  C_13
REMARK    2  A    between atoms: C_8  and  O_11
REMARK    3  A    between atoms: C_13  and  C_14
REMARK    4  A    between atoms: C_14  and  N_16
REMARK                            x       y       z     vdW  Elec       q    Type
REMARK                         _______ _______ _______ _____ _____    ______ ____
ROOT
ATOM      1  N   UNL     1      34.751 -15.673 -20.705  0.00  0.00    -0.312 N 
ATOM      2  C   UNL     1      34.244 -15.043 -22.771  0.00  0.00    -0.005 C 
ATOM      3  C   UNL     1      34.555 -16.431 -22.793  0.00  0.00    +0.014 C 
ATOM      4  C   UNL     1      34.869 -16.801 -21.483  0.00  0.00    +0.048 C 
ATOM      5  C   UNL     1      34.374 -14.605 -21.474  0.00  0.00    +0.058 C 
ATOM      6  C   UNL     1      34.598 -17.413 -23.803  0.00  0.00    +0.038 C 
ATOM      7  C   UNL     1      35.227 -18.108 -21.133  0.00  0.00    +0.018 C 
ATOM      8  C   UNL     1      34.954 -18.723 -23.467  0.00  0.00    +0.134 C 
ATOM      9  C   UNL     1      35.263 -19.063 -22.152  0.00  0.00    +0.038 C 
ATOM     10  H   UNL     1      34.914 -15.638 -19.733  0.00  0.00    +0.152 HD
ENDROOT
BRANCH   8  11
ATOM     11  O   UNL     1      34.999 -19.677 -24.440  0.00  0.00    -0.506 OA
ATOM     12  H   UNL     1      35.814 -19.891 -24.850  0.00  0.00    +0.292 HD
ENDBRANCH   8  11
BRANCH   2  13
ATOM     13  C   UNL     1      33.852 -14.212 -23.927  0.00  0.00    +0.049 C 
BRANCH  13  14
ATOM     14  C   UNL     1      33.391 -12.793 -23.554  0.00  0.00    +0.094 C 
BRANCH  14  16
ATOM     15  O   UNL     1      33.675 -11.848 -26.284  0.00  0.00    -0.275 OA
ATOM     16  N   UNL     1      34.292 -11.782 -24.040  0.00  0.00    -0.304 N 
ATOM     17  C   UNL     1      34.357 -11.393 -25.371  0.00  0.00    +0.223 C 
ATOM     18  C   UNL     1      35.366 -10.300 -25.601  0.00  0.00    +0.095 C 
ATOM     19  H   UNL     1      34.892 -11.343 -23.395  0.00  0.00    +0.149 HD
ENDBRANCH  14  16
ENDBRANCH  13  14
ENDBRANCH   2  13
TORSDOF 4
ENDMDL
MODEL 9
REMARK VINA RESULT:      -7.7      8.063     10.175
REMARK  Name = 903
REMARK  4 active torsions:
REMARK  status: ('A' for Active; 'I' for Inactive)
REMARK    1  A    between atoms: C_2  and  C_13
REMARK    2  A    between atoms: C_8  and  O_11
REMARK    3  A    between atoms: C_13  and  C_14
REMARK    4  A    between atoms: C_14  and  N_16
REMARK                            x       y       z     vdW  Elec       q    Type
REMARK                         _______ _______ _______ _____ _____    ______ ____
ROOT
ATOM      1  N   UNL     1      32.835 -23.022 -17.234  0.00  0.00    -0.312 N 
ATOM      2  C   UNL     1      34.232 -23.509 -15.581  0.00  0.00    -0.005 C 
ATOM      3  C   UNL     1      32.904 -23.713 -15.115  0.00  0.00    +0.014 C 
ATOM      4  C   UNL     1      32.046 -23.400 -16.172  0.00  0.00    +0.048 C 
ATOM      5  C   UNL     1      34.157 -23.084 -16.887  0.00  0.00    +0.058 C 
ATOM      6  C   UNL     1      32.346 -24.136 -13.892  0.00  0.00    +0.038 C 
ATOM      7  C   UNL     1      30.654 -23.489 -16.066  0.00  0.00    +0.018 C 
ATOM      8  C   UNL     1      30.955 -24.229 -13.772  0.00  0.00    +0.134 C 
ATOM      9  C   UNL     1      30.124 -23.911 -14.844  0.00  0.00    +0.038 C 
ATOM     10  H   UNL     1      32.497 -22.746 -18.118  0.00  0.00    +0.152 HD
ENDROOT
BRANCH   8  11
ATOM     11  O   UNL     1      30.409 -24.637 -12.592  0.00  0.00    -0.506 OA
ATOM     12  H   UNL     1      30.331 -24.035 -11.878  0.00  0.00    +0.292 HD
ENDBRANCH   8  11
BRANCH   2  13
ATOM     13  C   UNL     1      35.475 -23.713 -14.810  0.00  0.00    +0.049 C 
BRANCH  13  14
ATOM     14  C   UNL     1      36.243 -24.993 -15.183  0.00  0.00    +0.094 C 
BRANCH  14  16
ATOM     15  O   UNL     1      38.223 -27.029 -14.586  0.00  0.00    -0.275 OA
ATOM     16  N   UNL     1      37.668 -24.823 -15.080  0.00  0.00    -0.304 N 
ATOM     17  C   UNL     1      38.542 -25.861 -14.789  0.00  0.00    +0.223 C 
ATOM     18  C   UNL     1      39.979 -25.414 -14.767  0.00  0.00    +0.095 C 
ATOM     19  H   UNL     1      38.043 -23.924 -15.224  0.00  0.00    +0.149 HD
ENDBRANCH  14  16
ENDBRANCH  13  14
ENDBRANCH   2  13
TORSDOF 4
ENDMDL
