MODEL 1
REMARK VINA RESULT:      -3.6      0.000      0.000
REMARK  Name = 71731823
REMARK  1 active torsions:
REMARK  status: ('A' for Active; 'I' for Inactive)
REMARK    1  A    between atoms: C_16  and  C_32
REMARK                            x       y       z     vdW  Elec       q    Type
REMARK                         _______ _______ _______ _____ _____    ______ ____
ROOT
ATOM      1  F   UNL     1      29.353  -5.570 -22.645  0.00  0.00    -0.204 F 
ATOM      2  O   UNL     1      32.427  -8.612 -19.805  0.00  0.00    -0.472 OA
ATOM      3  O   UNL     1      35.239  -7.569 -23.124  0.00  0.00    -0.270 OA
ATOM      4  N   UNL     1      34.259  -9.388 -24.231  0.00  0.00    -0.269 N 
ATOM      5  N   UNL     1      33.436 -13.674 -24.523  0.00  0.00    -0.239 N 
ATOM      6  N   UNL     1      33.576 -12.500 -25.158  0.00  0.00    -0.171 NA
ATOM      7  N   UNL     1      30.369 -11.571 -20.197  0.00  0.00    -0.226 NA
ATOM      8  C   UNL     1      33.062 -10.151 -24.651  0.00  0.00    +0.141 C 
ATOM      9  C   UNL     1      33.127 -11.600 -24.270  0.00  0.00    +0.101 A 
ATOM     10  C   UNL     1      32.684 -12.231 -23.065  0.00  0.00    +0.046 A 
ATOM     11  C   UNL     1      33.243  -7.786 -20.667  0.00  0.00    +0.189 C 
ATOM     12  C   UNL     1      32.486  -7.317 -21.907  0.00  0.00    +0.024 C 
ATOM     13  C   UNL     1      32.944  -7.524 -23.226  0.00  0.00    +0.053 C 
ATOM     14  C   UNL     1      32.115 -11.662 -21.865  0.00  0.00    +0.026 C 
ATOM     15  C   UNL     1      34.241  -8.171 -23.517  0.00  0.00    +0.249 C 
ATOM     16  C   UNL     1      32.896 -13.573 -23.276  0.00  0.00    +0.147 A 
ATOM     17  C   UNL     1      32.043  -9.827 -20.295  0.00  0.00    +0.170 C 
ATOM     18  C   UNL     1      32.681 -10.512 -21.320  0.00  0.00    +0.041 C 
ATOM     19  C   UNL     1      33.700  -6.588 -19.828  0.00  0.00    +0.052 C 
ATOM     20  C   UNL     1      31.254  -6.657 -21.740  0.00  0.00    +0.029 C 
ATOM     21  C   UNL     1      32.221  -7.035 -24.324  0.00  0.00    +0.007 C 
ATOM     22  C   UNL     1      35.559  -9.907 -24.655  0.00  0.00    +0.116 C 
ATOM     23  C   UNL     1      30.972 -12.159 -21.257  0.00  0.00    +0.101 C 
ATOM     24  C   UNL     1      30.910 -10.412 -19.753  0.00  0.00    +0.160 C 
ATOM     25  C   UNL     1      30.521  -6.197 -22.837  0.00  0.00    +0.140 C 
ATOM     26  C   UNL     1      31.008  -6.380 -24.127  0.00  0.00    +0.030 C 
ATOM     27  C   UNL     1      33.846 -14.884 -25.199  0.00  0.00    +0.155 C 
ATOM     28  N   UNL     1      30.259  -9.752 -18.681  0.00  0.00    -0.340 N 
ATOM     29  H   UNL     1      29.453 -10.146 -18.277  0.00  0.00    +0.144 HD
ATOM     30  H   UNL     1      30.614  -8.900 -18.339  0.00  0.00    +0.144 HD
ENDROOT
BRANCH  16  32
ATOM     31  N   UNL     1      32.488 -15.587 -21.709  0.00  0.00    -0.189 NA
ATOM     32  C   UNL     1      32.671 -14.683 -22.413  0.00  0.00    +0.119 C 
ENDBRANCH  16  32
TORSDOF 1
ENDMDL
MODEL 2
REMARK VINA RESULT:      -2.3     12.854     16.448
REMARK  Name = 71731823
REMARK  1 active torsions:
REMARK  status: ('A' for Active; 'I' for Inactive)
REMARK    1  A    between atoms: C_16  and  C_32
REMARK                            x       y       z     vdW  Elec       q    Type
REMARK                         _______ _______ _______ _____ _____    ______ ____
ROOT
ATOM      1  F   UNL     1      35.909 -23.350  -9.942  0.00  0.00    -0.204 F 
ATOM      2  O   UNL     1      34.816 -26.058 -14.213  0.00  0.00    -0.472 OA
ATOM      3  O   UNL     1      39.139 -25.175 -14.953  0.00  0.00    -0.270 OA
ATOM      4  N   UNL     1      38.347 -23.171 -15.874  0.00  0.00    -0.269 N 
ATOM      5  N   UNL     1      36.045 -21.024 -18.911  0.00  0.00    -0.239 N 
ATOM      6  N   UNL     1      37.053 -21.002 -18.026  0.00  0.00    -0.171 NA
ATOM      7  N   UNL     1      32.369 -23.687 -15.455  0.00  0.00    -0.226 NA
ATOM      8  C   UNL     1      37.474 -21.977 -15.810  0.00  0.00    +0.141 C 
ATOM      9  C   UNL     1      36.629 -21.802 -17.036  0.00  0.00    +0.101 A 
ATOM     10  C   UNL     1      35.323 -22.319 -17.306  0.00  0.00    +0.046 A 
ATOM     11  C   UNL     1      36.246 -26.066 -14.000  0.00  0.00    +0.189 C 
ATOM     12  C   UNL     1      36.717 -24.871 -13.174  0.00  0.00    +0.024 C 
ATOM     13  C   UNL     1      37.722 -23.976 -13.599  0.00  0.00    +0.053 C 
ATOM     14  C   UNL     1      34.481 -23.192 -16.521  0.00  0.00    +0.026 C 
ATOM     15  C   UNL     1      38.453 -24.158 -14.871  0.00  0.00    +0.249 C 
ATOM     16  C   UNL     1      34.981 -21.784 -18.526  0.00  0.00    +0.147 A 
ATOM     17  C   UNL     1      34.313 -25.050 -14.985  0.00  0.00    +0.170 C 
ATOM     18  C   UNL     1      35.041 -24.309 -15.907  0.00  0.00    +0.041 C 
ATOM     19  C   UNL     1      36.579 -27.379 -13.285  0.00  0.00    +0.052 C 
ATOM     20  C   UNL     1      36.109 -24.626 -11.928  0.00  0.00    +0.029 C 
ATOM     21  C   UNL     1      38.138 -22.917 -12.777  0.00  0.00    +0.007 C 
ATOM     22  C   UNL     1      39.218 -23.293 -17.042  0.00  0.00    +0.116 C 
ATOM     23  C   UNL     1      33.140 -22.936 -16.276  0.00  0.00    +0.101 C 
ATOM     24  C   UNL     1      32.978 -24.715 -14.819  0.00  0.00    +0.160 C 
ATOM     25  C   UNL     1      36.504 -23.554 -11.124  0.00  0.00    +0.140 C 
ATOM     26  C   UNL     1      37.523 -22.705 -11.546  0.00  0.00    +0.030 C 
ATOM     27  C   UNL     1      36.175 -20.264 -20.133  0.00  0.00    +0.155 C 
ATOM     28  N   UNL     1      32.202 -25.479 -13.911  0.00  0.00    -0.340 N 
ATOM     29  H   UNL     1      31.251 -25.263 -13.774  0.00  0.00    +0.144 HD
ATOM     30  H   UNL     1      32.613 -26.225 -13.418  0.00  0.00    +0.144 HD
ENDROOT
BRANCH  16  32
ATOM     31  N   UNL     1      32.852 -22.119 -19.951  0.00  0.00    -0.189 NA
ATOM     32  C   UNL     1      33.808 -21.969 -19.311  0.00  0.00    +0.119 C 
ENDBRANCH  16  32
TORSDOF 1
ENDMDL
MODEL 3
REMARK VINA RESULT:      -1.6      4.864      8.988
REMARK  Name = 71731823
REMARK  1 active torsions:
REMARK  status: ('A' for Active; 'I' for Inactive)
REMARK    1  A    between atoms: C_16  and  C_32
REMARK                            x       y       z     vdW  Elec       q    Type
REMARK                         _______ _______ _______ _____ _____    ______ ____
ROOT
ATOM      1  F   UNL     1      31.902 -20.854 -21.393  0.00  0.00    -0.204 F 
ATOM      2  O   UNL     1      35.829 -18.223 -23.495  0.00  0.00    -0.472 OA
ATOM      3  O   UNL     1      35.495 -16.094 -19.574  0.00  0.00    -0.270 OA
ATOM      4  N   UNL     1      33.879 -14.794 -20.667  0.00  0.00    -0.269 N 
ATOM      5  N   UNL     1      32.761 -11.945 -23.792  0.00  0.00    -0.239 N 
ATOM      6  N   UNL     1      32.498 -12.464 -22.583  0.00  0.00    -0.171 NA
ATOM      7  N   UNL     1      33.885 -16.954 -26.280  0.00  0.00    -0.226 NA
ATOM      8  C   UNL     1      32.687 -14.679 -21.537  0.00  0.00    +0.141 C 
ATOM      9  C   UNL     1      32.890 -13.742 -22.690  0.00  0.00    +0.101 A 
ATOM     10  C   UNL     1      33.394 -14.026 -23.998  0.00  0.00    +0.046 A 
ATOM     11  C   UNL     1      35.846 -18.033 -22.062  0.00  0.00    +0.189 C 
ATOM     12  C   UNL     1      34.470 -18.244 -21.433  0.00  0.00    +0.024 C 
ATOM     13  C   UNL     1      33.830 -17.286 -20.618  0.00  0.00    +0.053 C 
ATOM     14  C   UNL     1      33.900 -15.257 -24.559  0.00  0.00    +0.026 C 
ATOM     15  C   UNL     1      34.473 -16.006 -20.253  0.00  0.00    +0.249 C 
ATOM     16  C   UNL     1      33.285 -12.836 -24.679  0.00  0.00    +0.147 A 
ATOM     17  C   UNL     1      35.116 -17.319 -24.229  0.00  0.00    +0.170 C 
ATOM     18  C   UNL     1      34.773 -16.041 -23.809  0.00  0.00    +0.041 C 
ATOM     19  C   UNL     1      36.856 -19.036 -21.495  0.00  0.00    +0.052 C 
ATOM     20  C   UNL     1      33.784 -19.446 -21.688  0.00  0.00    +0.029 C 
ATOM     21  C   UNL     1      32.581 -17.554 -20.037  0.00  0.00    +0.007 C 
ATOM     22  C   UNL     1      34.438 -13.549 -20.142  0.00  0.00    +0.116 C 
ATOM     23  C   UNL     1      33.501 -15.750 -25.793  0.00  0.00    +0.101 C 
ATOM     24  C   UNL     1      34.670 -17.714 -25.481  0.00  0.00    +0.160 C 
ATOM     25  C   UNL     1      32.528 -19.699 -21.133  0.00  0.00    +0.140 C 
ATOM     26  C   UNL     1      31.930 -18.756 -20.303  0.00  0.00    +0.030 C 
ATOM     27  C   UNL     1      32.468 -10.549 -24.029  0.00  0.00    +0.155 C 
ATOM     28  N   UNL     1      35.036 -19.000 -25.950  0.00  0.00    -0.340 N 
ATOM     29  H   UNL     1      34.732 -19.305 -26.835  0.00  0.00    +0.144 HD
ATOM     30  H   UNL     1      35.593 -19.588 -25.391  0.00  0.00    +0.144 HD
ENDROOT
BRANCH  16  32
ATOM     31  N   UNL     1      33.962 -12.240 -27.101  0.00  0.00    -0.189 NA
ATOM     32  C   UNL     1      33.658 -12.507 -26.013  0.00  0.00    +0.119 C 
ENDBRANCH  16  32
TORSDOF 1
ENDMDL
MODEL 4
REMARK VINA RESULT:      -1.0     14.161     16.779
REMARK  Name = 71731823
REMARK  1 active torsions:
REMARK  status: ('A' for Active; 'I' for Inactive)
REMARK    1  A    between atoms: C_16  and  C_32
REMARK                            x       y       z     vdW  Elec       q    Type
REMARK                         _______ _______ _______ _____ _____    ______ ____
ROOT
ATOM      1  F   UNL     1      39.570 -26.060 -16.382  0.00  0.00    -0.204 F 
ATOM      2  O   UNL     1      36.744 -21.726 -16.417  0.00  0.00    -0.472 OA
ATOM      3  O   UNL     1      36.550 -22.730 -12.062  0.00  0.00    -0.270 OA
ATOM      4  N   UNL     1      34.727 -24.069 -12.676  0.00  0.00    -0.269 N 
ATOM      5  N   UNL     1      30.681 -24.487 -14.287  0.00  0.00    -0.239 N 
ATOM      6  N   UNL     1      31.649 -24.990 -13.505  0.00  0.00    -0.171 NA
ATOM      7  N   UNL     1      34.161 -23.068 -18.579  0.00  0.00    -0.226 NA
ATOM      8  C   UNL     1      34.103 -25.071 -13.570  0.00  0.00    +0.141 C 
ATOM      9  C   UNL     1      32.783 -24.624 -14.122  0.00  0.00    +0.101 A 
ATOM     10  C   UNL     1      32.513 -23.892 -15.319  0.00  0.00    +0.046 A 
ATOM     11  C   UNL     1      37.213 -21.976 -15.072  0.00  0.00    +0.189 C 
ATOM     12  C   UNL     1      37.523 -23.451 -14.830  0.00  0.00    +0.024 C 
ATOM     13  C   UNL     1      36.959 -24.204 -13.777  0.00  0.00    +0.053 C 
ATOM     14  C   UNL     1      33.417 -23.326 -16.295  0.00  0.00    +0.026 C 
ATOM     15  C   UNL     1      36.055 -23.603 -12.774  0.00  0.00    +0.249 C 
ATOM     16  C   UNL     1      31.141 -23.833 -15.391  0.00  0.00    +0.147 A 
ATOM     17  C   UNL     1      35.535 -22.260 -16.759  0.00  0.00    +0.170 C 
ATOM     18  C   UNL     1      34.545 -22.636 -15.860  0.00  0.00    +0.041 C 
ATOM     19  C   UNL     1      38.470 -21.122 -14.876  0.00  0.00    +0.052 C 
ATOM     20  C   UNL     1      38.401 -24.114 -15.708  0.00  0.00    +0.029 C 
ATOM     21  C   UNL     1      37.313 -25.548 -13.584  0.00  0.00    +0.007 C 
ATOM     22  C   UNL     1      33.916 -23.581 -11.561  0.00  0.00    +0.116 C 
ATOM     23  C   UNL     1      33.264 -23.500 -17.663  0.00  0.00    +0.101 C 
ATOM     24  C   UNL     1      35.281 -22.473 -18.104  0.00  0.00    +0.160 C 
ATOM     25  C   UNL     1      38.729 -25.460 -15.531  0.00  0.00    +0.140 C 
ATOM     26  C   UNL     1      38.190 -26.174 -14.465  0.00  0.00    +0.030 C 
ATOM     27  C   UNL     1      29.302 -24.686 -13.904  0.00  0.00    +0.155 C 
ATOM     28  N   UNL     1      36.258 -22.065 -19.046  0.00  0.00    -0.340 N 
ATOM     29  H   UNL     1      36.103 -22.204 -20.008  0.00  0.00    +0.144 HD
ATOM     30  H   UNL     1      37.092 -21.642 -18.738  0.00  0.00    +0.144 HD
ENDROOT
BRANCH  16  32
ATOM     31  N   UNL     1      29.615 -22.691 -17.136  0.00  0.00    -0.189 NA
ATOM     32  C   UNL     1      30.300 -23.203 -16.352  0.00  0.00    +0.119 C 
ENDBRANCH  16  32
TORSDOF 1
ENDMDL
