MODEL 1
REMARK VINA RESULT:     -10.1      0.000      0.000
REMARK  Name = 5289459
REMARK  10 active torsions:
REMARK  status: ('A' for Active; 'I' for Inactive)
REMARK    1  A    between atoms: N_2  and  C_23
REMARK    2  A    between atoms: C_4  and  C_8
REMARK    3  A    between atoms: C_6  and  N_17
REMARK    4  A    between atoms: C_13  and  N_14
REMARK    5  A    between atoms: N_17  and  S_19
REMARK    6  A    between atoms: C_23  and  C_26
REMARK    7  A    between atoms: N_25  and  C_28
REMARK    8  A    between atoms: C_28  and  C_29
REMARK    9  A    between atoms: C_28  and  C_33
REMARK   10  A    between atoms: C_33  and  C_37
REMARK                            x       y       z     vdW  Elec       q    Type
REMARK                         _______ _______ _______ _____ _____    ______ ____
ROOT
ATOM      1  O   UNL     1      34.464 -24.822 -14.860  0.00  0.00    -0.268 OA
ATOM      2  N   UNL     1      34.810 -23.383 -16.683  0.00  0.00    -0.230 N 
ATOM      3  N   UNL     1      36.965 -22.379 -16.980  0.00  0.00    -0.227 NA
ATOM      4  C   UNL     1      35.725 -22.538 -17.340  0.00  0.00    +0.138 C 
ATOM      5  C   UNL     1      35.187 -24.092 -15.532  0.00  0.00    +0.270 C 
ATOM      6  C   UNL     1      36.599 -23.884 -15.163  0.00  0.00    +0.137 C 
ATOM      7  C   UNL     1      37.381 -23.078 -15.879  0.00  0.00    +0.121 C 
ENDROOT
BRANCH   4   8
ATOM      8  C   UNL     1      35.260 -21.776 -18.515  0.00  0.00    +0.032 C 
ATOM      9  C   UNL     1      33.900 -21.732 -18.823  0.00  0.00    +0.004 C 
ATOM     10  C   UNL     1      36.180 -21.099 -19.314  0.00  0.00    +0.004 C 
ATOM     11  C   UNL     1      33.461 -21.012 -19.933  0.00  0.00    +0.014 C 
ATOM     12  C   UNL     1      35.740 -20.378 -20.425  0.00  0.00    +0.014 C 
ATOM     13  C   UNL     1      34.381 -20.334 -20.734  0.00  0.00    +0.042 C 
BRANCH  13  14
ATOM     14  N   UNL     1      33.937 -19.604 -21.857  0.00  0.00    -0.357 N 
ATOM     15  H   UNL     1      34.578 -19.335 -22.553  0.00  0.00    +0.142 HD
ATOM     16  H   UNL     1      32.986 -19.366 -21.944  0.00  0.00    +0.142 HD
ENDBRANCH  13  14
ENDBRANCH   4   8
BRANCH   6  17
ATOM     17  N   UNL     1      37.156 -24.536 -14.050  0.00  0.00    -0.213 N 
ATOM     18  H   UNL     1      37.223 -24.104 -13.168  0.00  0.00    +0.174 HD
BRANCH  17  19
ATOM     19  S   UNL     1      37.706 -26.126 -14.331  0.00  0.00    +0.056 S 
ATOM     20  O   UNL     1      37.458 -26.943 -13.159  0.00  0.00    -0.154 OA
ATOM     21  O   UNL     1      37.279 -26.554 -15.649  0.00  0.00    -0.154 OA
ATOM     22  C   UNL     1      39.455 -25.827 -14.405  0.00  0.00    +0.200 C 
ENDBRANCH  17  19
ENDBRANCH   6  17
BRANCH   2  23
ATOM     23  C   UNL     1      33.441 -23.566 -17.168  0.00  0.00    +0.185 C 
BRANCH  23  26
ATOM     24  O   UNL     1      32.800 -22.313 -15.205  0.00  0.00    -0.273 OA
ATOM     25  N   UNL     1      31.175 -23.498 -16.369  0.00  0.00    -0.298 N 
ATOM     26  C   UNL     1      32.464 -23.032 -16.141  0.00  0.00    +0.243 C 
ATOM     27  H   UNL     1      31.017 -24.071 -17.154  0.00  0.00    +0.150 HD
BRANCH  25  28
ATOM     28  C   UNL     1      30.056 -23.186 -15.517  0.00  0.00    +0.138 C 
BRANCH  28  29
ATOM     29  C   UNL     1      28.776 -22.820 -16.291  0.00  0.00    +0.025 C 
ATOM     30  C   UNL     1      27.698 -22.284 -15.344  0.00  0.00    +0.002 C 
ATOM     31  C   UNL     1      28.209 -23.980 -17.116  0.00  0.00    +0.002 C 
ENDBRANCH  28  29
BRANCH  28  33
ATOM     32  O   UNL     1      29.077 -25.294 -14.843  0.00  0.00    -0.286 OA
ATOM     33  C   UNL     1      29.848 -24.371 -14.580  0.00  0.00    +0.262 C 
BRANCH  33  37
ATOM     34  F   UNL     1      31.160 -23.162 -13.014  0.00  0.00    -0.163 F 
ATOM     35  F   UNL     1      31.729 -25.226 -13.417  0.00  0.00    -0.163 F 
ATOM     36  F   UNL     1      29.938 -24.794 -12.247  0.00  0.00    -0.163 F 
ATOM     37  C   UNL     1      30.665 -24.388 -13.319  0.00  0.00    +0.453 C 
ENDBRANCH  33  37
ENDBRANCH  28  33
ENDBRANCH  25  28
ENDBRANCH  23  26
ENDBRANCH   2  23
TORSDOF 10
ENDMDL
MODEL 2
REMARK VINA RESULT:      -9.8      4.230      7.824
REMARK  Name = 5289459
REMARK  10 active torsions:
REMARK  status: ('A' for Active; 'I' for Inactive)
REMARK    1  A    between atoms: N_2  and  C_23
REMARK    2  A    between atoms: C_4  and  C_8
REMARK    3  A    between atoms: C_6  and  N_17
REMARK    4  A    between atoms: C_13  and  N_14
REMARK    5  A    between atoms: N_17  and  S_19
REMARK    6  A    between atoms: C_23  and  C_26
REMARK    7  A    between atoms: N_25  and  C_28
REMARK    8  A    between atoms: C_28  and  C_29
REMARK    9  A    between atoms: C_28  and  C_33
REMARK   10  A    between atoms: C_33  and  C_37
REMARK                            x       y       z     vdW  Elec       q    Type
REMARK                         _______ _______ _______ _____ _____    ______ ____
ROOT
ATOM      1  O   UNL     1      31.736 -22.574 -17.765  0.00  0.00    -0.268 OA
ATOM      2  N   UNL     1      33.384 -23.520 -16.385  0.00  0.00    -0.230 N 
ATOM      3  N   UNL     1      32.943 -23.759 -14.043  0.00  0.00    -0.227 NA
ATOM      4  C   UNL     1      33.734 -23.876 -15.068  0.00  0.00    +0.138 C 
ATOM      5  C   UNL     1      32.130 -22.956 -16.667  0.00  0.00    +0.270 C 
ATOM      6  C   UNL     1      31.267 -22.844 -15.477  0.00  0.00    +0.137 C 
ATOM      7  C   UNL     1      31.699 -23.240 -14.281  0.00  0.00    +0.121 C 
ENDROOT
BRANCH   4   8
ATOM      8  C   UNL     1      35.084 -24.417 -14.821  0.00  0.00    +0.032 C 
ATOM      9  C   UNL     1      36.067 -23.606 -14.253  0.00  0.00    +0.004 C 
ATOM     10  C   UNL     1      35.377 -25.738 -15.156  0.00  0.00    +0.004 C 
ATOM     11  C   UNL     1      37.343 -24.117 -14.019  0.00  0.00    +0.014 C 
ATOM     12  C   UNL     1      36.654 -26.250 -14.923  0.00  0.00    +0.014 C 
ATOM     13  C   UNL     1      37.637 -25.440 -14.354  0.00  0.00    +0.042 C 
BRANCH  13  14
ATOM     14  N   UNL     1      38.927 -25.957 -14.117  0.00  0.00    -0.357 N 
ATOM     15  H   UNL     1      39.072 -26.601 -13.387  0.00  0.00    +0.142 HD
ATOM     16  H   UNL     1      39.682 -25.676 -14.682  0.00  0.00    +0.142 HD
ENDBRANCH  13  14
ENDBRANCH   4   8
BRANCH   6  17
ATOM     17  N   UNL     1      29.967 -22.323 -15.577  0.00  0.00    -0.213 N 
ATOM     18  H   UNL     1      29.764 -21.378 -15.390  0.00  0.00    +0.174 HD
BRANCH  17  19
ATOM     19  S   UNL     1      28.764 -23.438 -16.045  0.00  0.00    +0.056 S 
ATOM     20  O   UNL     1      28.820 -23.646 -17.478  0.00  0.00    -0.154 OA
ATOM     21  O   UNL     1      28.765 -24.559 -15.123  0.00  0.00    -0.154 OA
ATOM     22  C   UNL     1      27.313 -22.471 -15.708  0.00  0.00    +0.200 C 
ENDBRANCH  17  19
ENDBRANCH   6  17
BRANCH   2  23
ATOM     23  C   UNL     1      34.296 -23.728 -17.511  0.00  0.00    +0.185 C 
BRANCH  23  26
ATOM     24  O   UNL     1      35.721 -21.802 -17.208  0.00  0.00    -0.273 OA
ATOM     25  N   UNL     1      34.424 -21.956 -19.130  0.00  0.00    -0.298 N 
ATOM     26  C   UNL     1      34.917 -22.406 -17.911  0.00  0.00    +0.243 C 
ATOM     27  H   UNL     1      33.780 -22.524 -19.612  0.00  0.00    +0.150 HD
BRANCH  25  28
ATOM     28  C   UNL     1      34.807 -20.702 -19.727  0.00  0.00    +0.138 C 
BRANCH  28  29
ATOM     29  C   UNL     1      36.069 -20.797 -20.603  0.00  0.00    +0.025 C 
ATOM     30  C   UNL     1      36.642 -22.217 -20.585  0.00  0.00    +0.002 C 
ATOM     31  C   UNL     1      37.160 -19.794 -20.213  0.00  0.00    +0.002 C 
ENDBRANCH  28  29
BRANCH  28  33
ATOM     32  O   UNL     1      32.543 -20.798 -20.576  0.00  0.00    -0.286 OA
ATOM     33  C   UNL     1      33.602 -20.176 -20.500  0.00  0.00    +0.262 C 
BRANCH  33  37
ATOM     34  F   UNL     1      34.771 -18.112 -20.610  0.00  0.00    -0.163 F 
ATOM     35  F   UNL     1      32.628 -18.073 -21.001  0.00  0.00    -0.163 F 
ATOM     36  F   UNL     1      33.993 -18.922 -22.476  0.00  0.00    -0.163 F 
ATOM     37  C   UNL     1      33.748 -18.826 -21.145  0.00  0.00    +0.453 C 
ENDBRANCH  33  37
ENDBRANCH  28  33
ENDBRANCH  25  28
ENDBRANCH  23  26
ENDBRANCH   2  23
TORSDOF 10
ENDMDL
MODEL 3
REMARK VINA RESULT:      -9.7      2.974      5.486
REMARK  Name = 5289459
REMARK  10 active torsions:
REMARK  status: ('A' for Active; 'I' for Inactive)
REMARK    1  A    between atoms: N_2  and  C_23
REMARK    2  A    between atoms: C_4  and  C_8
REMARK    3  A    between atoms: C_6  and  N_17
REMARK    4  A    between atoms: C_13  and  N_14
REMARK    5  A    between atoms: N_17  and  S_19
REMARK    6  A    between atoms: C_23  and  C_26
REMARK    7  A    between atoms: N_25  and  C_28
REMARK    8  A    between atoms: C_28  and  C_29
REMARK    9  A    between atoms: C_28  and  C_33
REMARK   10  A    between atoms: C_33  and  C_37
REMARK                            x       y       z     vdW  Elec       q    Type
REMARK                         _______ _______ _______ _____ _____    ______ ____
ROOT
ATOM      1  O   UNL     1      33.603 -22.756 -20.157  0.00  0.00    -0.268 OA
ATOM      2  N   UNL     1      34.480 -23.003 -17.992  0.00  0.00    -0.230 N 
ATOM      3  N   UNL     1      36.450 -21.782 -17.388  0.00  0.00    -0.227 NA
ATOM      4  C   UNL     1      35.512 -22.638 -17.107  0.00  0.00    +0.138 C 
ATOM      5  C   UNL     1      34.430 -22.479 -19.292  0.00  0.00    +0.270 C 
ATOM      6  C   UNL     1      35.510 -21.513 -19.567  0.00  0.00    +0.137 C 
ATOM      7  C   UNL     1      36.420 -21.224 -18.638  0.00  0.00    +0.121 C 
ENDROOT
BRANCH   4   8
ATOM      8  C   UNL     1      35.545 -23.260 -15.769  0.00  0.00    +0.032 C 
ATOM      9  C   UNL     1      34.586 -22.914 -14.816  0.00  0.00    +0.004 C 
ATOM     10  C   UNL     1      36.533 -24.193 -15.459  0.00  0.00    +0.004 C 
ATOM     11  C   UNL     1      34.617 -23.503 -13.552  0.00  0.00    +0.014 C 
ATOM     12  C   UNL     1      36.565 -24.781 -14.194  0.00  0.00    +0.014 C 
ATOM     13  C   UNL     1      35.606 -24.436 -13.241  0.00  0.00    +0.042 C 
BRANCH  13  14
ATOM     14  N   UNL     1      35.637 -25.032 -11.963  0.00  0.00    -0.357 N 
ATOM     15  H   UNL     1      34.881 -24.908 -11.344  0.00  0.00    +0.142 HD
ATOM     16  H   UNL     1      36.413 -25.572 -11.690  0.00  0.00    +0.142 HD
ENDBRANCH  13  14
ENDBRANCH   4   8
BRANCH   6  17
ATOM     17  N   UNL     1      35.602 -20.870 -20.812  0.00  0.00    -0.213 N 
ATOM     18  H   UNL     1      36.122 -21.244 -21.559  0.00  0.00    +0.174 HD
BRANCH  17  19
ATOM     19  S   UNL     1      34.750 -19.398 -20.941  0.00  0.00    +0.056 S 
ATOM     20  O   UNL     1      33.396 -19.572 -20.455  0.00  0.00    -0.154 OA
ATOM     21  O   UNL     1      35.588 -18.316 -20.459  0.00  0.00    -0.154 OA
ATOM     22  C   UNL     1      34.662 -19.259 -22.710  0.00  0.00    +0.200 C 
ENDBRANCH  17  19
ENDBRANCH   6  17
BRANCH   2  23
ATOM     23  C   UNL     1      33.416 -23.930 -17.600  0.00  0.00    +0.185 C 
BRANCH  23  26
ATOM     24  O   UNL     1      31.930 -22.026 -17.571  0.00  0.00    -0.273 OA
ATOM     25  N   UNL     1      31.484 -23.828 -16.173  0.00  0.00    -0.298 N 
ATOM     26  C   UNL     1      32.202 -23.146 -17.148  0.00  0.00    +0.243 C 
ATOM     27  H   UNL     1      31.793 -24.725 -15.908  0.00  0.00    +0.150 HD
BRANCH  25  28
ATOM     28  C   UNL     1      30.310 -23.293 -15.532  0.00  0.00    +0.138 C 
BRANCH  28  29
ATOM     29  C   UNL     1      29.144 -23.031 -16.502  0.00  0.00    +0.025 C 
ATOM     30  C   UNL     1      28.054 -22.188 -15.833  0.00  0.00    +0.002 C 
ATOM     31  C   UNL     1      28.528 -24.312 -17.075  0.00  0.00    +0.002 C 
ENDBRANCH  28  29
BRANCH  28  33
ATOM     32  O   UNL     1      28.983 -25.035 -14.502  0.00  0.00    -0.286 OA
ATOM     33  C   UNL     1      29.926 -24.250 -14.408  0.00  0.00    +0.262 C 
BRANCH  33  37
ATOM     34  F   UNL     1      31.704 -25.221 -13.169  0.00  0.00    -0.163 F 
ATOM     35  F   UNL     1      30.044 -24.369 -12.043  0.00  0.00    -0.163 F 
ATOM     36  F   UNL     1      31.467 -23.058 -13.052  0.00  0.00    -0.163 F 
ATOM     37  C   UNL     1      30.782 -24.223 -13.173  0.00  0.00    +0.453 C 
ENDBRANCH  33  37
ENDBRANCH  28  33
ENDBRANCH  25  28
ENDBRANCH  23  26
ENDBRANCH   2  23
TORSDOF 10
ENDMDL
MODEL 4
REMARK VINA RESULT:      -9.2      3.228      6.207
REMARK  Name = 5289459
REMARK  10 active torsions:
REMARK  status: ('A' for Active; 'I' for Inactive)
REMARK    1  A    between atoms: N_2  and  C_23
REMARK    2  A    between atoms: C_4  and  C_8
REMARK    3  A    between atoms: C_6  and  N_17
REMARK    4  A    between atoms: C_13  and  N_14
REMARK    5  A    between atoms: N_17  and  S_19
REMARK    6  A    between atoms: C_23  and  C_26
REMARK    7  A    between atoms: N_25  and  C_28
REMARK    8  A    between atoms: C_28  and  C_29
REMARK    9  A    between atoms: C_28  and  C_33
REMARK   10  A    between atoms: C_33  and  C_37
REMARK                            x       y       z     vdW  Elec       q    Type
REMARK                         _______ _______ _______ _____ _____    ______ ____
ROOT
ATOM      1  O   UNL     1      36.070 -25.513 -15.324  0.00  0.00    -0.268 OA
ATOM      2  N   UNL     1      33.908 -24.670 -14.959  0.00  0.00    -0.230 N 
ATOM      3  N   UNL     1      33.309 -23.914 -12.767  0.00  0.00    -0.227 NA
ATOM      4  C   UNL     1      33.008 -24.151 -14.009  0.00  0.00    +0.138 C 
ATOM      5  C   UNL     1      35.217 -25.018 -14.592  0.00  0.00    +0.270 C 
ATOM      6  C   UNL     1      35.515 -24.731 -13.177  0.00  0.00    +0.137 C 
ATOM      7  C   UNL     1      34.587 -24.212 -12.376  0.00  0.00    +0.121 C 
ENDROOT
BRANCH   4   8
ATOM      8  C   UNL     1      31.628 -23.852 -14.438  0.00  0.00    +0.032 C 
ATOM      9  C   UNL     1      31.202 -22.528 -14.542  0.00  0.00    +0.004 C 
ATOM     10  C   UNL     1      30.751 -24.893 -14.740  0.00  0.00    +0.004 C 
ATOM     11  C   UNL     1      29.898 -22.245 -14.948  0.00  0.00    +0.014 C 
ATOM     12  C   UNL     1      29.447 -24.611 -15.146  0.00  0.00    +0.014 C 
ATOM     13  C   UNL     1      29.020 -23.287 -15.250  0.00  0.00    +0.042 C 
BRANCH  13  14
ATOM     14  N   UNL     1      27.701 -23.001 -15.661  0.00  0.00    -0.357 N 
ATOM     15  H   UNL     1      27.300 -23.500 -16.409  0.00  0.00    +0.142 HD
ATOM     16  H   UNL     1      27.182 -22.304 -15.200  0.00  0.00    +0.142 HD
ENDBRANCH  13  14
ENDBRANCH   4   8
BRANCH   6  17
ATOM     17  N   UNL     1      36.787 -24.994 -12.641  0.00  0.00    -0.213 N 
ATOM     18  H   UNL     1      36.987 -25.820 -12.145  0.00  0.00    +0.174 HD
BRANCH  17  19
ATOM     19  S   UNL     1      37.959 -23.784 -12.910  0.00  0.00    +0.056 S 
ATOM     20  O   UNL     1      37.537 -22.927 -14.000  0.00  0.00    -0.154 OA
ATOM     21  O   UNL     1      38.375 -23.229 -11.636  0.00  0.00    -0.154 OA
ATOM     22  C   UNL     1      39.292 -24.789 -13.516  0.00  0.00    +0.200 C 
ENDBRANCH  17  19
ENDBRANCH   6  17
BRANCH   2  23
ATOM     23  C   UNL     1      33.529 -24.862 -16.361  0.00  0.00    +0.185 C 
BRANCH  23  26
ATOM     24  O   UNL     1      32.517 -22.891 -17.321  0.00  0.00    -0.273 OA
ATOM     25  N   UNL     1      34.822 -23.154 -17.451  0.00  0.00    -0.298 N 
ATOM     26  C   UNL     1      33.537 -23.527 -17.075  0.00  0.00    +0.243 C 
ATOM     27  H   UNL     1      35.571 -23.742 -17.200  0.00  0.00    +0.150 HD
BRANCH  25  28
ATOM     28  C   UNL     1      35.116 -21.952 -18.188  0.00  0.00    +0.138 C 
BRANCH  28  29
ATOM     29  C   UNL     1      36.623 -21.663 -18.321  0.00  0.00    +0.025 C 
ATOM     30  C   UNL     1      37.221 -21.249 -16.974  0.00  0.00    +0.002 C 
ATOM     31  C   UNL     1      36.950 -20.606 -19.380  0.00  0.00    +0.002 C 
ENDBRANCH  28  29
BRANCH  28  33
ATOM     32  O   UNL     1      34.587 -23.031 -20.289  0.00  0.00    -0.286 OA
ATOM     33  C   UNL     1      34.425 -22.065 -19.543  0.00  0.00    +0.262 C 
BRANCH  33  37
ATOM     34  F   UNL     1      32.598 -20.675 -18.940  0.00  0.00    -0.163 F 
ATOM     35  F   UNL     1      32.772 -21.250 -21.034  0.00  0.00    -0.163 F 
ATOM     36  F   UNL     1      34.157 -19.795 -20.181  0.00  0.00    -0.163 F 
ATOM     37  C   UNL     1      33.493 -20.949 -19.923  0.00  0.00    +0.453 C 
ENDBRANCH  33  37
ENDBRANCH  28  33
ENDBRANCH  25  28
ENDBRANCH  23  26
ENDBRANCH   2  23
TORSDOF 10
ENDMDL
MODEL 5
REMARK VINA RESULT:      -8.9      8.768     11.695
REMARK  Name = 5289459
REMARK  10 active torsions:
REMARK  status: ('A' for Active; 'I' for Inactive)
REMARK    1  A    between atoms: N_2  and  C_23
REMARK    2  A    between atoms: C_4  and  C_8
REMARK    3  A    between atoms: C_6  and  N_17
REMARK    4  A    between atoms: C_13  and  N_14
REMARK    5  A    between atoms: N_17  and  S_19
REMARK    6  A    between atoms: C_23  and  C_26
REMARK    7  A    between atoms: N_25  and  C_28
REMARK    8  A    between atoms: C_28  and  C_29
REMARK    9  A    between atoms: C_28  and  C_33
REMARK   10  A    between atoms: C_33  and  C_37
REMARK                            x       y       z     vdW  Elec       q    Type
REMARK                         _______ _______ _______ _____ _____    ______ ____
ROOT
ATOM      1  O   UNL     1      33.385 -16.576 -20.242  0.00  0.00    -0.268 OA
ATOM      2  N   UNL     1      33.487 -15.749 -22.438  0.00  0.00    -0.230 N 
ATOM      3  N   UNL     1      35.235 -16.510 -23.888  0.00  0.00    -0.227 NA
ATOM      4  C   UNL     1      34.197 -15.762 -23.653  0.00  0.00    +0.138 C 
ATOM      5  C   UNL     1      33.902 -16.538 -21.355  0.00  0.00    +0.270 C 
ATOM      6  C   UNL     1      35.080 -17.370 -21.666  0.00  0.00    +0.137 C 
ATOM      7  C   UNL     1      35.655 -17.318 -22.866  0.00  0.00    +0.121 C 
ENDROOT
BRANCH   4   8
ATOM      8  C   UNL     1      33.746 -14.873 -24.741  0.00  0.00    +0.032 C 
ATOM      9  C   UNL     1      33.090 -15.407 -25.851  0.00  0.00    +0.004 C 
ATOM     10  C   UNL     1      33.975 -13.500 -24.659  0.00  0.00    +0.004 C 
ATOM     11  C   UNL     1      32.663 -14.566 -26.879  0.00  0.00    +0.014 C 
ATOM     12  C   UNL     1      33.549 -12.659 -25.688  0.00  0.00    +0.014 C 
ATOM     13  C   UNL     1      32.892 -13.192 -26.797  0.00  0.00    +0.042 C 
BRANCH  13  14
ATOM     14  N   UNL     1      32.461 -12.342 -27.836  0.00  0.00    -0.357 N 
ATOM     15  H   UNL     1      31.658 -11.786 -27.715  0.00  0.00    +0.142 HD
ATOM     16  H   UNL     1      32.962 -12.304 -28.682  0.00  0.00    +0.142 HD
ENDBRANCH  13  14
ENDBRANCH   4   8
BRANCH   6  17
ATOM     17  N   UNL     1      35.619 -18.241 -20.705  0.00  0.00    -0.213 N 
ATOM     18  H   UNL     1      36.249 -17.935 -20.013  0.00  0.00    +0.174 HD
BRANCH  17  19
ATOM     19  S   UNL     1      35.109 -19.865 -20.820  0.00  0.00    +0.056 S 
ATOM     20  O   UNL     1      33.920 -20.062 -20.015  0.00  0.00    -0.154 OA
ATOM     21  O   UNL     1      35.155 -20.285 -22.208  0.00  0.00    -0.154 OA
ATOM     22  C   UNL     1      36.455 -20.661 -19.977  0.00  0.00    +0.200 C 
ENDBRANCH  17  19
ENDBRANCH   6  17
BRANCH   2  23
ATOM     23  C   UNL     1      32.289 -14.928 -22.250  0.00  0.00    +0.185 C 
BRANCH  23  26
ATOM     24  O   UNL     1      33.429 -13.550 -20.627  0.00  0.00    -0.273 OA
ATOM     25  N   UNL     1      32.016 -12.541 -22.172  0.00  0.00    -0.298 N 
ATOM     26  C   UNL     1      32.669 -13.621 -21.589  0.00  0.00    +0.243 C 
ATOM     27  H   UNL     1      31.427 -12.713 -22.942  0.00  0.00    +0.150 HD
BRANCH  25  28
ATOM     28  C   UNL     1      32.156 -11.184 -21.709  0.00  0.00    +0.138 C 
BRANCH  28  29
ATOM     29  C   UNL     1      32.064 -10.137 -22.835  0.00  0.00    +0.025 C 
ATOM     30  C   UNL     1      33.414  -9.968 -23.537  0.00  0.00    +0.002 C 
ATOM     31  C   UNL     1      31.554  -8.773 -22.358  0.00  0.00    +0.002 C 
ENDBRANCH  28  29
BRANCH  28  33
ATOM     32  O   UNL     1      29.932 -11.288 -20.761  0.00  0.00    -0.286 OA
ATOM     33  C   UNL     1      31.111 -10.961 -20.622  0.00  0.00    +0.262 C 
BRANCH  33  37
ATOM     34  F   UNL     1      32.946 -10.284 -19.276  0.00  0.00    -0.163 F 
ATOM     35  F   UNL     1      31.187 -11.064 -18.255  0.00  0.00    -0.163 F 
ATOM     36  F   UNL     1      31.130  -9.084 -19.170  0.00  0.00    -0.163 F 
ATOM     37  C   UNL     1      31.591 -10.349 -19.335  0.00  0.00    +0.453 C 
ENDBRANCH  33  37
ENDBRANCH  28  33
ENDBRANCH  25  28
ENDBRANCH  23  26
ENDBRANCH   2  23
TORSDOF 10
ENDMDL
MODEL 6
REMARK VINA RESULT:      -8.3     13.107     16.293
REMARK  Name = 5289459
REMARK  10 active torsions:
REMARK  status: ('A' for Active; 'I' for Inactive)
REMARK    1  A    between atoms: N_2  and  C_23
REMARK    2  A    between atoms: C_4  and  C_8
REMARK    3  A    between atoms: C_6  and  N_17
REMARK    4  A    between atoms: C_13  and  N_14
REMARK    5  A    between atoms: N_17  and  S_19
REMARK    6  A    between atoms: C_23  and  C_26
REMARK    7  A    between atoms: N_25  and  C_28
REMARK    8  A    between atoms: C_28  and  C_29
REMARK    9  A    between atoms: C_28  and  C_33
REMARK   10  A    between atoms: C_33  and  C_37
REMARK                            x       y       z     vdW  Elec       q    Type
REMARK                         _______ _______ _______ _____ _____    ______ ____
ROOT
ATOM      1  O   UNL     1      32.278 -10.767 -21.597  0.00  0.00    -0.268 OA
ATOM      2  N   UNL     1      32.353  -8.662 -22.635  0.00  0.00    -0.230 N 
ATOM      3  N   UNL     1      32.473  -6.696 -21.272  0.00  0.00    -0.227 NA
ATOM      4  C   UNL     1      32.393  -7.269 -22.437  0.00  0.00    +0.138 C 
ATOM      5  C   UNL     1      32.351  -9.543 -21.542  0.00  0.00    +0.270 C 
ATOM      6  C   UNL     1      32.444  -8.851 -20.243  0.00  0.00    +0.137 C 
ATOM      7  C   UNL     1      32.504  -7.522 -20.180  0.00  0.00    +0.121 C 
ENDROOT
BRANCH   4   8
ATOM      8  C   UNL     1      32.341  -6.388 -23.619  0.00  0.00    +0.032 C 
ATOM      9  C   UNL     1      31.217  -5.593 -23.847  0.00  0.00    +0.004 C 
ATOM     10  C   UNL     1      33.414  -6.352 -24.508  0.00  0.00    +0.004 C 
ATOM     11  C   UNL     1      31.168  -4.761 -24.965  0.00  0.00    +0.014 C 
ATOM     12  C   UNL     1      33.365  -5.519 -25.627  0.00  0.00    +0.014 C 
ATOM     13  C   UNL     1      32.242  -4.723 -25.855  0.00  0.00    +0.042 C 
BRANCH  13  14
ATOM     14  N   UNL     1      32.193  -3.881 -26.985  0.00  0.00    -0.357 N 
ATOM     15  H   UNL     1      33.008  -3.718 -27.513  0.00  0.00    +0.142 HD
ATOM     16  H   UNL     1      31.344  -3.457 -27.247  0.00  0.00    +0.142 HD
ENDBRANCH  13  14
ENDBRANCH   4   8
BRANCH   6  17
ATOM     17  N   UNL     1      32.478  -9.578 -19.042  0.00  0.00    -0.213 N 
ATOM     18  H   UNL     1      33.128  -9.382 -18.329  0.00  0.00    +0.174 HD
BRANCH  17  19
ATOM     19  S   UNL     1      31.318 -10.821 -18.903  0.00  0.00    +0.056 S 
ATOM     20  O   UNL     1      30.012 -10.314 -19.276  0.00  0.00    -0.154 OA
ATOM     21  O   UNL     1      31.848 -12.037 -19.489  0.00  0.00    -0.154 OA
ATOM     22  C   UNL     1      31.318 -11.032 -17.139  0.00  0.00    +0.200 C 
ENDBRANCH  17  19
ENDBRANCH   6  17
BRANCH   2  23
ATOM     23  C   UNL     1      32.321  -9.253 -23.974  0.00  0.00    +0.185 C 
BRANCH  23  26
ATOM     24  O   UNL     1      34.621  -9.965 -24.165  0.00  0.00    -0.273 OA
ATOM     25  N   UNL     1      32.936 -11.566 -24.199  0.00  0.00    -0.298 N 
ATOM     26  C   UNL     1      33.434 -10.271 -24.105  0.00  0.00    +0.243 C 
ATOM     27  H   UNL     1      31.962 -11.697 -24.138  0.00  0.00    +0.150 HD
BRANCH  25  28
ATOM     28  C   UNL     1      33.771 -12.726 -24.379  0.00  0.00    +0.138 C 
BRANCH  28  29
ATOM     29  C   UNL     1      33.869 -13.615 -23.126  0.00  0.00    +0.025 C 
ATOM     30  C   UNL     1      34.599 -14.924 -23.439  0.00  0.00    +0.002 C 
ATOM     31  C   UNL     1      32.511 -13.920 -22.486  0.00  0.00    +0.002 C 
ENDBRANCH  28  29
BRANCH  28  33
ATOM     32  O   UNL     1      32.605 -14.535 -25.485  0.00  0.00    -0.286 OA
ATOM     33  C   UNL     1      33.242 -13.487 -25.590  0.00  0.00    +0.262 C 
BRANCH  33  37
ATOM     34  F   UNL     1      33.978 -13.787 -27.827  0.00  0.00    -0.163 F 
ATOM     35  F   UNL     1      34.414 -11.876 -26.876  0.00  0.00    -0.163 F 
ATOM     36  F   UNL     1      32.374 -12.353 -27.485  0.00  0.00    -0.163 F 
ATOM     37  C   UNL     1      33.500 -12.878 -26.940  0.00  0.00    +0.453 C 
ENDBRANCH  33  37
ENDBRANCH  28  33
ENDBRANCH  25  28
ENDBRANCH  23  26
ENDBRANCH   2  23
TORSDOF 10
ENDMDL
MODEL 7
REMARK VINA RESULT:      -8.2      4.748      8.076
REMARK  Name = 5289459
REMARK  10 active torsions:
REMARK  status: ('A' for Active; 'I' for Inactive)
REMARK    1  A    between atoms: N_2  and  C_23
REMARK    2  A    between atoms: C_4  and  C_8
REMARK    3  A    between atoms: C_6  and  N_17
REMARK    4  A    between atoms: C_13  and  N_14
REMARK    5  A    between atoms: N_17  and  S_19
REMARK    6  A    between atoms: C_23  and  C_26
REMARK    7  A    between atoms: N_25  and  C_28
REMARK    8  A    between atoms: C_28  and  C_29
REMARK    9  A    between atoms: C_28  and  C_33
REMARK   10  A    between atoms: C_33  and  C_37
REMARK                            x       y       z     vdW  Elec       q    Type
REMARK                         _______ _______ _______ _____ _____    ______ ____
ROOT
ATOM      1  O   UNL     1      32.366 -22.030 -18.395  0.00  0.00    -0.268 OA
ATOM      2  N   UNL     1      33.789 -23.057 -16.834  0.00  0.00    -0.230 N 
ATOM      3  N   UNL     1      32.832 -24.170 -14.942  0.00  0.00    -0.227 NA
ATOM      4  C   UNL     1      33.865 -23.770 -15.623  0.00  0.00    +0.138 C 
ATOM      5  C   UNL     1      32.548 -22.683 -17.371  0.00  0.00    +0.270 C 
ATOM      6  C   UNL     1      31.406 -23.158 -16.569  0.00  0.00    +0.137 C 
ATOM      7  C   UNL     1      31.600 -23.851 -15.448  0.00  0.00    +0.121 C 
ENDROOT
BRANCH   4   8
ATOM      8  C   UNL     1      35.198 -24.091 -15.078  0.00  0.00    +0.032 C 
ATOM      9  C   UNL     1      35.905 -23.131 -14.354  0.00  0.00    +0.004 C 
ATOM     10  C   UNL     1      35.750 -25.354 -15.286  0.00  0.00    +0.004 C 
ATOM     11  C   UNL     1      37.164 -23.435 -13.839  0.00  0.00    +0.014 C 
ATOM     12  C   UNL     1      37.010 -25.658 -14.771  0.00  0.00    +0.014 C 
ATOM     13  C   UNL     1      37.717 -24.699 -14.047  0.00  0.00    +0.042 C 
BRANCH  13  14
ATOM     14  N   UNL     1      38.991 -25.007 -13.525  0.00  0.00    -0.357 N 
ATOM     15  H   UNL     1      39.129 -25.039 -12.551  0.00  0.00    +0.142 HD
ATOM     16  H   UNL     1      39.742 -25.190 -14.135  0.00  0.00    +0.142 HD
ENDBRANCH  13  14
ENDBRANCH   4   8
BRANCH   6  17
ATOM     17  N   UNL     1      30.085 -22.896 -16.970  0.00  0.00    -0.213 N 
ATOM     18  H   UNL     1      29.854 -22.675 -17.900  0.00  0.00    +0.174 HD
BRANCH  17  19
ATOM     19  S   UNL     1      28.912 -22.988 -15.735  0.00  0.00    +0.056 S 
ATOM     20  O   UNL     1      28.646 -24.377 -15.416  0.00  0.00    -0.154 OA
ATOM     21  O   UNL     1      29.233 -22.028 -14.696  0.00  0.00    -0.154 OA
ATOM     22  C   UNL     1      27.501 -22.370 -16.618  0.00  0.00    +0.200 C 
ENDBRANCH  17  19
ENDBRANCH   6  17
BRANCH   2  23
ATOM     23  C   UNL     1      34.988 -22.683 -17.589  0.00  0.00    +0.185 C 
BRANCH  23  26
ATOM     24  O   UNL     1      34.204 -23.121 -19.830  0.00  0.00    -0.273 OA
ATOM     25  N   UNL     1      34.797 -20.952 -19.245  0.00  0.00    -0.298 N 
ATOM     26  C   UNL     1      34.599 -22.306 -19.002  0.00  0.00    +0.243 C 
ATOM     27  H   UNL     1      35.118 -20.387 -18.505  0.00  0.00    +0.150 HD
BRANCH  25  28
ATOM     28  C   UNL     1      34.554 -20.330 -20.522  0.00  0.00    +0.138 C 
BRANCH  28  29
ATOM     29  C   UNL     1      33.236 -19.536 -20.580  0.00  0.00    +0.025 C 
ATOM     30  C   UNL     1      32.304 -20.102 -21.655  0.00  0.00    +0.002 C 
ATOM     31  C   UNL     1      33.438 -18.035 -20.809  0.00  0.00    +0.002 C 
ENDBRANCH  28  29
BRANCH  28  33
ATOM     32  O   UNL     1      36.645 -19.219 -20.021  0.00  0.00    -0.286 OA
ATOM     33  C   UNL     1      35.767 -19.466 -20.848  0.00  0.00    +0.262 C 
BRANCH  33  37
ATOM     34  F   UNL     1      35.249 -19.763 -23.146  0.00  0.00    -0.163 F 
ATOM     35  F   UNL     1      37.164 -18.843 -22.660  0.00  0.00    -0.163 F 
ATOM     36  F   UNL     1      35.313 -17.720 -22.390  0.00  0.00    -0.163 F 
ATOM     37  C   UNL     1      35.872 -18.949 -22.256  0.00  0.00    +0.453 C 
ENDBRANCH  33  37
ENDBRANCH  28  33
ENDBRANCH  25  28
ENDBRANCH  23  26
ENDBRANCH   2  23
TORSDOF 10
ENDMDL
MODEL 8
REMARK VINA RESULT:      -8.2     13.763     17.429
REMARK  Name = 5289459
REMARK  10 active torsions:
REMARK  status: ('A' for Active; 'I' for Inactive)
REMARK    1  A    between atoms: N_2  and  C_23
REMARK    2  A    between atoms: C_4  and  C_8
REMARK    3  A    between atoms: C_6  and  N_17
REMARK    4  A    between atoms: C_13  and  N_14
REMARK    5  A    between atoms: N_17  and  S_19
REMARK    6  A    between atoms: C_23  and  C_26
REMARK    7  A    between atoms: N_25  and  C_28
REMARK    8  A    between atoms: C_28  and  C_29
REMARK    9  A    between atoms: C_28  and  C_33
REMARK   10  A    between atoms: C_33  and  C_37
REMARK                            x       y       z     vdW  Elec       q    Type
REMARK                         _______ _______ _______ _____ _____    ______ ____
ROOT
ATOM      1  O   UNL     1      34.207  -6.643 -25.103  0.00  0.00    -0.268 OA
ATOM      2  N   UNL     1      33.078  -7.624 -23.293  0.00  0.00    -0.230 N 
ATOM      3  N   UNL     1      31.181  -6.500 -22.357  0.00  0.00    -0.227 NA
ATOM      4  C   UNL     1      32.029  -7.486 -22.364  0.00  0.00    +0.138 C 
ATOM      5  C   UNL     1      33.303  -6.645 -24.272  0.00  0.00    +0.270 C 
ATOM      6  C   UNL     1      32.318  -5.548 -24.229  0.00  0.00    +0.137 C 
ATOM      7  C   UNL     1      31.348  -5.538 -23.317  0.00  0.00    +0.121 C 
ENDROOT
BRANCH   4   8
ATOM      8  C   UNL     1      31.870  -8.519 -21.323  0.00  0.00    +0.032 C 
ATOM      9  C   UNL     1      31.165  -9.689 -21.605  0.00  0.00    +0.004 C 
ATOM     10  C   UNL     1      32.426  -8.326 -20.059  0.00  0.00    +0.004 C 
ATOM     11  C   UNL     1      31.015 -10.667 -20.621  0.00  0.00    +0.014 C 
ATOM     12  C   UNL     1      32.276  -9.303 -19.075  0.00  0.00    +0.014 C 
ATOM     13  C   UNL     1      31.571 -10.474 -19.356  0.00  0.00    +0.042 C 
BRANCH  13  14
ATOM     14  N   UNL     1      31.421 -11.462 -18.361  0.00  0.00    -0.357 N 
ATOM     15  H   UNL     1      30.802 -12.214 -18.505  0.00  0.00    +0.142 HD
ATOM     16  H   UNL     1      31.934 -11.400 -17.523  0.00  0.00    +0.142 HD
ENDBRANCH  13  14
ENDBRANCH   4   8
BRANCH   6  17
ATOM     17  N   UNL     1      32.376  -4.492 -25.153  0.00  0.00    -0.213 N 
ATOM     18  H   UNL     1      32.871  -4.562 -26.001  0.00  0.00    +0.174 HD
BRANCH  17  19
ATOM     19  S   UNL     1      31.531  -3.079 -24.705  0.00  0.00    +0.056 S 
ATOM     20  O   UNL     1      30.120  -3.241 -24.993  0.00  0.00    -0.154 OA
ATOM     21  O   UNL     1      31.985  -2.644 -23.397  0.00  0.00    -0.154 OA
ATOM     22  C   UNL     1      32.188  -1.946 -25.904  0.00  0.00    +0.200 C 
ENDBRANCH  17  19
ENDBRANCH   6  17
BRANCH   2  23
ATOM     23  C   UNL     1      33.968  -8.787 -23.287  0.00  0.00    +0.185 C 
BRANCH  23  26
ATOM     24  O   UNL     1      32.320  -9.791 -24.739  0.00  0.00    -0.273 OA
ATOM     25  N   UNL     1      33.936 -11.144 -23.759  0.00  0.00    -0.298 N 
ATOM     26  C   UNL     1      33.310  -9.931 -24.029  0.00  0.00    +0.243 C 
ATOM     27  H   UNL     1      34.727 -11.140 -23.173  0.00  0.00    +0.150 HD
BRANCH  25  28
ATOM     28  C   UNL     1      33.488 -12.404 -24.294  0.00  0.00    +0.138 C 
BRANCH  28  29
ATOM     29  C   UNL     1      34.133 -12.763 -25.646  0.00  0.00    +0.025 C 
ATOM     30  C   UNL     1      34.757 -11.527 -26.300  0.00  0.00    +0.002 C 
ATOM     31  C   UNL     1      33.163 -13.433 -26.625  0.00  0.00    +0.002 C 
ENDBRANCH  28  29
BRANCH  28  33
ATOM     32  O   UNL     1      34.796 -14.092 -23.157  0.00  0.00    -0.286 OA
ATOM     33  C   UNL     1      33.738 -13.467 -23.231  0.00  0.00    +0.262 C 
BRANCH  33  37
ATOM     34  F   UNL     1      32.270 -15.008 -22.180  0.00  0.00    -0.163 F 
ATOM     35  F   UNL     1      31.520 -12.994 -22.539  0.00  0.00    -0.163 F 
ATOM     36  F   UNL     1      33.004 -13.345 -20.978  0.00  0.00    -0.163 F 
ATOM     37  C   UNL     1      32.638 -13.702 -22.235  0.00  0.00    +0.453 C 
ENDBRANCH  33  37
ENDBRANCH  28  33
ENDBRANCH  25  28
ENDBRANCH  23  26
ENDBRANCH   2  23
TORSDOF 10
ENDMDL
MODEL 9
REMARK VINA RESULT:      -7.9      3.685      6.613
REMARK  Name = 5289459
REMARK  10 active torsions:
REMARK  status: ('A' for Active; 'I' for Inactive)
REMARK    1  A    between atoms: N_2  and  C_23
REMARK    2  A    between atoms: C_4  and  C_8
REMARK    3  A    between atoms: C_6  and  N_17
REMARK    4  A    between atoms: C_13  and  N_14
REMARK    5  A    between atoms: N_17  and  S_19
REMARK    6  A    between atoms: C_23  and  C_26
REMARK    7  A    between atoms: N_25  and  C_28
REMARK    8  A    between atoms: C_28  and  C_29
REMARK    9  A    between atoms: C_28  and  C_33
REMARK   10  A    between atoms: C_33  and  C_37
REMARK                            x       y       z     vdW  Elec       q    Type
REMARK                         _______ _______ _______ _____ _____    ______ ____
ROOT
ATOM      1  O   UNL     1      35.719 -22.682 -17.361  0.00  0.00    -0.268 OA
ATOM      2  N   UNL     1      33.554 -23.013 -16.513  0.00  0.00    -0.230 N 
ATOM      3  N   UNL     1      33.243 -24.498 -14.659  0.00  0.00    -0.227 NA
ATOM      4  C   UNL     1      32.767 -23.699 -15.568  0.00  0.00    +0.138 C 
ATOM      5  C   UNL     1      34.944 -23.196 -16.558  0.00  0.00    +0.270 C 
ATOM      6  C   UNL     1      35.440 -24.106 -15.510  0.00  0.00    +0.137 C 
ATOM      7  C   UNL     1      34.600 -24.679 -14.650  0.00  0.00    +0.121 C 
ENDROOT
BRANCH   4   8
ATOM      8  C   UNL     1      31.304 -23.509 -15.600  0.00  0.00    +0.032 C 
ATOM      9  C   UNL     1      30.724 -22.446 -14.908  0.00  0.00    +0.004 C 
ATOM     10  C   UNL     1      30.503 -24.392 -16.323  0.00  0.00    +0.004 C 
ATOM     11  C   UNL     1      29.341 -22.266 -14.938  0.00  0.00    +0.014 C 
ATOM     12  C   UNL     1      29.120 -24.213 -16.353  0.00  0.00    +0.014 C 
ATOM     13  C   UNL     1      28.539 -23.150 -15.662  0.00  0.00    +0.042 C 
BRANCH  13  14
ATOM     14  N   UNL     1      27.141 -22.968 -15.693  0.00  0.00    -0.357 N 
ATOM     15  H   UNL     1      26.737 -22.375 -16.367  0.00  0.00    +0.142 HD
ATOM     16  H   UNL     1      26.568 -23.435 -15.043  0.00  0.00    +0.142 HD
ENDBRANCH  13  14
ENDBRANCH   4   8
BRANCH   6  17
ATOM     17  N   UNL     1      36.811 -24.387 -15.390  0.00  0.00    -0.213 N 
ATOM     18  H   UNL     1      37.504 -23.721 -15.605  0.00  0.00    +0.174 HD
BRANCH  17  19
ATOM     19  S   UNL     1      37.194 -25.957 -14.845  0.00  0.00    +0.056 S 
ATOM     20  O   UNL     1      36.783 -26.109 -13.463  0.00  0.00    -0.154 OA
ATOM     21  O   UNL     1      36.803 -26.923 -15.854  0.00  0.00    -0.154 OA
ATOM     22  C   UNL     1      38.966 -25.855 -14.859  0.00  0.00    +0.200 C 
ENDBRANCH  17  19
ENDBRANCH   6  17
BRANCH   2  23
ATOM     23  C   UNL     1      32.967 -22.080 -17.478  0.00  0.00    +0.185 C 
BRANCH  23  26
ATOM     24  O   UNL     1      33.847 -23.360 -19.327  0.00  0.00    -0.273 OA
ATOM     25  N   UNL     1      34.003 -21.042 -19.382  0.00  0.00    -0.298 N 
ATOM     26  C   UNL     1      33.631 -22.261 -18.826  0.00  0.00    +0.243 C 
ATOM     27  H   UNL     1      33.778 -20.218 -18.893  0.00  0.00    +0.150 HD
BRANCH  25  28
ATOM     28  C   UNL     1      34.697 -20.922 -20.639  0.00  0.00    +0.138 C 
BRANCH  28  29
ATOM     29  C   UNL     1      34.323 -19.655 -21.430  0.00  0.00    +0.025 C 
ATOM     30  C   UNL     1      32.844 -19.308 -21.241  0.00  0.00    +0.002 C 
ATOM     31  C   UNL     1      34.645 -19.752 -22.925  0.00  0.00    +0.002 C 
ENDBRANCH  28  29
BRANCH  28  33
ATOM     32  O   UNL     1      36.802 -22.073 -20.325  0.00  0.00    -0.286 OA
ATOM     33  C   UNL     1      36.191 -21.004 -20.346  0.00  0.00    +0.262 C 
BRANCH  33  37
ATOM     34  F   UNL     1      37.884 -19.492 -21.041  0.00  0.00    -0.163 F 
ATOM     35  F   UNL     1      37.508 -19.664 -18.902  0.00  0.00    -0.163 F 
ATOM     36  F   UNL     1      36.071 -18.640 -20.184  0.00  0.00    -0.163 F 
ATOM     37  C   UNL     1      36.910 -19.704 -20.119  0.00  0.00    +0.453 C 
ENDBRANCH  33  37
ENDBRANCH  28  33
ENDBRANCH  25  28
ENDBRANCH  23  26
ENDBRANCH   2  23
TORSDOF 10
ENDMDL
