MODEL 1
REMARK VINA RESULT:     -10.4      0.000      0.000
REMARK  Name = 11326715
REMARK  9 active torsions:
REMARK  status: ('A' for Active; 'I' for Inactive)
REMARK    1  A    between atoms: N_2  and  C_5
REMARK    2  A    between atoms: C_3  and  C_17
REMARK    3  A    between atoms: C_7  and  C_14
REMARK    4  A    between atoms: C_9  and  C_16
REMARK    5  A    between atoms: C_17  and  O_19
REMARK    6  A    between atoms: C_17  and  C_21
REMARK    7  A    between atoms: C_21  and  O_22
REMARK    8  A    between atoms: O_22  and  C_23
REMARK    9  A    between atoms: C_28  and  C_30
REMARK                            x       y       z     vdW  Elec       q    Type
REMARK                         _______ _______ _______ _____ _____    ______ ____
ROOT
ATOM      1  O   UNL     1      33.203 -15.316 -25.115  0.00  0.00    -0.272 OA
ATOM      2  N   UNL     1      34.032 -14.478 -23.091  0.00  0.00    -0.282 N 
ATOM      3  C   UNL     1      33.873 -15.432 -24.090  0.00  0.00    +0.254 C 
ATOM      4  H   UNL     1      34.606 -14.734 -22.334  0.00  0.00    +0.155 HD
ENDROOT
BRANCH   2   5
ATOM      5  C   UNL     1      33.465 -13.182 -23.036  0.00  0.00    +0.050 C 
ATOM      6  C   UNL     1      32.640 -12.848 -21.976  0.00  0.00    +0.019 C 
ATOM      7  C   UNL     1      32.081 -11.571 -21.921  0.00  0.00    +0.082 C 
ATOM      8  C   UNL     1      33.748 -12.276 -24.045  0.00  0.00    +0.015 C 
ATOM      9  C   UNL     1      32.357 -10.646 -22.928  0.00  0.00    +0.072 C 
ATOM     10  C   UNL     1      33.190 -10.999 -23.990  0.00  0.00    +0.011 C 
BRANCH   7  14
ATOM     11  F   UNL     1      31.418  -9.984 -20.260  0.00  0.00    -0.166 F 
ATOM     12  F   UNL     1      29.864 -11.254 -21.083  0.00  0.00    -0.166 F 
ATOM     13  F   UNL     1      31.342 -12.089 -19.721  0.00  0.00    -0.166 F 
ATOM     14  C   UNL     1      31.193 -11.229 -20.769  0.00  0.00    +0.419 C 
ENDBRANCH   7  14
BRANCH   9  16
ATOM     15  N   UNL     1      31.342  -8.263 -22.869  0.00  0.00    -0.191 NA
ATOM     16  C   UNL     1      31.797  -9.330 -22.896  0.00  0.00    +0.100 C 
ENDBRANCH   9  16
ENDBRANCH   2   5
BRANCH   3  17
ATOM     17  C   UNL     1      34.648 -16.732 -23.803  0.00  0.00    +0.197 C 
ATOM     18  C   UNL     1      34.573 -17.688 -24.995  0.00  0.00    +0.043 C 
BRANCH  17  19
ATOM     19  O   UNL     1      36.019 -16.382 -23.612  0.00  0.00    -0.375 OA
ATOM     20  H   UNL     1      36.508 -16.525 -24.438  0.00  0.00    +0.211 HD
ENDBRANCH  17  19
BRANCH  17  21
ATOM     21  C   UNL     1      34.175 -17.428 -22.521  0.00  0.00    +0.241 C 
BRANCH  21  22
ATOM     22  O   UNL     1      35.242 -18.148 -21.909  0.00  0.00    -0.472 OA
BRANCH  22  23
ATOM     23  C   UNL     1      34.894 -19.234 -21.151  0.00  0.00    +0.139 C 
ATOM     24  C   UNL     1      35.886 -20.026 -20.583  0.00  0.00    +0.038 C 
ATOM     25  C   UNL     1      33.549 -19.535 -20.956  0.00  0.00    +0.038 C 
ATOM     26  C   UNL     1      35.531 -21.133 -19.813  0.00  0.00    +0.013 C 
ATOM     27  C   UNL     1      33.195 -20.642 -20.184  0.00  0.00    +0.013 C 
ATOM     28  C   UNL     1      34.186 -21.441 -19.613  0.00  0.00    +0.069 C 
BRANCH  28  30
ATOM     29  N   UNL     1      33.527 -23.496 -18.180  0.00  0.00    -0.191 NA
ATOM     30  C   UNL     1      33.822 -22.575 -18.822  0.00  0.00    +0.100 C 
ENDBRANCH  28  30
ENDBRANCH  22  23
ENDBRANCH  21  22
ENDBRANCH  17  21
ENDBRANCH   3  17
TORSDOF 9
ENDMDL
MODEL 2
REMARK VINA RESULT:     -10.3      2.150      2.708
REMARK  Name = 11326715
REMARK  9 active torsions:
REMARK  status: ('A' for Active; 'I' for Inactive)
REMARK    1  A    between atoms: N_2  and  C_5
REMARK    2  A    between atoms: C_3  and  C_17
REMARK    3  A    between atoms: C_7  and  C_14
REMARK    4  A    between atoms: C_9  and  C_16
REMARK    5  A    between atoms: C_17  and  O_19
REMARK    6  A    between atoms: C_17  and  C_21
REMARK    7  A    between atoms: C_21  and  O_22
REMARK    8  A    between atoms: O_22  and  C_23
REMARK    9  A    between atoms: C_28  and  C_30
REMARK                            x       y       z     vdW  Elec       q    Type
REMARK                         _______ _______ _______ _____ _____    ______ ____
ROOT
ATOM      1  O   UNL     1      34.988 -16.280 -21.403  0.00  0.00    -0.272 OA
ATOM      2  N   UNL     1      33.968 -15.683 -23.424  0.00  0.00    -0.282 N 
ATOM      3  C   UNL     1      34.675 -16.519 -22.568  0.00  0.00    +0.254 C 
ATOM      4  H   UNL     1      33.800 -16.030 -24.330  0.00  0.00    +0.155 HD
ENDROOT
BRANCH   2   5
ATOM      5  C   UNL     1      33.459 -14.391 -23.147  0.00  0.00    +0.050 C 
ATOM      6  C   UNL     1      33.910 -13.312 -23.888  0.00  0.00    +0.019 C 
ATOM      7  C   UNL     1      33.409 -12.039 -23.614  0.00  0.00    +0.082 C 
ATOM      8  C   UNL     1      32.522 -14.235 -22.138  0.00  0.00    +0.015 C 
ATOM      9  C   UNL     1      32.464 -11.864 -22.602  0.00  0.00    +0.072 C 
ATOM     10  C   UNL     1      32.021 -12.962 -21.864  0.00  0.00    +0.011 C 
BRANCH   7  14
ATOM     11  F   UNL     1      32.912 -10.078 -24.889  0.00  0.00    -0.166 F 
ATOM     12  F   UNL     1      34.747 -10.060 -23.733  0.00  0.00    -0.166 F 
ATOM     13  F   UNL     1      34.605 -11.285 -25.526  0.00  0.00    -0.166 F 
ATOM     14  C   UNL     1      33.907 -10.886 -24.424  0.00  0.00    +0.419 C 
ENDBRANCH   7  14
BRANCH   9  16
ATOM     15  N   UNL     1      31.507  -9.519 -22.058  0.00  0.00    -0.191 NA
ATOM     16  C   UNL     1      31.935 -10.569 -22.301  0.00  0.00    +0.100 C 
ENDBRANCH   9  16
ENDBRANCH   2   5
BRANCH   3  17
ATOM     17  C   UNL     1      35.065 -17.856 -23.226  0.00  0.00    +0.197 C 
ATOM     18  C   UNL     1      34.687 -17.866 -24.709  0.00  0.00    +0.043 C 
BRANCH  17  19
ATOM     19  O   UNL     1      36.485 -17.981 -23.139  0.00  0.00    -0.375 OA
ATOM     20  H   UNL     1      36.843 -17.244 -22.618  0.00  0.00    +0.211 HD
ENDBRANCH  17  19
BRANCH  17  21
ATOM     21  C   UNL     1      34.458 -19.066 -22.506  0.00  0.00    +0.241 C 
BRANCH  21  22
ATOM     22  O   UNL     1      35.383 -19.621 -21.575  0.00  0.00    -0.472 OA
BRANCH  22  23
ATOM     23  C   UNL     1      34.864 -20.440 -20.608  0.00  0.00    +0.139 C 
ATOM     24  C   UNL     1      35.714 -21.245 -19.856  0.00  0.00    +0.038 C 
ATOM     25  C   UNL     1      33.490 -20.460 -20.387  0.00  0.00    +0.038 C 
ATOM     26  C   UNL     1      35.184 -22.080 -18.873  0.00  0.00    +0.013 C 
ATOM     27  C   UNL     1      32.961 -21.296 -19.403  0.00  0.00    +0.013 C 
ATOM     28  C   UNL     1      33.808 -22.106 -18.646  0.00  0.00    +0.069 C 
BRANCH  28  30
ATOM     29  N   UNL     1      32.825 -23.657 -16.819  0.00  0.00    -0.191 NA
ATOM     30  C   UNL     1      33.266 -22.962 -17.638  0.00  0.00    +0.100 C 
ENDBRANCH  28  30
ENDBRANCH  22  23
ENDBRANCH  21  22
ENDBRANCH  17  21
ENDBRANCH   3  17
TORSDOF 9
ENDMDL
MODEL 3
REMARK VINA RESULT:     -10.2      2.122      2.646
REMARK  Name = 11326715
REMARK  9 active torsions:
REMARK  status: ('A' for Active; 'I' for Inactive)
REMARK    1  A    between atoms: N_2  and  C_5
REMARK    2  A    between atoms: C_3  and  C_17
REMARK    3  A    between atoms: C_7  and  C_14
REMARK    4  A    between atoms: C_9  and  C_16
REMARK    5  A    between atoms: C_17  and  O_19
REMARK    6  A    between atoms: C_17  and  C_21
REMARK    7  A    between atoms: C_21  and  O_22
REMARK    8  A    between atoms: O_22  and  C_23
REMARK    9  A    between atoms: C_28  and  C_30
REMARK                            x       y       z     vdW  Elec       q    Type
REMARK                         _______ _______ _______ _____ _____    ______ ____
ROOT
ATOM      1  O   UNL     1      34.575 -14.338 -21.516  0.00  0.00    -0.272 OA
ATOM      2  N   UNL     1      33.522 -13.674 -23.499  0.00  0.00    -0.282 N 
ATOM      3  C   UNL     1      34.204 -14.556 -22.668  0.00  0.00    +0.254 C 
ATOM      4  H   UNL     1      33.299 -14.009 -24.397  0.00  0.00    +0.155 HD
ENDROOT
BRANCH   2   5
ATOM      5  C   UNL     1      33.111 -12.352 -23.206  0.00  0.00    +0.050 C 
ATOM      6  C   UNL     1      33.836 -11.288 -23.715  0.00  0.00    +0.019 C 
ATOM      7  C   UNL     1      33.431  -9.985 -23.426  0.00  0.00    +0.082 C 
ATOM      8  C   UNL     1      31.991 -12.151 -22.414  0.00  0.00    +0.015 C 
ATOM      9  C   UNL     1      32.306  -9.765 -22.631  0.00  0.00    +0.072 C 
ATOM     10  C   UNL     1      31.586 -10.848 -22.125  0.00  0.00    +0.011 C 
BRANCH   7  14
ATOM     11  F   UNL     1      33.473  -7.944 -24.672  0.00  0.00    -0.166 F 
ATOM     12  F   UNL     1      34.878  -8.122 -23.030  0.00  0.00    -0.166 F 
ATOM     13  F   UNL     1      35.190  -9.265 -24.854  0.00  0.00    -0.166 F 
ATOM     14  C   UNL     1      34.226  -8.849 -23.984  0.00  0.00    +0.419 C 
ENDBRANCH   7  14
BRANCH   9  16
ATOM     15  N   UNL     1      31.515  -7.363 -22.067  0.00  0.00    -0.191 NA
ATOM     16  C   UNL     1      31.869  -8.438 -22.320  0.00  0.00    +0.100 C 
ENDBRANCH   9  16
ENDBRANCH   2   5
BRANCH   3  17
ATOM     17  C   UNL     1      34.480 -15.915 -23.337  0.00  0.00    +0.197 C 
ATOM     18  C   UNL     1      33.832 -15.985 -24.721  0.00  0.00    +0.043 C 
BRANCH  17  19
ATOM     19  O   UNL     1      35.893 -16.030 -23.512  0.00  0.00    -0.375 OA
ATOM     20  H   UNL     1      36.135 -15.721 -24.399  0.00  0.00    +0.211 HD
ENDBRANCH  17  19
BRANCH  17  21
ATOM     21  C   UNL     1      34.033 -17.099 -22.471  0.00  0.00    +0.241 C 
BRANCH  21  22
ATOM     22  O   UNL     1      35.129 -17.965 -22.187  0.00  0.00    -0.472 OA
BRANCH  22  23
ATOM     23  C   UNL     1      34.871 -19.036 -21.374  0.00  0.00    +0.139 C 
ATOM     24  C   UNL     1      35.926 -19.760 -20.829  0.00  0.00    +0.038 C 
ATOM     25  C   UNL     1      33.553 -19.391 -21.100  0.00  0.00    +0.038 C 
ATOM     26  C   UNL     1      35.662 -20.851 -20.002  0.00  0.00    +0.013 C 
ATOM     27  C   UNL     1      33.290 -20.483 -20.272  0.00  0.00    +0.013 C 
ATOM     28  C   UNL     1      34.345 -21.213 -19.724  0.00  0.00    +0.069 C 
BRANCH  28  30
ATOM     29  N   UNL     1      33.855 -23.240 -18.187  0.00  0.00    -0.191 NA
ATOM     30  C   UNL     1      34.075 -22.332 -18.876  0.00  0.00    +0.100 C 
ENDBRANCH  28  30
ENDBRANCH  22  23
ENDBRANCH  21  22
ENDBRANCH  17  21
ENDBRANCH   3  17
TORSDOF 9
ENDMDL
MODEL 4
REMARK VINA RESULT:     -10.0      3.913      6.168
REMARK  Name = 11326715
REMARK  9 active torsions:
REMARK  status: ('A' for Active; 'I' for Inactive)
REMARK    1  A    between atoms: N_2  and  C_5
REMARK    2  A    between atoms: C_3  and  C_17
REMARK    3  A    between atoms: C_7  and  C_14
REMARK    4  A    between atoms: C_9  and  C_16
REMARK    5  A    between atoms: C_17  and  O_19
REMARK    6  A    between atoms: C_17  and  C_21
REMARK    7  A    between atoms: C_21  and  O_22
REMARK    8  A    between atoms: O_22  and  C_23
REMARK    9  A    between atoms: C_28  and  C_30
REMARK                            x       y       z     vdW  Elec       q    Type
REMARK                         _______ _______ _______ _____ _____    ______ ____
ROOT
ATOM      1  O   UNL     1      33.489 -20.070 -20.416  0.00  0.00    -0.272 OA
ATOM      2  N   UNL     1      35.446 -19.752 -21.663  0.00  0.00    -0.282 N 
ATOM      3  C   UNL     1      34.672 -20.311 -20.651  0.00  0.00    +0.254 C 
ATOM      4  H   UNL     1      36.380 -20.056 -21.712  0.00  0.00    +0.155 HD
ENDROOT
BRANCH   2   5
ATOM      5  C   UNL     1      35.047 -18.799 -22.630  0.00  0.00    +0.050 C 
ATOM      6  C   UNL     1      34.790 -17.498 -22.233  0.00  0.00    +0.019 C 
ATOM      7  C   UNL     1      34.397 -16.558 -23.187  0.00  0.00    +0.082 C 
ATOM      8  C   UNL     1      34.922 -19.189 -23.954  0.00  0.00    +0.015 C 
ATOM      9  C   UNL     1      34.267 -16.934 -24.524  0.00  0.00    +0.072 C 
ATOM     10  C   UNL     1      34.530 -18.250 -24.907  0.00  0.00    +0.011 C 
BRANCH   7  14
ATOM     11  F   UNL     1      34.756 -14.214 -23.493  0.00  0.00    -0.166 F 
ATOM     12  F   UNL     1      32.800 -14.825 -22.780  0.00  0.00    -0.166 F 
ATOM     13  F   UNL     1      34.522 -14.934 -21.455  0.00  0.00    -0.166 F 
ATOM     14  C   UNL     1      34.123 -15.158 -22.740  0.00  0.00    +0.419 C 
ENDBRANCH   7  14
BRANCH   9  16
ATOM     15  N   UNL     1      33.541 -15.223 -26.328  0.00  0.00    -0.191 NA
ATOM     16  C   UNL     1      33.866 -15.990 -25.521  0.00  0.00    +0.100 C 
ENDBRANCH   9  16
ENDBRANCH   2   5
BRANCH   3  17
ATOM     17  C   UNL     1      35.454 -21.319 -19.788  0.00  0.00    +0.197 C 
ATOM     18  C   UNL     1      36.517 -22.040 -20.619  0.00  0.00    +0.043 C 
BRANCH  17  19
ATOM     19  O   UNL     1      36.127 -20.581 -18.768  0.00  0.00    -0.375 OA
ATOM     20  H   UNL     1      35.497 -19.989 -18.328  0.00  0.00    +0.211 HD
ENDBRANCH  17  19
BRANCH  17  21
ATOM     21  C   UNL     1      34.538 -22.329 -19.087  0.00  0.00    +0.241 C 
BRANCH  21  22
ATOM     22  O   UNL     1      35.092 -22.739 -17.840  0.00  0.00    -0.472 OA
BRANCH  22  23
ATOM     23  C   UNL     1      34.203 -23.058 -16.849  0.00  0.00    +0.139 C 
ATOM     24  C   UNL     1      32.841 -23.101 -17.130  0.00  0.00    +0.038 C 
ATOM     25  C   UNL     1      34.670 -23.335 -15.568  0.00  0.00    +0.038 C 
ATOM     26  C   UNL     1      31.936 -23.424 -16.120  0.00  0.00    +0.013 C 
ATOM     27  C   UNL     1      33.764 -23.659 -14.557  0.00  0.00    +0.013 C 
ATOM     28  C   UNL     1      32.397 -23.703 -14.834  0.00  0.00    +0.069 C 
BRANCH  28  30
ATOM     29  N   UNL     1      30.715 -24.304 -12.958  0.00  0.00    -0.191 NA
ATOM     30  C   UNL     1      31.469 -24.035 -13.798  0.00  0.00    +0.100 C 
ENDBRANCH  28  30
ENDBRANCH  22  23
ENDBRANCH  21  22
ENDBRANCH  17  21
ENDBRANCH   3  17
TORSDOF 9
ENDMDL
MODEL 5
REMARK VINA RESULT:      -9.9      4.100      6.378
REMARK  Name = 11326715
REMARK  9 active torsions:
REMARK  status: ('A' for Active; 'I' for Inactive)
REMARK    1  A    between atoms: N_2  and  C_5
REMARK    2  A    between atoms: C_3  and  C_17
REMARK    3  A    between atoms: C_7  and  C_14
REMARK    4  A    between atoms: C_9  and  C_16
REMARK    5  A    between atoms: C_17  and  O_19
REMARK    6  A    between atoms: C_17  and  C_21
REMARK    7  A    between atoms: C_21  and  O_22
REMARK    8  A    between atoms: O_22  and  C_23
REMARK    9  A    between atoms: C_28  and  C_30
REMARK                            x       y       z     vdW  Elec       q    Type
REMARK                         _______ _______ _______ _____ _____    ______ ____
ROOT
ATOM      1  O   UNL     1      33.516 -20.152 -20.259  0.00  0.00    -0.272 OA
ATOM      2  N   UNL     1      35.579 -19.197 -20.823  0.00  0.00    -0.282 N 
ATOM      3  C   UNL     1      34.746 -20.159 -20.262  0.00  0.00    +0.254 C 
ATOM      4  H   UNL     1      36.546 -19.356 -20.737  0.00  0.00    +0.155 HD
ENDROOT
BRANCH   2   5
ATOM      5  C   UNL     1      35.199 -18.015 -21.504  0.00  0.00    +0.050 C 
ATOM      6  C   UNL     1      35.011 -18.054 -22.875  0.00  0.00    +0.019 C 
ATOM      7  C   UNL     1      34.637 -16.889 -23.546  0.00  0.00    +0.082 C 
ATOM      8  C   UNL     1      35.024 -16.845 -20.783  0.00  0.00    +0.015 C 
ATOM      9  C   UNL     1      34.455 -15.703 -22.835  0.00  0.00    +0.072 C 
ATOM     10  C   UNL     1      34.649 -15.681 -21.453  0.00  0.00    +0.011 C 
BRANCH   7  14
ATOM     11  F   UNL     1      33.290 -16.346 -25.446  0.00  0.00    -0.166 F 
ATOM     12  F   UNL     1      35.440 -16.348 -25.732  0.00  0.00    -0.166 F 
ATOM     13  F   UNL     1      34.375 -18.230 -25.492  0.00  0.00    -0.166 F 
ATOM     14  C   UNL     1      34.439 -16.950 -25.026  0.00  0.00    +0.419 C 
ENDBRANCH   7  14
BRANCH   9  16
ATOM     15  N   UNL     1      33.759 -13.516 -24.037  0.00  0.00    -0.191 NA
ATOM     16  C   UNL     1      34.072 -14.495 -23.499  0.00  0.00    +0.100 C 
ENDBRANCH   9  16
ENDBRANCH   2   5
BRANCH   3  17
ATOM     17  C   UNL     1      35.526 -21.311 -19.601  0.00  0.00    +0.197 C 
ATOM     18  C   UNL     1      36.465 -21.983 -20.606  0.00  0.00    +0.043 C 
BRANCH  17  19
ATOM     19  O   UNL     1      36.329 -20.748 -18.564  0.00  0.00    -0.375 OA
ATOM     20  H   UNL     1      36.669 -19.885 -18.851  0.00  0.00    +0.211 HD
ENDBRANCH  17  19
BRANCH  17  21
ATOM     21  C   UNL     1      34.604 -22.347 -18.948  0.00  0.00    +0.241 C 
BRANCH  21  22
ATOM     22  O   UNL     1      35.131 -22.781 -17.697  0.00  0.00    -0.472 OA
BRANCH  22  23
ATOM     23  C   UNL     1      34.221 -23.099 -16.724  0.00  0.00    +0.139 C 
ATOM     24  C   UNL     1      34.663 -23.447 -15.452  0.00  0.00    +0.038 C 
ATOM     25  C   UNL     1      32.861 -23.071 -17.018  0.00  0.00    +0.038 C 
ATOM     26  C   UNL     1      33.735 -23.771 -14.463  0.00  0.00    +0.013 C 
ATOM     27  C   UNL     1      31.933 -23.396 -16.027  0.00  0.00    +0.013 C 
ATOM     28  C   UNL     1      32.371 -23.746 -14.750  0.00  0.00    +0.069 C 
BRANCH  28  30
ATOM     29  N   UNL     1      30.649 -24.349 -12.911  0.00  0.00    -0.191 NA
ATOM     30  C   UNL     1      31.421 -24.079 -13.735  0.00  0.00    +0.100 C 
ENDBRANCH  28  30
ENDBRANCH  22  23
ENDBRANCH  21  22
ENDBRANCH  17  21
ENDBRANCH   3  17
TORSDOF 9
ENDMDL
MODEL 6
REMARK VINA RESULT:      -9.7      1.366      1.988
REMARK  Name = 11326715
REMARK  9 active torsions:
REMARK  status: ('A' for Active; 'I' for Inactive)
REMARK    1  A    between atoms: N_2  and  C_5
REMARK    2  A    between atoms: C_3  and  C_17
REMARK    3  A    between atoms: C_7  and  C_14
REMARK    4  A    between atoms: C_9  and  C_16
REMARK    5  A    between atoms: C_17  and  O_19
REMARK    6  A    between atoms: C_17  and  C_21
REMARK    7  A    between atoms: C_21  and  O_22
REMARK    8  A    between atoms: O_22  and  C_23
REMARK    9  A    between atoms: C_28  and  C_30
REMARK                            x       y       z     vdW  Elec       q    Type
REMARK                         _______ _______ _______ _____ _____    ______ ____
ROOT
ATOM      1  O   UNL     1      34.361 -14.168 -21.702  0.00  0.00    -0.272 OA
ATOM      2  N   UNL     1      34.047 -13.566 -23.943  0.00  0.00    -0.282 N 
ATOM      3  C   UNL     1      34.297 -14.448 -22.898  0.00  0.00    +0.254 C 
ATOM      4  H   UNL     1      34.029 -13.957 -24.846  0.00  0.00    +0.155 HD
ENDROOT
BRANCH   2   5
ATOM      5  C   UNL     1      33.815 -12.172 -23.861  0.00  0.00    +0.050 C 
ATOM      6  C   UNL     1      32.740 -11.706 -23.123  0.00  0.00    +0.019 C 
ATOM      7  C   UNL     1      32.512 -10.332 -23.042  0.00  0.00    +0.082 C 
ATOM      8  C   UNL     1      34.668 -11.303 -24.524  0.00  0.00    +0.015 C 
ATOM      9  C   UNL     1      33.361  -9.444 -23.702  0.00  0.00    +0.072 C 
ATOM     10  C   UNL     1      34.439  -9.930 -24.443  0.00  0.00    +0.011 C 
BRANCH   7  14
ATOM     11  F   UNL     1      30.614 -10.854 -21.684  0.00  0.00    -0.166 F 
ATOM     12  F   UNL     1      31.703  -9.043 -21.197  0.00  0.00    -0.166 F 
ATOM     13  F   UNL     1      30.467  -9.119 -22.986  0.00  0.00    -0.166 F 
ATOM     14  C   UNL     1      31.347  -9.848 -22.241  0.00  0.00    +0.419 C 
ENDBRANCH   7  14
BRANCH   9  16
ATOM     15  N   UNL     1      32.975  -6.885 -23.582  0.00  0.00    -0.191 NA
ATOM     16  C   UNL     1      33.148  -8.031 -23.635  0.00  0.00    +0.100 C 
ENDBRANCH   9  16
ENDBRANCH   2   5
BRANCH   3  17
ATOM     17  C   UNL     1      34.501 -15.898 -23.376  0.00  0.00    +0.197 C 
ATOM     18  C   UNL     1      33.793 -16.138 -24.711  0.00  0.00    +0.043 C 
BRANCH  17  19
ATOM     19  O   UNL     1      35.900 -16.089 -23.585  0.00  0.00    -0.375 OA
ATOM     20  H   UNL     1      36.233 -16.755 -22.963  0.00  0.00    +0.211 HD
ENDBRANCH  17  19
BRANCH  17  21
ATOM     21  C   UNL     1      34.054 -16.930 -22.334  0.00  0.00    +0.241 C 
BRANCH  21  22
ATOM     22  O   UNL     1      34.470 -18.241 -22.704  0.00  0.00    -0.472 OA
BRANCH  22  23
ATOM     23  C   UNL     1      34.430 -19.198 -21.725  0.00  0.00    +0.139 C 
ATOM     24  C   UNL     1      33.207 -19.585 -21.189  0.00  0.00    +0.038 C 
ATOM     25  C   UNL     1      35.615 -19.772 -21.274  0.00  0.00    +0.038 C 
ATOM     26  C   UNL     1      33.166 -20.558 -20.190  0.00  0.00    +0.013 C 
ATOM     27  C   UNL     1      35.573 -20.746 -20.276  0.00  0.00    +0.013 C 
ATOM     28  C   UNL     1      34.349 -21.139 -19.733  0.00  0.00    +0.069 C 
BRANCH  28  30
ATOM     29  N   UNL     1      34.273 -22.946 -17.879  0.00  0.00    -0.191 NA
ATOM     30  C   UNL     1      34.307 -22.136 -18.710  0.00  0.00    +0.100 C 
ENDBRANCH  28  30
ENDBRANCH  22  23
ENDBRANCH  21  22
ENDBRANCH  17  21
ENDBRANCH   3  17
TORSDOF 9
ENDMDL
MODEL 7
REMARK VINA RESULT:      -9.7      6.721      9.475
REMARK  Name = 11326715
REMARK  9 active torsions:
REMARK  status: ('A' for Active; 'I' for Inactive)
REMARK    1  A    between atoms: N_2  and  C_5
REMARK    2  A    between atoms: C_3  and  C_17
REMARK    3  A    between atoms: C_7  and  C_14
REMARK    4  A    between atoms: C_9  and  C_16
REMARK    5  A    between atoms: C_17  and  O_19
REMARK    6  A    between atoms: C_17  and  C_21
REMARK    7  A    between atoms: C_21  and  O_22
REMARK    8  A    between atoms: O_22  and  C_23
REMARK    9  A    between atoms: C_28  and  C_30
REMARK                            x       y       z     vdW  Elec       q    Type
REMARK                         _______ _______ _______ _____ _____    ______ ____
ROOT
ATOM      1  O   UNL     1      37.184 -21.624 -16.024  0.00  0.00    -0.272 OA
ATOM      2  N   UNL     1      35.523 -22.654 -17.316  0.00  0.00    -0.282 N 
ATOM      3  C   UNL     1      36.341 -22.502 -16.201  0.00  0.00    +0.254 C 
ATOM      4  H   UNL     1      34.900 -23.415 -17.296  0.00  0.00    +0.155 HD
ENDROOT
BRANCH   2   5
ATOM      5  C   UNL     1      35.482 -21.842 -18.475  0.00  0.00    +0.050 C 
ATOM      6  C   UNL     1      34.272 -21.313 -18.888  0.00  0.00    +0.019 C 
ATOM      7  C   UNL     1      34.232 -20.513 -20.031  0.00  0.00    +0.082 C 
ATOM      8  C   UNL     1      36.655 -21.596 -19.171  0.00  0.00    +0.015 C 
ATOM      9  C   UNL     1      35.403 -20.254 -20.742  0.00  0.00    +0.072 C 
ATOM     10  C   UNL     1      36.615 -20.796 -20.312  0.00  0.00    +0.011 C 
BRANCH   7  14
ATOM     11  F   UNL     1      32.414 -20.541 -21.585  0.00  0.00    -0.166 F 
ATOM     12  F   UNL     1      31.936 -20.078 -19.521  0.00  0.00    -0.166 F 
ATOM     13  F   UNL     1      32.986 -18.618 -20.746  0.00  0.00    -0.166 F 
ATOM     14  C   UNL     1      32.916 -19.950 -20.463  0.00  0.00    +0.419 C 
ENDBRANCH   7  14
BRANCH   9  16
ATOM     15  N   UNL     1      35.376 -18.774 -22.868  0.00  0.00    -0.191 NA
ATOM     16  C   UNL     1      35.389 -19.437 -21.917  0.00  0.00    +0.100 C 
ENDBRANCH   9  16
ENDBRANCH   2   5
BRANCH   3  17
ATOM     17  C   UNL     1      36.100 -23.585 -15.132  0.00  0.00    +0.197 C 
ATOM     18  C   UNL     1      37.324 -24.491 -14.985  0.00  0.00    +0.043 C 
BRANCH  17  19
ATOM     19  O   UNL     1      35.899 -22.920 -13.884  0.00  0.00    -0.375 OA
ATOM     20  H   UNL     1      36.751 -22.607 -13.544  0.00  0.00    +0.211 HD
ENDBRANCH  17  19
BRANCH  17  21
ATOM     21  C   UNL     1      34.842 -24.417 -15.410  0.00  0.00    +0.241 C 
BRANCH  21  22
ATOM     22  O   UNL     1      33.840 -24.169 -14.428  0.00  0.00    -0.472 OA
BRANCH  22  23
ATOM     23  C   UNL     1      32.625 -23.733 -14.887  0.00  0.00    +0.139 C 
ATOM     24  C   UNL     1      31.546 -23.649 -14.013  0.00  0.00    +0.038 C 
ATOM     25  C   UNL     1      32.481 -23.379 -16.225  0.00  0.00    +0.038 C 
ATOM     26  C   UNL     1      30.310 -23.207 -14.482  0.00  0.00    +0.013 C 
ATOM     27  C   UNL     1      31.244 -22.936 -16.693  0.00  0.00    +0.013 C 
ATOM     28  C   UNL     1      30.158 -22.850 -15.821  0.00  0.00    +0.069 C 
BRANCH  28  30
ATOM     29  N   UNL     1      27.860 -22.028 -16.690  0.00  0.00    -0.191 NA
ATOM     30  C   UNL     1      28.890 -22.397 -16.301  0.00  0.00    +0.100 C 
ENDBRANCH  28  30
ENDBRANCH  22  23
ENDBRANCH  21  22
ENDBRANCH  17  21
ENDBRANCH   3  17
TORSDOF 9
ENDMDL
MODEL 8
REMARK VINA RESULT:      -9.6      5.670     10.718
REMARK  Name = 11326715
REMARK  9 active torsions:
REMARK  status: ('A' for Active; 'I' for Inactive)
REMARK    1  A    between atoms: N_2  and  C_5
REMARK    2  A    between atoms: C_3  and  C_17
REMARK    3  A    between atoms: C_7  and  C_14
REMARK    4  A    between atoms: C_9  and  C_16
REMARK    5  A    between atoms: C_17  and  O_19
REMARK    6  A    between atoms: C_17  and  C_21
REMARK    7  A    between atoms: C_21  and  O_22
REMARK    8  A    between atoms: O_22  and  C_23
REMARK    9  A    between atoms: C_28  and  C_30
REMARK                            x       y       z     vdW  Elec       q    Type
REMARK                         _______ _______ _______ _____ _____    ______ ____
ROOT
ATOM      1  O   UNL     1      35.826 -22.399 -17.315  0.00  0.00    -0.272 OA
ATOM      2  N   UNL     1      33.614 -22.509 -18.074  0.00  0.00    -0.282 N 
ATOM      3  C   UNL     1      34.980 -22.281 -18.199  0.00  0.00    +0.254 C 
ATOM      4  H   UNL     1      33.074 -22.367 -18.884  0.00  0.00    +0.155 HD
ENDROOT
BRANCH   2   5
ATOM      5  C   UNL     1      32.908 -22.921 -16.918  0.00  0.00    +0.050 C 
ATOM      6  C   UNL     1      31.538 -22.734 -16.858  0.00  0.00    +0.019 C 
ATOM      7  C   UNL     1      30.843 -23.140 -15.718  0.00  0.00    +0.082 C 
ATOM      8  C   UNL     1      33.605 -23.502 -15.870  0.00  0.00    +0.015 C 
ATOM      9  C   UNL     1      31.529 -23.728 -14.655  0.00  0.00    +0.072 C 
ATOM     10  C   UNL     1      32.911 -23.908 -14.731  0.00  0.00    +0.011 C 
BRANCH   7  14
ATOM     11  F   UNL     1      28.664 -24.061 -15.369  0.00  0.00    -0.166 F 
ATOM     12  F   UNL     1      28.976 -22.009 -14.742  0.00  0.00    -0.166 F 
ATOM     13  F   UNL     1      28.861 -22.492 -16.861  0.00  0.00    -0.166 F 
ATOM     14  C   UNL     1      29.363 -22.931 -15.671  0.00  0.00    +0.419 C 
ENDBRANCH   7  14
BRANCH   9  16
ATOM     15  N   UNL     1      30.281 -24.499 -12.520  0.00  0.00    -0.191 NA
ATOM     16  C   UNL     1      30.840 -24.153 -13.476  0.00  0.00    +0.100 C 
ENDBRANCH   9  16
ENDBRANCH   2   5
BRANCH   3  17
ATOM     17  C   UNL     1      35.384 -21.841 -19.619  0.00  0.00    +0.197 C 
ATOM     18  C   UNL     1      36.852 -21.411 -19.660  0.00  0.00    +0.043 C 
BRANCH  17  19
ATOM     19  O   UNL     1      35.238 -22.972 -20.478  0.00  0.00    -0.375 OA
ATOM     20  H   UNL     1      34.351 -23.348 -20.370  0.00  0.00    +0.211 HD
ENDBRANCH  17  19
BRANCH  17  21
ATOM     21  C   UNL     1      34.480 -20.733 -20.171  0.00  0.00    +0.241 C 
BRANCH  21  22
ATOM     22  O   UNL     1      35.194 -19.506 -20.295  0.00  0.00    -0.472 OA
BRANCH  22  23
ATOM     23  C   UNL     1      35.019 -18.808 -21.459  0.00  0.00    +0.139 C 
ATOM     24  C   UNL     1      34.815 -19.494 -22.652  0.00  0.00    +0.038 C 
ATOM     25  C   UNL     1      35.048 -17.417 -21.439  0.00  0.00    +0.038 C 
ATOM     26  C   UNL     1      34.637 -18.783 -23.838  0.00  0.00    +0.013 C 
ATOM     27  C   UNL     1      34.870 -16.705 -22.626  0.00  0.00    +0.013 C 
ATOM     28  C   UNL     1      34.665 -17.389 -23.826  0.00  0.00    +0.069 C 
BRANCH  28  30
ATOM     29  N   UNL     1      34.335 -16.067 -26.029  0.00  0.00    -0.191 NA
ATOM     30  C   UNL     1      34.483 -16.660 -25.042  0.00  0.00    +0.100 C 
ENDBRANCH  28  30
ENDBRANCH  22  23
ENDBRANCH  21  22
ENDBRANCH  17  21
ENDBRANCH   3  17
TORSDOF 9
ENDMDL
MODEL 9
REMARK VINA RESULT:      -9.5      7.005     12.099
REMARK  Name = 11326715
REMARK  9 active torsions:
REMARK  status: ('A' for Active; 'I' for Inactive)
REMARK    1  A    between atoms: N_2  and  C_5
REMARK    2  A    between atoms: C_3  and  C_17
REMARK    3  A    between atoms: C_7  and  C_14
REMARK    4  A    between atoms: C_9  and  C_16
REMARK    5  A    between atoms: C_17  and  O_19
REMARK    6  A    between atoms: C_17  and  C_21
REMARK    7  A    between atoms: C_21  and  O_22
REMARK    8  A    between atoms: O_22  and  C_23
REMARK    9  A    between atoms: C_28  and  C_30
REMARK                            x       y       z     vdW  Elec       q    Type
REMARK                         _______ _______ _______ _____ _____    ______ ____
ROOT
ATOM      1  O   UNL     1      33.436 -22.774 -17.712  0.00  0.00    -0.272 OA
ATOM      2  N   UNL     1      35.683 -22.728 -17.051  0.00  0.00    -0.282 N 
ATOM      3  C   UNL     1      34.624 -22.548 -17.936  0.00  0.00    +0.254 C 
ATOM      4  H   UNL     1      36.576 -22.498 -17.392  0.00  0.00    +0.155 HD
ENDROOT
BRANCH   2   5
ATOM      5  C   UNL     1      35.625 -23.203 -15.719  0.00  0.00    +0.050 C 
ATOM      6  C   UNL     1      36.781 -23.664 -15.113  0.00  0.00    +0.019 C 
ATOM      7  C   UNL     1      36.723 -24.132 -13.800  0.00  0.00    +0.082 C 
ATOM      8  C   UNL     1      34.411 -23.196 -15.050  0.00  0.00    +0.015 C 
ATOM      9  C   UNL     1      35.510 -24.132 -13.112  0.00  0.00    +0.072 C 
ATOM     10  C   UNL     1      34.353 -23.663 -13.737  0.00  0.00    +0.011 C 
BRANCH   7  14
ATOM     11  F   UNL     1      37.882 -25.898 -12.679  0.00  0.00    -0.166 F 
ATOM     12  F   UNL     1      39.049 -24.647 -14.013  0.00  0.00    -0.166 F 
ATOM     13  F   UNL     1      38.367 -23.857 -12.104  0.00  0.00    -0.166 F 
ATOM     14  C   UNL     1      37.982 -24.626 -13.162  0.00  0.00    +0.419 C 
ENDBRANCH   7  14
BRANCH   9  16
ATOM     15  N   UNL     1      35.353 -24.991 -10.673  0.00  0.00    -0.191 NA
ATOM     16  C   UNL     1      35.424 -24.606 -11.765  0.00  0.00    +0.100 C 
ENDBRANCH   9  16
ENDBRANCH   2   5
BRANCH   3  17
ATOM     17  C   UNL     1      35.077 -22.011 -19.306  0.00  0.00    +0.197 C 
ATOM     18  C   UNL     1      36.546 -21.586 -19.269  0.00  0.00    +0.043 C 
BRANCH  17  19
ATOM     19  O   UNL     1      34.956 -23.078 -20.248  0.00  0.00    -0.375 OA
ATOM     20  H   UNL     1      34.782 -23.907 -19.776  0.00  0.00    +0.211 HD
ENDBRANCH  17  19
BRANCH  17  21
ATOM     21  C   UNL     1      34.195 -20.862 -19.809  0.00  0.00    +0.241 C 
BRANCH  21  22
ATOM     22  O   UNL     1      34.945 -19.656 -19.923  0.00  0.00    -0.472 OA
BRANCH  22  23
ATOM     23  C   UNL     1      34.895 -19.015 -21.132  0.00  0.00    +0.139 C 
ATOM     24  C   UNL     1      34.748 -19.755 -22.301  0.00  0.00    +0.038 C 
ATOM     25  C   UNL     1      34.994 -17.627 -21.181  0.00  0.00    +0.038 C 
ATOM     26  C   UNL     1      34.699 -19.101 -23.532  0.00  0.00    +0.013 C 
ATOM     27  C   UNL     1      34.945 -16.974 -22.413  0.00  0.00    +0.013 C 
ATOM     28  C   UNL     1      34.798 -17.711 -23.588  0.00  0.00    +0.069 C 
BRANCH  28  30
ATOM     29  N   UNL     1      34.706 -16.498 -25.875  0.00  0.00    -0.191 NA
ATOM     30  C   UNL     1      34.747 -17.042 -24.850  0.00  0.00    +0.100 C 
ENDBRANCH  28  30
ENDBRANCH  22  23
ENDBRANCH  21  22
ENDBRANCH  17  21
ENDBRANCH   3  17
TORSDOF 9
ENDMDL
