MODEL 1
REMARK VINA RESULT:      -8.7      0.000      0.000
REMARK  Name = 736027
REMARK  4 active torsions:
REMARK  status: ('A' for Active; 'I' for Inactive)
REMARK    1  A    between atoms: C_1  and  C_8
REMARK    2  A    between atoms: C_2  and  N_18
REMARK    3  A    between atoms: C_10  and  C_13
REMARK    4  A    between atoms: C_13  and  O_14
REMARK                            x       y       z     vdW  Elec       q    Type
REMARK                         _______ _______ _______ _____ _____    ______ ____
ROOT
ATOM      1  C   UNL     1      34.343 -18.598 -22.595  0.00  0.00    +0.057 C 
ATOM      2  C   UNL     1      34.477 -17.222 -22.407  0.00  0.00    +0.146 C 
ATOM      3  C   UNL     1      34.510 -19.147 -23.866  0.00  0.00    +0.005 C 
ATOM      4  C   UNL     1      34.777 -16.397 -23.490  0.00  0.00    +0.024 C 
ATOM      5  C   UNL     1      34.810 -18.321 -24.949  0.00  0.00    +0.000 C 
ATOM      6  C   UNL     1      34.943 -16.945 -24.761  0.00  0.00    +0.002 C 
ENDROOT
BRANCH   1   8
ATOM      7  O   UNL     1      35.100 -20.116 -20.950  0.00  0.00    -0.447 OA
ATOM      8  C   UNL     1      34.033 -19.485 -21.494  0.00  0.00    +0.147 C 
ATOM      9  C   UNL     1      32.871 -19.838 -20.865  0.00  0.00    +0.041 C 
ATOM     10  C   UNL     1      34.611 -20.892 -19.948  0.00  0.00    +0.220 C 
ATOM     11  C   UNL     1      33.245 -20.757 -19.855  0.00  0.00    +0.047 C 
BRANCH  10  13
ATOM     12  O   UNL     1      36.773 -21.495 -19.119  0.00  0.00    -0.242 OA
ATOM     13  C   UNL     1      35.535 -21.674 -19.200  0.00  0.00    +0.373 C 
BRANCH  13  14
ATOM     14  O   UNL     1      34.952 -22.714 -18.518  0.00  0.00    -0.475 OA
ATOM     15  H   UNL     1      34.179 -22.566 -18.009  0.00  0.00    +0.296 HD
ENDBRANCH  13  14
ENDBRANCH  10  13
ENDBRANCH   1   8
BRANCH   2  18
ATOM     16  O   UNL     1      33.208 -16.116 -20.831  0.00  0.00    -0.126 OA
ATOM     17  O   UNL     1      35.281 -16.633 -20.326  0.00  0.00    -0.126 OA
ATOM     18  N   UNL     1      34.314 -16.627 -21.123  0.00  0.00    +0.058 N 
ENDBRANCH   2  18
TORSDOF 4
ENDMDL
MODEL 2
REMARK VINA RESULT:      -8.2      1.367      1.893
REMARK  Name = 736027
REMARK  4 active torsions:
REMARK  status: ('A' for Active; 'I' for Inactive)
REMARK    1  A    between atoms: C_1  and  C_8
REMARK    2  A    between atoms: C_2  and  N_18
REMARK    3  A    between atoms: C_10  and  C_13
REMARK    4  A    between atoms: C_13  and  O_14
REMARK                            x       y       z     vdW  Elec       q    Type
REMARK                         _______ _______ _______ _____ _____    ______ ____
ROOT
ATOM      1  C   UNL     1      34.746 -17.746 -22.819  0.00  0.00    +0.057 C 
ATOM      2  C   UNL     1      34.275 -16.480 -22.468  0.00  0.00    +0.146 C 
ATOM      3  C   UNL     1      34.977 -18.056 -24.159  0.00  0.00    +0.005 C 
ATOM      4  C   UNL     1      34.034 -15.527 -23.457  0.00  0.00    +0.024 C 
ATOM      5  C   UNL     1      34.735 -17.102 -25.148  0.00  0.00    +0.000 C 
ATOM      6  C   UNL     1      34.263 -15.837 -24.797  0.00  0.00    +0.002 C 
ENDROOT
BRANCH   1   8
ATOM      7  O   UNL     1      33.915 -19.424 -21.380  0.00  0.00    -0.447 OA
ATOM      8  C   UNL     1      35.008 -18.759 -21.821  0.00  0.00    +0.147 C 
ATOM      9  C   UNL     1      36.145 -19.206 -21.205  0.00  0.00    +0.041 C 
ATOM     10  C   UNL     1      34.361 -20.320 -20.460  0.00  0.00    +0.220 C 
ATOM     11  C   UNL     1      35.725 -20.225 -20.316  0.00  0.00    +0.047 C 
BRANCH  10  13
ATOM     12  O   UNL     1      33.528 -22.383 -19.580  0.00  0.00    -0.242 OA
ATOM     13  C   UNL     1      33.402 -21.161 -19.830  0.00  0.00    +0.373 C 
BRANCH  13  14
ATOM     14  O   UNL     1      32.242 -20.511 -19.483  0.00  0.00    -0.475 OA
ATOM     15  H   UNL     1      31.465 -21.003 -19.303  0.00  0.00    +0.296 HD
ENDBRANCH  13  14
ENDBRANCH  10  13
ENDBRANCH   1   8
BRANCH   2  18
ATOM     16  O   UNL     1      32.855 -16.179 -20.676  0.00  0.00    -0.126 OA
ATOM     17  O   UNL     1      34.994 -15.780 -20.391  0.00  0.00    -0.126 OA
ATOM     18  N   UNL     1      34.029 -16.129 -21.110  0.00  0.00    +0.058 N 
ENDBRANCH   2  18
TORSDOF 4
ENDMDL
MODEL 3
REMARK VINA RESULT:      -8.0      7.353      9.266
REMARK  Name = 736027
REMARK  4 active torsions:
REMARK  status: ('A' for Active; 'I' for Inactive)
REMARK    1  A    between atoms: C_1  and  C_8
REMARK    2  A    between atoms: C_2  and  N_18
REMARK    3  A    between atoms: C_10  and  C_13
REMARK    4  A    between atoms: C_13  and  O_14
REMARK                            x       y       z     vdW  Elec       q    Type
REMARK                         _______ _______ _______ _____ _____    ______ ____
ROOT
ATOM      1  C   UNL     1      32.027 -23.567 -15.968  0.00  0.00    +0.057 C 
ATOM      2  C   UNL     1      32.901 -23.579 -14.881  0.00  0.00    +0.146 C 
ATOM      3  C   UNL     1      32.506 -23.265 -17.243  0.00  0.00    +0.005 C 
ATOM      4  C   UNL     1      34.252 -23.290 -15.068  0.00  0.00    +0.024 C 
ATOM      5  C   UNL     1      33.858 -22.976 -17.430  0.00  0.00    +0.000 C 
ATOM      6  C   UNL     1      34.732 -22.988 -16.342  0.00  0.00    +0.002 C 
ENDROOT
BRANCH   1   8
ATOM      7  O   UNL     1      29.784 -22.838 -16.102  0.00  0.00    -0.447 OA
ATOM      8  C   UNL     1      30.620 -23.862 -15.811  0.00  0.00    +0.147 C 
ATOM      9  C   UNL     1      29.927 -24.976 -15.422  0.00  0.00    +0.041 C 
ATOM     10  C   UNL     1      28.525 -23.306 -15.896  0.00  0.00    +0.220 C 
ATOM     11  C   UNL     1      28.559 -24.615 -15.477  0.00  0.00    +0.047 C 
BRANCH  10  13
ATOM     12  O   UNL     1      26.382 -22.334 -15.462  0.00  0.00    -0.242 OA
ATOM     13  C   UNL     1      27.439 -22.418 -16.132  0.00  0.00    +0.373 C 
BRANCH  13  14
ATOM     14  O   UNL     1      27.626 -21.593 -17.214  0.00  0.00    -0.475 OA
ATOM     15  H   UNL     1      28.121 -20.803 -17.120  0.00  0.00    +0.296 HD
ENDBRANCH  13  14
ENDBRANCH  10  13
ENDBRANCH   1   8
BRANCH   2  18
ATOM     16  O   UNL     1      32.585 -25.051 -13.133  0.00  0.00    -0.126 OA
ATOM     17  O   UNL     1      31.924 -22.973 -12.881  0.00  0.00    -0.126 OA
ATOM     18  N   UNL     1      32.447 -23.883 -13.565  0.00  0.00    +0.058 N 
ENDBRANCH   2  18
TORSDOF 4
ENDMDL
MODEL 4
REMARK VINA RESULT:      -7.9      1.814      2.524
REMARK  Name = 736027
REMARK  4 active torsions:
REMARK  status: ('A' for Active; 'I' for Inactive)
REMARK    1  A    between atoms: C_1  and  C_8
REMARK    2  A    between atoms: C_2  and  N_18
REMARK    3  A    between atoms: C_10  and  C_13
REMARK    4  A    between atoms: C_13  and  O_14
REMARK                            x       y       z     vdW  Elec       q    Type
REMARK                         _______ _______ _______ _____ _____    ______ ____
ROOT
ATOM      1  C   UNL     1      34.176 -17.325 -21.535  0.00  0.00    +0.057 C 
ATOM      2  C   UNL     1      34.644 -17.102 -22.830  0.00  0.00    +0.146 C 
ATOM      3  C   UNL     1      33.894 -16.245 -20.700  0.00  0.00    +0.005 C 
ATOM      4  C   UNL     1      34.830 -15.798 -23.289  0.00  0.00    +0.024 C 
ATOM      5  C   UNL     1      34.081 -14.941 -21.159  0.00  0.00    +0.000 C 
ATOM      6  C   UNL     1      34.550 -14.717 -22.453  0.00  0.00    +0.002 C 
ENDROOT
BRANCH   1   8
ATOM      7  O   UNL     1      35.090 -19.295 -20.603  0.00  0.00    -0.447 OA
ATOM      8  C   UNL     1      33.969 -18.664 -21.025  0.00  0.00    +0.147 C 
ATOM      9  C   UNL     1      32.865 -19.456 -20.873  0.00  0.00    +0.041 C 
ATOM     10  C   UNL     1      34.695 -20.520 -20.168  0.00  0.00    +0.220 C 
ATOM     11  C   UNL     1      33.336 -20.669 -20.314  0.00  0.00    +0.047 C 
BRANCH  10  13
ATOM     12  O   UNL     1      36.930 -21.307 -19.839  0.00  0.00    -0.242 OA
ATOM     13  C   UNL     1      35.692 -21.400 -19.664  0.00  0.00    +0.373 C 
BRANCH  13  14
ATOM     14  O   UNL     1      35.186 -22.435 -18.916  0.00  0.00    -0.475 OA
ATOM     15  H   UNL     1      35.023 -23.267 -19.316  0.00  0.00    +0.296 HD
ENDBRANCH  13  14
ENDBRANCH  10  13
ENDBRANCH   1   8
BRANCH   2  18
ATOM     16  O   UNL     1      34.094 -18.508 -24.573  0.00  0.00    -0.126 OA
ATOM     17  O   UNL     1      36.041 -18.771 -23.594  0.00  0.00    -0.126 OA
ATOM     18  N   UNL     1      34.941 -18.182 -23.710  0.00  0.00    +0.058 N 
ENDBRANCH   2  18
TORSDOF 4
ENDMDL
MODEL 5
REMARK VINA RESULT:      -7.6      2.131      3.099
REMARK  Name = 736027
REMARK  4 active torsions:
REMARK  status: ('A' for Active; 'I' for Inactive)
REMARK    1  A    between atoms: C_1  and  C_8
REMARK    2  A    between atoms: C_2  and  N_18
REMARK    3  A    between atoms: C_10  and  C_13
REMARK    4  A    between atoms: C_13  and  O_14
REMARK                            x       y       z     vdW  Elec       q    Type
REMARK                         _______ _______ _______ _____ _____    ______ ____
ROOT
ATOM      1  C   UNL     1      34.964 -17.362 -21.545  0.00  0.00    +0.057 C 
ATOM      2  C   UNL     1      34.770 -17.181 -22.914  0.00  0.00    +0.146 C 
ATOM      3  C   UNL     1      34.795 -16.290 -20.669  0.00  0.00    +0.005 C 
ATOM      4  C   UNL     1      34.407 -15.928 -23.407  0.00  0.00    +0.024 C 
ATOM      5  C   UNL     1      34.432 -15.037 -21.163  0.00  0.00    +0.000 C 
ATOM      6  C   UNL     1      34.238 -14.856 -22.533  0.00  0.00    +0.002 C 
ENDROOT
BRANCH   1   8
ATOM      7  O   UNL     1      34.304 -19.461 -20.684  0.00  0.00    -0.447 OA
ATOM      8  C   UNL     1      35.340 -18.648 -20.998  0.00  0.00    +0.147 C 
ATOM      9  C   UNL     1      36.541 -19.241 -20.718  0.00  0.00    +0.041 C 
ATOM     10  C   UNL     1      34.853 -20.603 -20.192  0.00  0.00    +0.220 C 
ATOM     11  C   UNL     1      36.226 -20.517 -20.192  0.00  0.00    +0.047 C 
BRANCH  10  13
ATOM     12  O   UNL     1      32.722 -21.638 -19.863  0.00  0.00    -0.242 OA
ATOM     13  C   UNL     1      33.973 -21.641 -19.780  0.00  0.00    +0.373 C 
BRANCH  13  14
ATOM     14  O   UNL     1      34.617 -22.731 -19.247  0.00  0.00    -0.475 OA
ATOM     15  H   UNL     1      34.189 -23.564 -19.227  0.00  0.00    +0.296 HD
ENDBRANCH  13  14
ENDBRANCH  10  13
ENDBRANCH   1   8
BRANCH   2  18
ATOM     16  O   UNL     1      36.034 -18.849 -23.882  0.00  0.00    -0.126 OA
ATOM     17  O   UNL     1      33.971 -18.569 -24.576  0.00  0.00    -0.126 OA
ATOM     18  N   UNL     1      34.933 -18.254 -23.837  0.00  0.00    +0.058 N 
ENDBRANCH   2  18
TORSDOF 4
ENDMDL
MODEL 6
REMARK VINA RESULT:      -7.6      3.229      6.521
REMARK  Name = 736027
REMARK  4 active torsions:
REMARK  status: ('A' for Active; 'I' for Inactive)
REMARK    1  A    between atoms: C_1  and  C_8
REMARK    2  A    between atoms: C_2  and  N_18
REMARK    3  A    between atoms: C_10  and  C_13
REMARK    4  A    between atoms: C_13  and  O_14
REMARK                            x       y       z     vdW  Elec       q    Type
REMARK                         _______ _______ _______ _____ _____    ______ ____
ROOT
ATOM      1  C   UNL     1      34.488 -16.684 -23.200  0.00  0.00    +0.057 C 
ATOM      2  C   UNL     1      34.379 -16.923 -21.830  0.00  0.00    +0.146 C 
ATOM      3  C   UNL     1      34.911 -17.702 -24.053  0.00  0.00    +0.005 C 
ATOM      4  C   UNL     1      34.693 -18.180 -21.314  0.00  0.00    +0.024 C 
ATOM      5  C   UNL     1      35.225 -18.960 -23.537  0.00  0.00    +0.000 C 
ATOM      6  C   UNL     1      35.117 -19.198 -22.166  0.00  0.00    +0.002 C 
ENDROOT
BRANCH   1   8
ATOM      7  O   UNL     1      33.787 -15.419 -25.069  0.00  0.00    -0.447 OA
ATOM      8  C   UNL     1      34.169 -15.393 -23.770  0.00  0.00    +0.147 C 
ATOM      9  C   UNL     1      34.170 -14.117 -23.277  0.00  0.00    +0.041 C 
ATOM     10  C   UNL     1      33.535 -14.130 -25.417  0.00  0.00    +0.220 C 
ATOM     11  C   UNL     1      33.756 -13.290 -24.350  0.00  0.00    +0.047 C 
BRANCH  10  13
ATOM     12  O   UNL     1      33.828 -13.488 -27.702  0.00  0.00    -0.242 OA
ATOM     13  C   UNL     1      33.110 -13.871 -26.749  0.00  0.00    +0.373 C 
BRANCH  13  14
ATOM     14  O   UNL     1      31.768 -14.083 -26.951  0.00  0.00    -0.475 OA
ATOM     15  H   UNL     1      31.431 -14.957 -26.977  0.00  0.00    +0.296 HD
ENDBRANCH  13  14
ENDBRANCH  10  13
ENDBRANCH   1   8
BRANCH   2  18
ATOM     16  O   UNL     1      34.813 -15.250 -20.302  0.00  0.00    -0.126 OA
ATOM     17  O   UNL     1      32.721 -15.699 -20.792  0.00  0.00    -0.126 OA
ATOM     18  N   UNL     1      33.949 -15.906 -20.929  0.00  0.00    +0.058 N 
ENDBRANCH   2  18
TORSDOF 4
ENDMDL
MODEL 7
REMARK VINA RESULT:      -7.5      2.634      3.545
REMARK  Name = 736027
REMARK  4 active torsions:
REMARK  status: ('A' for Active; 'I' for Inactive)
REMARK    1  A    between atoms: C_1  and  C_8
REMARK    2  A    between atoms: C_2  and  N_18
REMARK    3  A    between atoms: C_10  and  C_13
REMARK    4  A    between atoms: C_13  and  O_14
REMARK                            x       y       z     vdW  Elec       q    Type
REMARK                         _______ _______ _______ _____ _____    ______ ____
ROOT
ATOM      1  C   UNL     1      34.239 -16.247 -22.642  0.00  0.00    +0.057 C 
ATOM      2  C   UNL     1      34.063 -16.090 -24.017  0.00  0.00    +0.146 C 
ATOM      3  C   UNL     1      33.889 -15.215 -21.772  0.00  0.00    +0.005 C 
ATOM      4  C   UNL     1      33.537 -14.901 -24.521  0.00  0.00    +0.024 C 
ATOM      5  C   UNL     1      33.364 -14.025 -22.277  0.00  0.00    +0.000 C 
ATOM      6  C   UNL     1      33.188 -13.868 -23.652  0.00  0.00    +0.002 C 
ENDROOT
BRANCH   1   8
ATOM      7  O   UNL     1      33.871 -18.283 -21.500  0.00  0.00    -0.447 OA
ATOM      8  C   UNL     1      34.781 -17.467 -22.083  0.00  0.00    +0.147 C 
ATOM      9  C   UNL     1      36.041 -17.994 -22.010  0.00  0.00    +0.041 C 
ATOM     10  C   UNL     1      34.564 -19.359 -21.043  0.00  0.00    +0.220 C 
ATOM     11  C   UNL     1      35.903 -19.228 -21.331  0.00  0.00    +0.047 C 
BRANCH  10  13
ATOM     12  O   UNL     1      34.291 -21.204 -19.546  0.00  0.00    -0.242 OA
ATOM     13  C   UNL     1      33.837 -20.384 -20.378  0.00  0.00    +0.373 C 
BRANCH  13  14
ATOM     14  O   UNL     1      32.508 -20.430 -20.722  0.00  0.00    -0.475 OA
ATOM     15  H   UNL     1      32.155 -19.794 -21.313  0.00  0.00    +0.296 HD
ENDBRANCH  13  14
ENDBRANCH  10  13
ENDBRANCH   1   8
BRANCH   2  18
ATOM     16  O   UNL     1      35.210 -16.864 -25.861  0.00  0.00    -0.126 OA
ATOM     17  O   UNL     1      33.902 -18.259 -24.785  0.00  0.00    -0.126 OA
ATOM     18  N   UNL     1      34.409 -17.123 -24.934  0.00  0.00    +0.058 N 
ENDBRANCH   2  18
TORSDOF 4
ENDMDL
MODEL 8
REMARK VINA RESULT:      -7.4      4.294      6.917
REMARK  Name = 736027
REMARK  4 active torsions:
REMARK  status: ('A' for Active; 'I' for Inactive)
REMARK    1  A    between atoms: C_1  and  C_8
REMARK    2  A    between atoms: C_2  and  N_18
REMARK    3  A    between atoms: C_10  and  C_13
REMARK    4  A    between atoms: C_13  and  O_14
REMARK                            x       y       z     vdW  Elec       q    Type
REMARK                         _______ _______ _______ _____ _____    ______ ____
ROOT
ATOM      1  C   UNL     1      34.411 -16.298 -22.812  0.00  0.00    +0.057 C 
ATOM      2  C   UNL     1      34.733 -17.142 -23.876  0.00  0.00    +0.146 C 
ATOM      3  C   UNL     1      34.760 -16.655 -21.510  0.00  0.00    +0.005 C 
ATOM      4  C   UNL     1      35.403 -18.341 -23.637  0.00  0.00    +0.024 C 
ATOM      5  C   UNL     1      35.430 -17.856 -21.271  0.00  0.00    +0.000 C 
ATOM      6  C   UNL     1      35.751 -18.699 -22.335  0.00  0.00    +0.002 C 
ENDROOT
BRANCH   1   8
ATOM      7  O   UNL     1      34.339 -14.182 -23.861  0.00  0.00    -0.447 OA
ATOM      8  C   UNL     1      33.718 -15.046 -23.023  0.00  0.00    +0.147 C 
ATOM      9  C   UNL     1      32.544 -14.525 -22.551  0.00  0.00    +0.041 C 
ATOM     10  C   UNL     1      33.544 -13.082 -23.928  0.00  0.00    +0.220 C 
ATOM     11  C   UNL     1      32.428 -13.243 -23.140  0.00  0.00    +0.047 C 
BRANCH  10  13
ATOM     12  O   UNL     1      33.798 -11.896 -25.990  0.00  0.00    -0.242 OA
ATOM     13  C   UNL     1      33.969 -12.004 -24.753  0.00  0.00    +0.373 C 
BRANCH  13  14
ATOM     14  O   UNL     1      34.626 -11.011 -24.067  0.00  0.00    -0.475 OA
ATOM     15  H   UNL     1      35.561 -10.958 -24.101  0.00  0.00    +0.296 HD
ENDBRANCH  13  14
ENDBRANCH  10  13
ENDBRANCH   1   8
BRANCH   2  18
ATOM     16  O   UNL     1      35.256 -16.261 -25.942  0.00  0.00    -0.126 OA
ATOM     17  O   UNL     1      33.241 -17.076 -25.635  0.00  0.00    -0.126 OA
ATOM     18  N   UNL     1      34.393 -16.809 -25.219  0.00  0.00    +0.058 N 
ENDBRANCH   2  18
TORSDOF 4
ENDMDL
MODEL 9
REMARK VINA RESULT:      -7.4      3.671      7.058
REMARK  Name = 736027
REMARK  4 active torsions:
REMARK  status: ('A' for Active; 'I' for Inactive)
REMARK    1  A    between atoms: C_1  and  C_8
REMARK    2  A    between atoms: C_2  and  N_18
REMARK    3  A    between atoms: C_10  and  C_13
REMARK    4  A    between atoms: C_13  and  O_14
REMARK                            x       y       z     vdW  Elec       q    Type
REMARK                         _______ _______ _______ _____ _____    ______ ____
ROOT
ATOM      1  C   UNL     1      33.945 -15.415 -23.523  0.00  0.00    +0.057 C 
ATOM      2  C   UNL     1      34.260 -16.239 -22.442  0.00  0.00    +0.146 C 
ATOM      3  C   UNL     1      34.150 -15.866 -24.826  0.00  0.00    +0.005 C 
ATOM      4  C   UNL     1      34.781 -17.513 -22.665  0.00  0.00    +0.024 C 
ATOM      5  C   UNL     1      34.671 -17.141 -25.049  0.00  0.00    +0.000 C 
ATOM      6  C   UNL     1      34.988 -17.964 -23.969  0.00  0.00    +0.002 C 
ENDROOT
BRANCH   1   8
ATOM      7  O   UNL     1      34.113 -13.089 -23.902  0.00  0.00    -0.447 OA
ATOM      8  C   UNL     1      33.402 -14.088 -23.328  0.00  0.00    +0.147 C 
ATOM      9  C   UNL     1      32.301 -13.604 -22.676  0.00  0.00    +0.041 C 
ATOM     10  C   UNL     1      33.452 -11.937 -23.611  0.00  0.00    +0.220 C 
ATOM     11  C   UNL     1      32.331 -12.201 -22.859  0.00  0.00    +0.047 C 
BRANCH  10  13
ATOM     12  O   UNL     1      33.605  -9.559 -23.821  0.00  0.00    -0.242 OA
ATOM     13  C   UNL     1      33.994 -10.717 -24.101  0.00  0.00    +0.373 C 
BRANCH  13  14
ATOM     14  O   UNL     1      35.050 -10.890 -24.963  0.00  0.00    -0.475 OA
ATOM     15  H   UNL     1      35.339 -11.754 -25.183  0.00  0.00    +0.296 HD
ENDBRANCH  13  14
ENDBRANCH  10  13
ENDBRANCH   1   8
BRANCH   2  18
ATOM     16  O   UNL     1      32.966 -16.049 -20.543  0.00  0.00    -0.126 OA
ATOM     17  O   UNL     1      34.995 -15.211 -20.511  0.00  0.00    -0.126 OA
ATOM     18  N   UNL     1      34.064 -15.811 -21.097  0.00  0.00    +0.058 N 
ENDBRANCH   2  18
TORSDOF 4
ENDMDL
